MODEL 1
REMARK VINA RESULT:      -6.2      0.000      0.000
REMARK  Name = 7144233
REMARK  6 active torsions:
REMARK  status: ('A' for Active; 'I' for Inactive)
REMARK    1  A    between atoms: S_1  and  C_26
REMARK    2  A    between atoms: S_1  and  C_32
REMARK    3  A    between atoms: O_4  and  C_27
REMARK    4  A    between atoms: O_4  and  C_33
REMARK    5  A    between atoms: N_7  and  C_23
REMARK    6  A    between atoms: C_15  and  C_20
REMARK                            x       y       z     vdW  Elec       q    Type
REMARK                         _______ _______ _______ _____ _____    ______ ____
ROOT
ATOM      2  O   UNL     1      -8.620 -14.256  17.202  0.00  0.00    -0.268 OA
ATOM      3  O   UNL     1      -8.866  -9.470  18.243  0.00  0.00    -0.252 OA
ATOM      5  N   UNL     1      -6.843 -12.774  16.833  0.00  0.00    -0.311 N 
ATOM      6  N   UNL     1      -6.657  -9.732  17.607  0.00  0.00    -0.284 N 
ATOM      7  N   UNL     1      -8.292  -9.106  16.027  0.00  0.00    -0.266 N 
ATOM      8  C   UNL     1      -5.607 -11.657  18.778  0.00  0.00    +0.027 C 
ATOM      9  C   UNL     1      -4.968 -11.137  16.459  0.00  0.00    +0.054 C 
ATOM     10  C   UNL     1      -4.433 -11.606  17.812  0.00  0.00    +0.018 C 
ATOM     11  C   UNL     1      -6.590 -12.717  18.279  0.00  0.00    +0.130 C 
ATOM     12  C   UNL     1      -6.267 -10.272  18.911  0.00  0.00    +0.114 C 
ATOM     13  C   UNL     1      -5.566  -9.720  16.617  0.00  0.00    +0.119 C 
ATOM     14  C   UNL     1      -6.026 -12.097  15.904  0.00  0.00    +0.034 A 
ATOM     15  C   UNL     1      -6.222 -12.281  14.571  0.00  0.00    +0.002 A 
ATOM     16  C   UNL     1      -7.887 -13.630  16.435  0.00  0.00    +0.252 A 
ATOM     17  C   UNL     1      -8.013  -9.436  17.352  0.00  0.00    +0.307 C 
ATOM     18  C   UNL     1      -7.290 -13.155  14.126  0.00  0.00    +0.015 A 
ATOM     19  C   UNL     1      -8.093 -13.790  14.979  0.00  0.00    +0.071 A 
ATOM     34  H   UNL     1      -7.562  -8.687  15.464  0.00  0.00    +0.156 HD
ENDROOT
BRANCH  15  20
ATOM     20  C   UNL     1      -5.394 -11.590  13.559  0.00  0.00    -0.016 A 
ATOM     21  C   UNL     1      -4.151 -12.110  13.214  0.00  0.00    +0.009 A 
ATOM     22  C   UNL     1      -5.862 -10.423  12.962  0.00  0.00    +0.009 A 
ATOM     24  C   UNL     1      -3.367 -11.458  12.261  0.00  0.00    +0.015 A 
ATOM     25  C   UNL     1      -5.079  -9.771  12.010  0.00  0.00    +0.015 A 
ATOM     26  C   UNL     1      -3.832 -10.288  11.658  0.00  0.00    +0.008 A 
BRANCH  26   1
ATOM      1  S   UNL     1      -2.833  -9.455  10.441  0.00  0.00    -0.129 S 
ATOM     32  C   UNL     1      -4.093  -8.826   9.296  0.00  0.00    +0.090 C 
ENDBRANCH  26   1
ENDBRANCH  15  20
BRANCH   7  23
ATOM     23  C   UNL     1      -9.529  -9.254  15.353  0.00  0.00    +0.077 A 
ATOM     27  C   UNL     1     -10.385  -8.166  15.199  0.00  0.00    +0.141 A 
ATOM     28  C   UNL     1      -9.880 -10.502  14.844  0.00  0.00    +0.027 A 
ATOM     29  C   UNL     1     -11.600  -8.328  14.533  0.00  0.00    +0.047 A 
ATOM     30  C   UNL     1     -11.094 -10.663  14.178  0.00  0.00    +0.002 A 
ATOM     31  C   UNL     1     -11.955  -9.577  14.022  0.00  0.00    +0.004 A 
BRANCH  27   4
ATOM      4  O   UNL     1     -10.057  -6.938  15.691  0.00  0.00    -0.493 OA
ATOM     33  C   UNL     1     -11.125  -6.014  15.888  0.00  0.00    +0.277 C 
ENDBRANCH  27   4
ENDBRANCH   7  23
TORSDOF 4
ENDMDL
MODEL 2
REMARK VINA RESULT:      -6.2      3.640      7.073
REMARK  Name = 7144233
REMARK  6 active torsions:
REMARK  status: ('A' for Active; 'I' for Inactive)
REMARK    1  A    between atoms: S_1  and  C_26
REMARK    2  A    between atoms: S_1  and  C_32
REMARK    3  A    between atoms: O_4  and  C_27
REMARK    4  A    between atoms: O_4  and  C_33
REMARK    5  A    between atoms: N_7  and  C_23
REMARK    6  A    between atoms: C_15  and  C_20
REMARK                            x       y       z     vdW  Elec       q    Type
REMARK                         _______ _______ _______ _____ _____    ______ ____
ROOT
ATOM      2  O   UNL     1      -1.774 -10.711  16.340  0.00  0.00    -0.268 OA
ATOM      3  O   UNL     1      -4.776 -14.548  15.781  0.00  0.00    -0.252 OA
ATOM      5  N   UNL     1      -3.679 -10.656  14.978  0.00  0.00    -0.311 N 
ATOM      6  N   UNL     1      -5.875 -12.878  14.617  0.00  0.00    -0.284 N 
ATOM      7  N   UNL     1      -4.390 -14.335  13.506  0.00  0.00    -0.266 N 
ATOM      8  C   UNL     1      -6.037 -10.798  15.969  0.00  0.00    +0.027 C 
ATOM      9  C   UNL     1      -5.738 -10.655  13.530  0.00  0.00    +0.054 C 
ATOM     10  C   UNL     1      -6.448 -10.021  14.726  0.00  0.00    +0.018 C 
ATOM     11  C   UNL     1      -4.533 -10.609  16.172  0.00  0.00    +0.130 C 
ATOM     12  C   UNL     1      -6.422 -12.283  15.838  0.00  0.00    +0.114 C 
ATOM     13  C   UNL     1      -6.196 -12.125  13.392  0.00  0.00    +0.119 C 
ATOM     14  C   UNL     1      -4.214 -10.588  13.675  0.00  0.00    +0.034 A 
ATOM     15  C   UNL     1      -3.379 -10.507  12.605  0.00  0.00    +0.002 A 
ATOM     16  C   UNL     1      -2.294 -10.667  15.225  0.00  0.00    +0.252 A 
ATOM     17  C   UNL     1      -4.989 -13.972  14.711  0.00  0.00    +0.307 C 
ATOM     18  C   UNL     1      -1.945 -10.517  12.822  0.00  0.00    +0.015 A 
ATOM     19  C   UNL     1      -1.410 -10.605  14.039  0.00  0.00    +0.071 A 
ATOM     34  H   UNL     1      -4.881 -14.146  12.641  0.00  0.00    +0.156 HD
ENDROOT
BRANCH  15  20
ATOM     20  C   UNL     1      -3.892 -10.437  11.219  0.00  0.00    -0.016 A 
ATOM     21  C   UNL     1      -3.946 -11.592  10.445  0.00  0.00    +0.009 A 
ATOM     22  C   UNL     1      -4.314  -9.217  10.699  0.00  0.00    +0.009 A 
ATOM     24  C   UNL     1      -4.428 -11.527   9.137  0.00  0.00    +0.015 A 
ATOM     25  C   UNL     1      -4.795  -9.152   9.391  0.00  0.00    +0.015 A 
ATOM     26  C   UNL     1      -4.853 -10.306   8.610  0.00  0.00    +0.008 A 
BRANCH  26   1
ATOM      1  S   UNL     1      -5.469 -10.223   6.941  0.00  0.00    -0.129 S 
ATOM     32  C   UNL     1      -4.695 -11.681   6.187  0.00  0.00    +0.090 C 
ENDBRANCH  26   1
ENDBRANCH  15  20
BRANCH   7  23
ATOM     23  C   UNL     1      -3.148 -14.992  13.334  0.00  0.00    +0.077 A 
ATOM     27  C   UNL     1      -3.104 -16.337  12.970  0.00  0.00    +0.141 A 
ATOM     28  C   UNL     1      -1.968 -14.279  13.532  0.00  0.00    +0.027 A 
ATOM     29  C   UNL     1      -1.873 -16.971  12.805  0.00  0.00    +0.047 A 
ATOM     30  C   UNL     1      -0.738 -14.914  13.366  0.00  0.00    +0.002 A 
ATOM     31  C   UNL     1      -0.690 -16.260  13.002  0.00  0.00    +0.004 A 
BRANCH  27   4
ATOM      4  O   UNL     1      -4.249 -17.049  12.772  0.00  0.00    -0.493 OA
ATOM     33  C   UNL     1      -4.564 -17.406  11.428  0.00  0.00    +0.277 C 
ENDBRANCH  27   4
ENDBRANCH   7  23
TORSDOF 4
ENDMDL
MODEL 3
REMARK VINA RESULT:      -6.2     24.347     28.753
REMARK  Name = 7144233
REMARK  6 active torsions:
REMARK  status: ('A' for Active; 'I' for Inactive)
REMARK    1  A    between atoms: S_1  and  C_26
REMARK    2  A    between atoms: S_1  and  C_32
REMARK    3  A    between atoms: O_4  and  C_27
REMARK    4  A    between atoms: O_4  and  C_33
REMARK    5  A    between atoms: N_7  and  C_23
REMARK    6  A    between atoms: C_15  and  C_20
REMARK                            x       y       z     vdW  Elec       q    Type
REMARK                         _______ _______ _______ _____ _____    ______ ____
ROOT
ATOM      2  O   UNL     1       9.709  10.077   1.331  0.00  0.00    -0.268 OA
ATOM      3  O   UNL     1      14.073   7.849   1.523  0.00  0.00    -0.252 OA
ATOM      5  N   UNL     1      10.731   9.439   3.340  0.00  0.00    -0.311 N 
ATOM      6  N   UNL     1      13.595   8.208   3.758  0.00  0.00    -0.284 N 
ATOM      7  N   UNL     1      13.004   6.176   2.718  0.00  0.00    -0.266 N 
ATOM      8  C   UNL     1      12.885  10.557   4.158  0.00  0.00    +0.027 C 
ATOM      9  C   UNL     1      11.877   8.732   5.466  0.00  0.00    +0.054 C 
ATOM     10  C   UNL     1      12.387  10.171   5.543  0.00  0.00    +0.018 C 
ATOM     11  C   UNL     1      11.693  10.541   3.201  0.00  0.00    +0.130 C 
ATOM     12  C   UNL     1      14.010   9.611   3.699  0.00  0.00    +0.114 C 
ATOM     13  C   UNL     1      13.047   7.804   5.064  0.00  0.00    +0.119 C 
ATOM     14  C   UNL     1      10.724   8.592   4.467  0.00  0.00    +0.034 A 
ATOM     15  C   UNL     1       9.737   7.668   4.611  0.00  0.00    +0.002 A 
ATOM     16  C   UNL     1       9.758   9.355   2.327  0.00  0.00    +0.252 A 
ATOM     17  C   UNL     1      13.591   7.432   2.579  0.00  0.00    +0.307 C 
ATOM     18  C   UNL     1       8.718   7.552   3.586  0.00  0.00    +0.015 A 
ATOM     19  C   UNL     1       8.712   8.322   2.498  0.00  0.00    +0.071 A 
ATOM     34  H   UNL     1      13.019   5.728   3.626  0.00  0.00    +0.156 HD
ENDROOT
BRANCH  15  20
ATOM     20  C   UNL     1       9.689   6.754   5.774  0.00  0.00    -0.016 A 
ATOM     21  C   UNL     1       9.937   5.397   5.596  0.00  0.00    +0.009 A 
ATOM     22  C   UNL     1       9.393   7.259   7.037  0.00  0.00    +0.009 A 
ATOM     24  C   UNL     1       9.890   4.534   6.692  0.00  0.00    +0.015 A 
ATOM     25  C   UNL     1       9.346   6.396   8.132  0.00  0.00    +0.015 A 
ATOM     26  C   UNL     1       9.594   5.034   7.960  0.00  0.00    +0.008 A 
BRANCH  26   1
ATOM      1  S   UNL     1       9.534   3.934   9.360  0.00  0.00    -0.129 S 
ATOM     32  C   UNL     1       8.517   4.878  10.530  0.00  0.00    +0.090 C 
ENDBRANCH  26   1
ENDBRANCH  15  20
BRANCH   7  23
ATOM     23  C   UNL     1      12.399   5.399   1.700  0.00  0.00    +0.077 A 
ATOM     27  C   UNL     1      13.090   4.342   1.112  0.00  0.00    +0.141 A 
ATOM     28  C   UNL     1      11.102   5.704   1.294  0.00  0.00    +0.027 A 
ATOM     29  C   UNL     1      12.480   3.586   0.111  0.00  0.00    +0.047 A 
ATOM     30  C   UNL     1      10.493   4.947   0.293  0.00  0.00    +0.002 A 
ATOM     31  C   UNL     1      11.182   3.889  -0.299  0.00  0.00    +0.004 A 
BRANCH  27   4
ATOM      4  O   UNL     1      14.359   4.030   1.498  0.00  0.00    -0.493 OA
ATOM     33  C   UNL     1      15.416   4.422   0.625  0.00  0.00    +0.277 C 
ENDBRANCH  27   4
ENDBRANCH   7  23
TORSDOF 4
ENDMDL
MODEL 4
REMARK VINA RESULT:      -6.1     25.279     27.970
REMARK  Name = 7144233
REMARK  6 active torsions:
REMARK  status: ('A' for Active; 'I' for Inactive)
REMARK    1  A    between atoms: S_1  and  C_26
REMARK    2  A    between atoms: S_1  and  C_32
REMARK    3  A    between atoms: O_4  and  C_27
REMARK    4  A    between atoms: O_4  and  C_33
REMARK    5  A    between atoms: N_7  and  C_23
REMARK    6  A    between atoms: C_15  and  C_20
REMARK                            x       y       z     vdW  Elec       q    Type
REMARK                         _______ _______ _______ _____ _____    ______ ____
ROOT
ATOM      2  O   UNL     1       8.661   7.718   8.159  0.00  0.00    -0.268 OA
ATOM      3  O   UNL     1      10.546  11.435   5.574  0.00  0.00    -0.252 OA
ATOM      5  N   UNL     1      10.366   7.440   6.577  0.00  0.00    -0.311 N 
ATOM      6  N   UNL     1      11.896   9.659   4.957  0.00  0.00    -0.284 N 
ATOM      7  N   UNL     1       9.989  10.214   3.685  0.00  0.00    -0.266 N 
ATOM      8  C   UNL     1      12.706   8.412   6.949  0.00  0.00    +0.027 C 
ATOM      9  C   UNL     1      12.198   7.201   4.868  0.00  0.00    +0.054 C 
ATOM     10  C   UNL     1      13.164   7.273   6.050  0.00  0.00    +0.018 C 
ATOM     11  C   UNL     1      11.326   8.058   7.502  0.00  0.00    +0.130 C 
ATOM     12  C   UNL     1      12.698   9.745   6.179  0.00  0.00    +0.114 C 
ATOM     13  C   UNL     1      12.262   8.532   4.083  0.00  0.00    +0.119 C 
ATOM     14  C   UNL     1      10.761   6.926   5.325  0.00  0.00    +0.034 A 
ATOM     15  C   UNL     1       9.864   6.251   4.558  0.00  0.00    +0.002 A 
ATOM     16  C   UNL     1       9.055   7.302   7.069  0.00  0.00    +0.252 A 
ATOM     17  C   UNL     1      10.781  10.510   4.793  0.00  0.00    +0.307 C 
ATOM     18  C   UNL     1       8.504   6.091   5.033  0.00  0.00    +0.015 A 
ATOM     19  C   UNL     1       8.095   6.586   6.201  0.00  0.00    +0.071 A 
ATOM     34  H   UNL     1      10.417   9.771   2.882  0.00  0.00    +0.156 HD
ENDROOT
BRANCH  15  20
ATOM     20  C   UNL     1      10.230   5.697   3.236  0.00  0.00    -0.016 A 
ATOM     21  C   UNL     1       9.909   6.400   2.081  0.00  0.00    +0.009 A 
ATOM     22  C   UNL     1      10.891   4.474   3.158  0.00  0.00    +0.009 A 
ATOM     24  C   UNL     1      10.252   5.878   0.833  0.00  0.00    +0.015 A 
ATOM     25  C   UNL     1      11.234   3.952   1.911  0.00  0.00    +0.015 A 
ATOM     26  C   UNL     1      10.915   4.653   0.748  0.00  0.00    +0.008 A 
BRANCH  26   1
ATOM      1  S   UNL     1      11.353   3.985  -0.844  0.00  0.00    -0.129 S 
ATOM     32  C   UNL     1      12.953   3.204  -0.490  0.00  0.00    +0.090 C 
ENDBRANCH  26   1
ENDBRANCH  15  20
BRANCH   7  23
ATOM     23  C   UNL     1       8.612  10.500   3.521  0.00  0.00    +0.077 A 
ATOM     27  C   UNL     1       8.204  11.650   2.846  0.00  0.00    +0.141 A 
ATOM     28  C   UNL     1       7.667   9.618   4.040  0.00  0.00    +0.027 A 
ATOM     29  C   UNL     1       6.844  11.917   2.692  0.00  0.00    +0.047 A 
ATOM     30  C   UNL     1       6.308   9.887   3.886  0.00  0.00    +0.002 A 
ATOM     31  C   UNL     1       5.896  11.037   3.212  0.00  0.00    +0.004 A 
BRANCH  27   4
ATOM      4  O   UNL     1       9.114  12.523   2.331  0.00  0.00    -0.493 OA
ATOM     33  C   UNL     1       9.327  13.735   3.050  0.00  0.00    +0.277 C 
ENDBRANCH  27   4
ENDBRANCH   7  23
TORSDOF 4
ENDMDL
MODEL 5
REMARK VINA RESULT:      -6.0     25.296     28.606
REMARK  Name = 7144233
REMARK  6 active torsions:
REMARK  status: ('A' for Active; 'I' for Inactive)
REMARK    1  A    between atoms: S_1  and  C_26
REMARK    2  A    between atoms: S_1  and  C_32
REMARK    3  A    between atoms: O_4  and  C_27
REMARK    4  A    between atoms: O_4  and  C_33
REMARK    5  A    between atoms: N_7  and  C_23
REMARK    6  A    between atoms: C_15  and  C_20
REMARK                            x       y       z     vdW  Elec       q    Type
REMARK                         _______ _______ _______ _____ _____    ______ ____
ROOT
ATOM      2  O   UNL     1       7.168   9.397   5.035  0.00  0.00    -0.268 OA
ATOM      3  O   UNL     1      11.485   9.464   7.360  0.00  0.00    -0.252 OA
ATOM      5  N   UNL     1       8.644   7.579   5.042  0.00  0.00    -0.311 N 
ATOM      6  N   UNL     1      11.348   7.276   6.620  0.00  0.00    -0.284 N 
ATOM      7  N   UNL     1      12.431   8.917   5.317  0.00  0.00    -0.266 N 
ATOM      8  C   UNL     1       9.146   6.272   7.187  0.00  0.00    +0.027 C 
ATOM      9  C   UNL     1      10.269   5.656   5.086  0.00  0.00    +0.054 C 
ATOM     10  C   UNL     1       9.430   5.114   6.243  0.00  0.00    +0.018 C 
ATOM     11  C   UNL     1       8.293   7.298   6.441  0.00  0.00    +0.130 C 
ATOM     12  C   UNL     1      10.458   6.882   7.714  0.00  0.00    +0.114 C 
ATOM     13  C   UNL     1      11.603   6.203   5.644  0.00  0.00    +0.119 C 
ATOM     14  C   UNL     1       9.528   6.755   4.316  0.00  0.00    +0.034 A 
ATOM     15  C   UNL     1       9.725   6.980   2.989  0.00  0.00    +0.002 A 
ATOM     16  C   UNL     1       7.960   8.657   4.452  0.00  0.00    +0.252 A 
ATOM     17  C   UNL     1      11.740   8.626   6.492  0.00  0.00    +0.307 C 
ATOM     18  C   UNL     1       9.038   8.084   2.348  0.00  0.00    +0.015 A 
ATOM     19  C   UNL     1       8.215   8.894   3.013  0.00  0.00    +0.071 A 
ATOM     34  H   UNL     1      12.968   8.183   4.872  0.00  0.00    +0.156 HD
ENDROOT
BRANCH  15  20
ATOM     20  C   UNL     1      10.646   6.147   2.185  0.00  0.00    -0.016 A 
ATOM     21  C   UNL     1      11.980   6.518   2.058  0.00  0.00    +0.009 A 
ATOM     22  C   UNL     1      10.169   4.998   1.559  0.00  0.00    +0.009 A 
ATOM     24  C   UNL     1      12.849   5.734   1.298  0.00  0.00    +0.015 A 
ATOM     25  C   UNL     1      11.038   4.214   0.800  0.00  0.00    +0.015 A 
ATOM     26  C   UNL     1      12.377   4.581   0.669  0.00  0.00    +0.008 A 
BRANCH  26   1
ATOM      1  S   UNL     1      13.485   3.578  -0.301  0.00  0.00    -0.129 S 
ATOM     32  C   UNL     1      15.088   3.953   0.464  0.00  0.00    +0.090 C 
ENDBRANCH  26   1
ENDBRANCH  15  20
BRANCH   7  23
ATOM     23  C   UNL     1      12.508  10.169   4.660  0.00  0.00    +0.077 A 
ATOM     27  C   UNL     1      13.607  11.004   4.857  0.00  0.00    +0.141 A 
ATOM     28  C   UNL     1      11.474  10.558   3.813  0.00  0.00    +0.027 A 
ATOM     29  C   UNL     1      13.668  12.234   4.203  0.00  0.00    +0.047 A 
ATOM     30  C   UNL     1      11.537  11.788   3.159  0.00  0.00    +0.002 A 
ATOM     31  C   UNL     1      12.634  12.627   3.355  0.00  0.00    +0.004 A 
BRANCH  27   4
ATOM      4  O   UNL     1      14.628  10.640   5.682  0.00  0.00    -0.493 OA
ATOM     33  C   UNL     1      14.679  11.263   6.964  0.00  0.00    +0.277 C 
ENDBRANCH  27   4
ENDBRANCH   7  23
TORSDOF 4
ENDMDL
MODEL 6
REMARK VINA RESULT:      -5.7     26.525     29.579
REMARK  Name = 7144233
REMARK  6 active torsions:
REMARK  status: ('A' for Active; 'I' for Inactive)
REMARK    1  A    between atoms: S_1  and  C_26
REMARK    2  A    between atoms: S_1  and  C_32
REMARK    3  A    between atoms: O_4  and  C_27
REMARK    4  A    between atoms: O_4  and  C_33
REMARK    5  A    between atoms: N_7  and  C_23
REMARK    6  A    between atoms: C_15  and  C_20
REMARK                            x       y       z     vdW  Elec       q    Type
REMARK                         _______ _______ _______ _____ _____    ______ ____
ROOT
ATOM      2  O   UNL     1      19.570  -4.700  21.337  0.00  0.00    -0.268 OA
ATOM      3  O   UNL     1      20.802  -1.417  24.765  0.00  0.00    -0.252 OA
ATOM      5  N   UNL     1      18.157  -4.113  23.110  0.00  0.00    -0.311 N 
ATOM      6  N   UNL     1      18.602  -1.897  25.298  0.00  0.00    -0.284 N 
ATOM      7  N   UNL     1      20.369  -3.086  26.313  0.00  0.00    -0.266 N 
ATOM      8  C   UNL     1      17.142  -1.768  23.291  0.00  0.00    +0.027 C 
ATOM      9  C   UNL     1      16.681  -3.441  25.035  0.00  0.00    +0.054 C 
ATOM     10  C   UNL     1      16.028  -2.467  24.055  0.00  0.00    +0.018 C 
ATOM     11  C   UNL     1      17.888  -2.818  22.468  0.00  0.00    +0.130 C 
ATOM     12  C   UNL     1      18.077  -1.015  24.255  0.00  0.00    +0.114 C 
ATOM     13  C   UNL     1      17.562  -2.644  26.025  0.00  0.00    +0.119 C 
ATOM     14  C   UNL     1      17.524  -4.496  24.310  0.00  0.00    +0.034 A 
ATOM     15  C   UNL     1      17.706  -5.751  24.799  0.00  0.00    +0.002 A 
ATOM     16  C   UNL     1      19.004  -4.978  22.394  0.00  0.00    +0.252 A 
ATOM     17  C   UNL     1      19.996  -2.088  25.414  0.00  0.00    +0.307 C 
ATOM     18  C   UNL     1      18.574  -6.670  24.088  0.00  0.00    +0.015 A 
ATOM     19  C   UNL     1      19.205  -6.328  22.966  0.00  0.00    +0.071 A 
ATOM     34  H   UNL     1      19.757  -3.294  27.093  0.00  0.00    +0.156 HD
ENDROOT
BRANCH  15  20
ATOM     20  C   UNL     1      17.066  -6.199  26.056  0.00  0.00    -0.016 A 
ATOM     21  C   UNL     1      17.704  -5.977  27.272  0.00  0.00    +0.009 A 
ATOM     22  C   UNL     1      15.832  -6.842  26.012  0.00  0.00    +0.009 A 
ATOM     24  C   UNL     1      17.102  -6.400  28.458  0.00  0.00    +0.015 A 
ATOM     25  C   UNL     1      15.231  -7.265  27.197  0.00  0.00    +0.015 A 
ATOM     26  C   UNL     1      15.865  -7.045  28.420  0.00  0.00    +0.008 A 
BRANCH  26   1
ATOM      1  S   UNL     1      15.096  -7.586  29.933  0.00  0.00    -0.129 S 
ATOM     32  C   UNL     1      13.949  -6.221  30.273  0.00  0.00    +0.090 C 
ENDBRANCH  26   1
ENDBRANCH  15  20
BRANCH   7  23
ATOM     23  C   UNL     1      21.561  -3.850  26.294  0.00  0.00    +0.077 A 
ATOM     27  C   UNL     1      22.650  -3.482  27.082  0.00  0.00    +0.141 A 
ATOM     28  C   UNL     1      21.633  -4.976  25.478  0.00  0.00    +0.027 A 
ATOM     29  C   UNL     1      23.817  -4.245  27.052  0.00  0.00    +0.047 A 
ATOM     30  C   UNL     1      22.800  -5.738  25.449  0.00  0.00    +0.002 A 
ATOM     31  C   UNL     1      23.892  -5.373  26.235  0.00  0.00    +0.004 A 
BRANCH  27   4
ATOM      4  O   UNL     1      22.596  -2.383  27.886  0.00  0.00    -0.493 OA
ATOM     33  C   UNL     1      23.280  -1.217  27.435  0.00  0.00    +0.277 C 
ENDBRANCH  27   4
ENDBRANCH   7  23
TORSDOF 4
ENDMDL
MODEL 7
REMARK VINA RESULT:      -5.7     32.569     34.825
REMARK  Name = 7144233
REMARK  6 active torsions:
REMARK  status: ('A' for Active; 'I' for Inactive)
REMARK    1  A    between atoms: S_1  and  C_26
REMARK    2  A    between atoms: S_1  and  C_32
REMARK    3  A    between atoms: O_4  and  C_27
REMARK    4  A    between atoms: O_4  and  C_33
REMARK    5  A    between atoms: N_7  and  C_23
REMARK    6  A    between atoms: C_15  and  C_20
REMARK                            x       y       z     vdW  Elec       q    Type
REMARK                         _______ _______ _______ _____ _____    ______ ____
ROOT
ATOM      2  O   UNL     1      25.055   9.120  21.758  0.00  0.00    -0.268 OA
ATOM      3  O   UNL     1      24.051   5.368  24.752  0.00  0.00    -0.252 OA
ATOM      5  N   UNL     1      22.938   8.763  22.694  0.00  0.00    -0.311 N 
ATOM      6  N   UNL     1      22.085   6.587  24.799  0.00  0.00    -0.284 N 
ATOM      7  N   UNL     1      22.363   4.819  23.263  0.00  0.00    -0.266 N 
ATOM      8  C   UNL     1      22.532   8.997  25.212  0.00  0.00    +0.027 C 
ATOM      9  C   UNL     1      20.685   8.330  23.730  0.00  0.00    +0.054 C 
ATOM     10  C   UNL     1      21.105   9.333  24.804  0.00  0.00    +0.018 C 
ATOM     11  C   UNL     1      23.438   9.213  24.000  0.00  0.00    +0.130 C 
ATOM     12  C   UNL     1      22.621   7.559  25.754  0.00  0.00    +0.114 C 
ATOM     13  C   UNL     1      20.727   6.904  24.326  0.00  0.00    +0.119 C 
ATOM     14  C   UNL     1      21.587   8.411  22.493  0.00  0.00    +0.034 A 
ATOM     15  C   UNL     1      21.143   8.122  21.241  0.00  0.00    +0.002 A 
ATOM     16  C   UNL     1      23.870   8.807  21.641  0.00  0.00    +0.252 A 
ATOM     17  C   UNL     1      22.922   5.567  24.297  0.00  0.00    +0.307 C 
ATOM     18  C   UNL     1      22.077   8.156  20.132  0.00  0.00    +0.015 A 
ATOM     19  C   UNL     1      23.364   8.461  20.294  0.00  0.00    +0.071 A 
ATOM     34  H   UNL     1      21.356   4.724  23.218  0.00  0.00    +0.156 HD
ENDROOT
BRANCH  15  20
ATOM     20  C   UNL     1      19.736   7.745  20.981  0.00  0.00    -0.016 A 
ATOM     21  C   UNL     1      18.720   8.664  21.218  0.00  0.00    +0.009 A 
ATOM     22  C   UNL     1      19.440   6.471  20.503  0.00  0.00    +0.009 A 
ATOM     24  C   UNL     1      17.393   8.309  20.975  0.00  0.00    +0.015 A 
ATOM     25  C   UNL     1      18.113   6.116  20.260  0.00  0.00    +0.015 A 
ATOM     26  C   UNL     1      17.089   7.034  20.496  0.00  0.00    +0.008 A 
BRANCH  26   1
ATOM      1  S   UNL     1      15.395   6.579  20.185  0.00  0.00    -0.129 S 
ATOM     32  C   UNL     1      14.927   7.760  18.889  0.00  0.00    +0.090 C 
ENDBRANCH  26   1
ENDBRANCH  15  20
BRANCH   7  23
ATOM     23  C   UNL     1      23.055   4.118  22.246  0.00  0.00    +0.077 A 
ATOM     27  C   UNL     1      23.340   2.761  22.391  0.00  0.00    +0.141 A 
ATOM     28  C   UNL     1      23.449   4.799  21.097  0.00  0.00    +0.027 A 
ATOM     29  C   UNL     1      24.023   2.084  21.381  0.00  0.00    +0.047 A 
ATOM     30  C   UNL     1      24.132   4.121  20.088  0.00  0.00    +0.002 A 
ATOM     31  C   UNL     1      24.419   2.764  20.229  0.00  0.00    +0.004 A 
BRANCH  27   4
ATOM      4  O   UNL     1      22.961   2.079  23.508  0.00  0.00    -0.493 OA
ATOM     33  C   UNL     1      24.000   1.636  24.379  0.00  0.00    +0.277 C 
ENDBRANCH  27   4
ENDBRANCH   7  23
TORSDOF 4
ENDMDL
MODEL 8
REMARK VINA RESULT:      -5.4     25.988     27.852
REMARK  Name = 7144233
REMARK  6 active torsions:
REMARK  status: ('A' for Active; 'I' for Inactive)
REMARK    1  A    between atoms: S_1  and  C_26
REMARK    2  A    between atoms: S_1  and  C_32
REMARK    3  A    between atoms: O_4  and  C_27
REMARK    4  A    between atoms: O_4  and  C_33
REMARK    5  A    between atoms: N_7  and  C_23
REMARK    6  A    between atoms: C_15  and  C_20
REMARK                            x       y       z     vdW  Elec       q    Type
REMARK                         _______ _______ _______ _____ _____    ______ ____
ROOT
ATOM      2  O   UNL     1      16.496 -10.895  27.641  0.00  0.00    -0.268 OA
ATOM      3  O   UNL     1      18.338  -7.650  30.823  0.00  0.00    -0.252 OA
ATOM      5  N   UNL     1      17.930  -9.154  27.006  0.00  0.00    -0.311 N 
ATOM      6  N   UNL     1      19.418  -7.090  28.855  0.00  0.00    -0.284 N 
ATOM      7  N   UNL     1      17.411  -6.014  29.470  0.00  0.00    -0.266 N 
ATOM      8  C   UNL     1      20.380  -9.100  27.754  0.00  0.00    +0.027 C 
ATOM      9  C   UNL     1      19.475  -7.267  26.384  0.00  0.00    +0.054 C 
ATOM     10  C   UNL     1      20.599  -8.298  26.479  0.00  0.00    +0.018 C 
ATOM     11  C   UNL     1      19.063  -9.865  27.615  0.00  0.00    +0.130 C 
ATOM     12  C   UNL     1      20.387  -8.179  28.987  0.00  0.00    +0.114 C 
ATOM     13  C   UNL     1      19.552  -6.322  27.605  0.00  0.00    +0.119 C 
ATOM     14  C   UNL     1      18.097  -7.935  26.318  0.00  0.00    +0.034 A 
ATOM     15  C   UNL     1      17.043  -7.379  25.664  0.00  0.00    +0.002 A 
ATOM     16  C   UNL     1      16.694  -9.823  27.067  0.00  0.00    +0.252 A 
ATOM     17  C   UNL     1      18.375  -6.966  29.798  0.00  0.00    +0.307 C 
ATOM     18  C   UNL     1      15.753  -8.040  25.707  0.00  0.00    +0.015 A 
ATOM     19  C   UNL     1      15.559  -9.180  26.368  0.00  0.00    +0.071 A 
ATOM     34  H   UNL     1      17.680  -5.223  28.897  0.00  0.00    +0.156 HD
ENDROOT
BRANCH  15  20
ATOM     20  C   UNL     1      17.167  -6.099  24.932  0.00  0.00    -0.016 A 
ATOM     21  C   UNL     1      17.599  -6.101  23.610  0.00  0.00    +0.009 A 
ATOM     22  C   UNL     1      16.855  -4.903  25.572  0.00  0.00    +0.009 A 
ATOM     24  C   UNL     1      17.719  -4.894  22.918  0.00  0.00    +0.015 A 
ATOM     25  C   UNL     1      16.974  -3.698  24.881  0.00  0.00    +0.015 A 
ATOM     26  C   UNL     1      17.406  -3.692  23.555  0.00  0.00    +0.008 A 
BRANCH  26   1
ATOM      1  S   UNL     1      17.558  -2.152  22.673  0.00  0.00    -0.129 S 
ATOM     32  C   UNL     1      17.416  -0.941  24.017  0.00  0.00    +0.090 C 
ENDBRANCH  26   1
ENDBRANCH  15  20
BRANCH   7  23
ATOM     23  C   UNL     1      16.057  -5.993  29.884  0.00  0.00    +0.077 A 
ATOM     27  C   UNL     1      15.609  -5.031  30.789  0.00  0.00    +0.141 A 
ATOM     28  C   UNL     1      15.176  -6.944  29.377  0.00  0.00    +0.027 A 
ATOM     29  C   UNL     1      14.273  -5.024  31.187  0.00  0.00    +0.047 A 
ATOM     30  C   UNL     1      13.840  -6.935  29.776  0.00  0.00    +0.002 A 
ATOM     31  C   UNL     1      13.388  -5.976  30.681  0.00  0.00    +0.004 A 
BRANCH  27   4
ATOM      4  O   UNL     1      16.457  -4.093  31.295  0.00  0.00    -0.493 OA
ATOM     33  C   UNL     1      16.358  -2.775  30.759  0.00  0.00    +0.277 C 
ENDBRANCH  27   4
ENDBRANCH   7  23
TORSDOF 4
ENDMDL
MODEL 9
REMARK VINA RESULT:      -5.3     25.176     28.192
REMARK  Name = 7144233
REMARK  6 active torsions:
REMARK  status: ('A' for Active; 'I' for Inactive)
REMARK    1  A    between atoms: S_1  and  C_26
REMARK    2  A    between atoms: S_1  and  C_32
REMARK    3  A    between atoms: O_4  and  C_27
REMARK    4  A    between atoms: O_4  and  C_33
REMARK    5  A    between atoms: N_7  and  C_23
REMARK    6  A    between atoms: C_15  and  C_20
REMARK                            x       y       z     vdW  Elec       q    Type
REMARK                         _______ _______ _______ _____ _____    ______ ____
ROOT
ATOM      2  O   UNL     1     -13.899   8.387  32.123  0.00  0.00    -0.268 OA
ATOM      3  O   UNL     1     -14.444  12.739  29.931  0.00  0.00    -0.252 OA
ATOM      5  N   UNL     1     -12.863  10.343  32.890  0.00  0.00    -0.311 N 
ATOM      6  N   UNL     1     -13.215  13.278  31.817  0.00  0.00    -0.284 N 
ATOM      7  N   UNL     1     -12.132  12.791  29.779  0.00  0.00    -0.266 N 
ATOM      8  C   UNL     1     -14.223  12.284  33.860  0.00  0.00    +0.027 C 
ATOM      9  C   UNL     1     -11.778  12.476  33.669  0.00  0.00    +0.054 C 
ATOM     10  C   UNL     1     -12.953  12.594  34.638  0.00  0.00    +0.018 C 
ATOM     11  C   UNL     1     -14.154  10.829  33.395  0.00  0.00    +0.130 C 
ATOM     12  C   UNL     1     -14.395  13.262  32.683  0.00  0.00    +0.114 C 
ATOM     13  C   UNL     1     -11.952  13.513  32.536  0.00  0.00    +0.119 C 
ATOM     14  C   UNL     1     -11.667  11.065  33.081  0.00  0.00    +0.034 A 
ATOM     15  C   UNL     1     -10.480  10.517  32.709  0.00  0.00    +0.002 A 
ATOM     16  C   UNL     1     -12.887   9.065  32.300  0.00  0.00    +0.252 A 
ATOM     17  C   UNL     1     -13.343  12.919  30.458  0.00  0.00    +0.307 C 
ATOM     18  C   UNL     1     -10.467   9.202  32.096  0.00  0.00    +0.015 A 
ATOM     19  C   UNL     1     -11.582   8.506  31.881  0.00  0.00    +0.071 A 
ATOM     34  H   UNL     1     -11.337  13.332  30.093  0.00  0.00    +0.156 HD
ENDROOT
BRANCH  15  20
ATOM     20  C   UNL     1      -9.200  11.237  32.885  0.00  0.00    -0.016 A 
ATOM     21  C   UNL     1      -8.684  11.993  31.838  0.00  0.00    +0.009 A 
ATOM     22  C   UNL     1      -8.519  11.149  34.096  0.00  0.00    +0.009 A 
ATOM     24  C   UNL     1      -7.475  12.671  32.003  0.00  0.00    +0.015 A 
ATOM     25  C   UNL     1      -7.311  11.827  34.260  0.00  0.00    +0.015 A 
ATOM     26  C   UNL     1      -6.788  12.587  33.215  0.00  0.00    +0.008 A 
BRANCH  26   1
ATOM      1  S   UNL     1      -5.246  13.453  33.426  0.00  0.00    -0.129 S 
ATOM     32  C   UNL     1      -4.725  13.706  31.706  0.00  0.00    +0.090 C 
ENDBRANCH  26   1
ENDBRANCH  15  20
BRANCH   7  23
ATOM     23  C   UNL     1     -11.875  11.994  28.637  0.00  0.00    +0.077 A 
ATOM     27  C   UNL     1     -12.218  12.448  27.365  0.00  0.00    +0.141 A 
ATOM     28  C   UNL     1     -11.272  10.749  28.799  0.00  0.00    +0.027 A 
ATOM     29  C   UNL     1     -11.958  11.652  26.251  0.00  0.00    +0.047 A 
ATOM     30  C   UNL     1     -11.012   9.953  27.683  0.00  0.00    +0.002 A 
ATOM     31  C   UNL     1     -11.355  10.404  26.409  0.00  0.00    +0.004 A 
BRANCH  27   4
ATOM      4  O   UNL     1     -12.808  13.664  27.188  0.00  0.00    -0.493 OA
ATOM     33  C   UNL     1     -11.958  14.747  26.818  0.00  0.00    +0.277 C 
ENDBRANCH  27   4
ENDBRANCH   7  23
TORSDOF 4
ENDMDL
MODEL 10
REMARK VINA RESULT:      -5.2     27.491     30.602
REMARK  Name = 7144233
REMARK  6 active torsions:
REMARK  status: ('A' for Active; 'I' for Inactive)
REMARK    1  A    between atoms: S_1  and  C_26
REMARK    2  A    between atoms: S_1  and  C_32
REMARK    3  A    between atoms: O_4  and  C_27
REMARK    4  A    between atoms: O_4  and  C_33
REMARK    5  A    between atoms: N_7  and  C_23
REMARK    6  A    between atoms: C_15  and  C_20
REMARK                            x       y       z     vdW  Elec       q    Type
REMARK                         _______ _______ _______ _____ _____    ______ ____
ROOT
ATOM      2  O   UNL     1      16.748  -6.980  25.455  0.00  0.00    -0.268 OA
ATOM      3  O   UNL     1      20.807  -4.736  23.863  0.00  0.00    -0.252 OA
ATOM      5  N   UNL     1      17.168  -4.702  25.801  0.00  0.00    -0.311 N 
ATOM      6  N   UNL     1      19.560  -2.978  24.706  0.00  0.00    -0.284 N 
ATOM      7  N   UNL     1      21.138  -4.087  26.064  0.00  0.00    -0.266 N 
ATOM      8  C   UNL     1      17.226  -3.042  23.851  0.00  0.00    +0.027 C 
ATOM      9  C   UNL     1      17.672  -2.259  26.141  0.00  0.00    +0.054 C 
ATOM     10  C   UNL     1      16.814  -2.019  24.900  0.00  0.00    +0.018 C 
ATOM     11  C   UNL     1      16.887  -4.434  24.384  0.00  0.00    +0.130 C 
ATOM     12  C   UNL     1      18.721  -2.900  23.509  0.00  0.00    +0.114 C 
ATOM     13  C   UNL     1      19.159  -2.048  25.775  0.00  0.00    +0.119 C 
ATOM     14  C   UNL     1      17.463  -3.667  26.711  0.00  0.00    +0.034 A 
ATOM     15  C   UNL     1      17.591  -3.948  28.036  0.00  0.00    +0.002 A 
ATOM     16  C   UNL     1      17.019  -6.042  26.204  0.00  0.00    +0.252 A 
ATOM     17  C   UNL     1      20.531  -3.997  24.812  0.00  0.00    +0.307 C 
ATOM     18  C   UNL     1      17.446  -5.318  28.487  0.00  0.00    +0.015 A 
ATOM     19  C   UNL     1      17.190  -6.321  27.647  0.00  0.00    +0.071 A 
ATOM     34  H   UNL     1      21.205  -3.254  26.635  0.00  0.00    +0.156 HD
ENDROOT
BRANCH  15  20
ATOM     20  C   UNL     1      17.904  -2.897  29.029  0.00  0.00    -0.016 A 
ATOM     21  C   UNL     1      16.874  -2.291  29.739  0.00  0.00    +0.009 A 
ATOM     22  C   UNL     1      19.227  -2.520  29.243  0.00  0.00    +0.009 A 
ATOM     24  C   UNL     1      17.168  -1.298  30.675  0.00  0.00    +0.015 A 
ATOM     25  C   UNL     1      19.521  -1.528  30.178  0.00  0.00    +0.015 A 
ATOM     26  C   UNL     1      18.492  -0.916  30.894  0.00  0.00    +0.008 A 
BRANCH  26   1
ATOM      1  S   UNL     1      18.868   0.351  32.088  0.00  0.00    -0.129 S 
ATOM     32  C   UNL     1      17.218   1.006  32.465  0.00  0.00    +0.090 C 
ENDBRANCH  26   1
ENDBRANCH  15  20
BRANCH   7  23
ATOM     23  C   UNL     1      21.728  -5.236  26.645  0.00  0.00    +0.077 A 
ATOM     27  C   UNL     1      23.075  -5.523  26.432  0.00  0.00    +0.141 A 
ATOM     28  C   UNL     1      20.946  -6.077  27.433  0.00  0.00    +0.027 A 
ATOM     29  C   UNL     1      23.641  -6.658  27.012  0.00  0.00    +0.047 A 
ATOM     30  C   UNL     1      21.514  -7.211  28.012  0.00  0.00    +0.002 A 
ATOM     31  C   UNL     1      22.861  -7.502  27.801  0.00  0.00    +0.004 A 
BRANCH  27   4
ATOM      4  O   UNL     1      23.854  -4.712  25.664  0.00  0.00    -0.493 OA
ATOM     33  C   UNL     1      24.294  -5.233  24.412  0.00  0.00    +0.277 C 
ENDBRANCH  27   4
ENDBRANCH   7  23
TORSDOF 4
ENDMDL
