MODEL 1
REMARK VINA RESULT:      -6.6      0.000      0.000
REMARK  Name = 45783541
REMARK  9 active torsions:
REMARK  status: ('A' for Active; 'I' for Inactive)
REMARK    1  A    between atoms: O_2  and  C_25
REMARK    2  A    between atoms: O_2  and  C_26
REMARK    3  A    between atoms: O_3  and  C_27
REMARK    4  A    between atoms: O_3  and  C_28
REMARK    5  A    between atoms: N_4  and  C_12
REMARK    6  A    between atoms: C_8  and  C_13
REMARK    7  A    between atoms: C_12  and  C_14
REMARK    8  A    between atoms: C_17  and  C_20
REMARK    9  A    between atoms: C_26  and  C_27
REMARK                            x       y       z     vdW  Elec       q    Type
REMARK                         _______ _______ _______ _____ _____    ______ ____
ROOT
ATOM      1  O   UNL     1      15.018   8.860  19.797  0.00  0.00    -0.336 OA
ATOM      5  N   UNL     1      15.885   6.898  19.150  0.00  0.00    -0.190 NA
ATOM      6  N   UNL     1      16.213   8.707  20.512  0.00  0.00    -0.056 NA
ATOM     13  C   UNL     1      14.901   7.751  19.020  0.00  0.00    +0.245 A 
ATOM     17  C   UNL     1      16.665   7.528  20.077  0.00  0.00    +0.204 A 
ENDROOT
BRANCH  17  20
ATOM      7  N   UNL     1      19.706   6.974  22.143  0.00  0.00    -0.221 NA
ATOM     20  C   UNL     1      17.891   6.950  20.547  0.00  0.00    +0.041 A 
ATOM     22  C   UNL     1      18.456   5.851  19.909  0.00  0.00    +0.018 A 
ATOM     23  C   UNL     1      18.549   7.469  21.650  0.00  0.00    +0.126 A 
ATOM     24  C   UNL     1      19.645   5.313  20.387  0.00  0.00    +0.068 A 
ATOM     25  C   UNL     1      20.226   5.905  21.497  0.00  0.00    +0.215 A 
BRANCH  25   2
ATOM      2  O   UNL     1      21.398   5.393  21.987  0.00  0.00    -0.474 OA
BRANCH   2  26
ATOM     26  C   UNL     1      21.833   4.153  21.444  0.00  0.00    +0.258 C 
BRANCH  26  27
ATOM     27  C   UNL     1      22.286   3.249  22.574  0.00  0.00    +0.200 C 
BRANCH  27   3
ATOM      3  O   UNL     1      23.612   2.806  22.311  0.00  0.00    -0.380 OA
ATOM     28  C   UNL     1      23.699   2.140  21.059  0.00  0.00    +0.194 C 
ENDBRANCH  27   3
ENDBRANCH  26  27
ENDBRANCH   2  26
ENDBRANCH  25   2
ENDBRANCH  17  20
BRANCH  13   8
ATOM      4  N   UNL     1      12.625   8.633  18.533  0.00  0.00    -0.287 NA
ATOM      8  C   UNL     1      13.674   7.673  18.136  0.00  0.00    +0.146 C 
ATOM      9  C   UNL     1      13.978   8.012  16.665  0.00  0.00    +0.030 C 
ATOM     10  C   UNL     1      13.012   9.132  16.307  0.00  0.00    +0.017 C 
ATOM     11  C   UNL     1      11.890   8.971  17.313  0.00  0.00    +0.085 C 
BRANCH   4  12
ATOM     12  C   UNL     1      11.747   8.125  19.579  0.00  0.00    +0.120 C 
BRANCH  12  14
ATOM     14  C   UNL     1      11.539   9.134  20.676  0.00  0.00    -0.033 A 
ATOM     15  C   UNL     1      12.102  10.406  20.571  0.00  0.00    +0.005 A 
ATOM     16  C   UNL     1      10.783   8.797  21.800  0.00  0.00    +0.005 A 
ATOM     18  C   UNL     1      11.908  11.341  21.589  0.00  0.00    +0.000 A 
ATOM     19  C   UNL     1      10.589   9.732  22.816  0.00  0.00    +0.000 A 
ATOM     21  C   UNL     1      11.152  11.004  22.711  0.00  0.00    +0.000 A 
ENDBRANCH  12  14
ENDBRANCH   4  12
ENDBRANCH  13   8
TORSDOF 8
ENDMDL
MODEL 2
REMARK VINA RESULT:      -6.5      2.148     10.488
REMARK  Name = 45783541
REMARK  9 active torsions:
REMARK  status: ('A' for Active; 'I' for Inactive)
REMARK    1  A    between atoms: O_2  and  C_25
REMARK    2  A    between atoms: O_2  and  C_26
REMARK    3  A    between atoms: O_3  and  C_27
REMARK    4  A    between atoms: O_3  and  C_28
REMARK    5  A    between atoms: N_4  and  C_12
REMARK    6  A    between atoms: C_8  and  C_13
REMARK    7  A    between atoms: C_12  and  C_14
REMARK    8  A    between atoms: C_17  and  C_20
REMARK    9  A    between atoms: C_26  and  C_27
REMARK                            x       y       z     vdW  Elec       q    Type
REMARK                         _______ _______ _______ _____ _____    ______ ____
ROOT
ATOM      1  O   UNL     1      20.433   5.472  20.662  0.00  0.00    -0.336 OA
ATOM      5  N   UNL     1      19.038   6.791  21.816  0.00  0.00    -0.190 NA
ATOM      6  N   UNL     1      19.212   5.441  19.977  0.00  0.00    -0.056 NA
ATOM     13  C   UNL     1      20.243   6.289  21.731  0.00  0.00    +0.245 A 
ATOM     17  C   UNL     1      18.441   6.241  20.718  0.00  0.00    +0.204 A 
ENDROOT
BRANCH  17  20
ATOM      7  N   UNL     1      15.276   6.420  18.774  0.00  0.00    -0.221 NA
ATOM     20  C   UNL     1      17.071   6.513  20.391  0.00  0.00    +0.041 A 
ATOM     22  C   UNL     1      16.218   7.108  21.314  0.00  0.00    +0.018 A 
ATOM     23  C   UNL     1      16.555   6.191  19.146  0.00  0.00    +0.126 A 
ATOM     24  C   UNL     1      14.895   7.360  20.968  0.00  0.00    +0.068 A 
ATOM     25  C   UNL     1      14.477   7.001  19.698  0.00  0.00    +0.215 A 
BRANCH  25   2
ATOM      2  O   UNL     1      13.178   7.238  19.332  0.00  0.00    -0.474 OA
BRANCH   2  26
ATOM     26  C   UNL     1      12.729   8.587  19.400  0.00  0.00    +0.258 C 
BRANCH  26  27
ATOM     27  C   UNL     1      11.377   8.624  20.085  0.00  0.00    +0.200 C 
BRANCH  27   3
ATOM      3  O   UNL     1      11.033   7.309  20.506  0.00  0.00    -0.380 OA
ATOM     28  C   UNL     1      10.640   7.286  21.871  0.00  0.00    +0.194 C 
ENDBRANCH  27   3
ENDBRANCH  26  27
ENDBRANCH   2  26
ENDBRANCH  25   2
ENDBRANCH  17  20
BRANCH  13   8
ATOM      4  N   UNL     1      22.490   5.482  22.437  0.00  0.00    -0.287 NA
ATOM      8  C   UNL     1      21.434   6.492  22.645  0.00  0.00    +0.146 C 
ATOM      9  C   UNL     1      22.135   7.844  22.415  0.00  0.00    +0.030 C 
ATOM     10  C   UNL     1      23.592   7.495  22.143  0.00  0.00    +0.017 C 
ATOM     11  C   UNL     1      23.756   6.130  22.780  0.00  0.00    +0.085 C 
BRANCH   4  12
ATOM     12  C   UNL     1      22.274   4.260  23.201  0.00  0.00    +0.120 C 
BRANCH  12  14
ATOM     14  C   UNL     1      23.042   3.098  22.629  0.00  0.00    -0.033 A 
ATOM     15  C   UNL     1      23.737   2.236  23.477  0.00  0.00    +0.005 A 
ATOM     16  C   UNL     1      23.059   2.884  21.250  0.00  0.00    +0.005 A 
ATOM     18  C   UNL     1      24.447   1.159  22.947  0.00  0.00    +0.000 A 
ATOM     19  C   UNL     1      23.769   1.807  20.721  0.00  0.00    +0.000 A 
ATOM     21  C   UNL     1      24.464   0.944  21.569  0.00  0.00    +0.000 A 
ENDBRANCH  12  14
ENDBRANCH   4  12
ENDBRANCH  13   8
TORSDOF 8
ENDMDL
MODEL 3
REMARK VINA RESULT:      -6.5      1.564      3.495
REMARK  Name = 45783541
REMARK  9 active torsions:
REMARK  status: ('A' for Active; 'I' for Inactive)
REMARK    1  A    between atoms: O_2  and  C_25
REMARK    2  A    between atoms: O_2  and  C_26
REMARK    3  A    between atoms: O_3  and  C_27
REMARK    4  A    between atoms: O_3  and  C_28
REMARK    5  A    between atoms: N_4  and  C_12
REMARK    6  A    between atoms: C_8  and  C_13
REMARK    7  A    between atoms: C_12  and  C_14
REMARK    8  A    between atoms: C_17  and  C_20
REMARK    9  A    between atoms: C_26  and  C_27
REMARK                            x       y       z     vdW  Elec       q    Type
REMARK                         _______ _______ _______ _____ _____    ______ ____
ROOT
ATOM      1  O   UNL     1      14.460   6.773  19.717  0.00  0.00    -0.336 OA
ATOM      5  N   UNL     1      15.655   7.815  21.298  0.00  0.00    -0.190 NA
ATOM      6  N   UNL     1      15.792   6.389  19.514  0.00  0.00    -0.056 NA
ATOM     13  C   UNL     1      14.469   7.612  20.785  0.00  0.00    +0.245 A 
ATOM     17  C   UNL     1      16.435   7.045  20.485  0.00  0.00    +0.204 A 
ENDROOT
BRANCH  17  20
ATOM      7  N   UNL     1      19.898   7.934  21.509  0.00  0.00    -0.221 NA
ATOM     20  C   UNL     1      17.854   6.952  20.669  0.00  0.00    +0.041 A 
ATOM     22  C   UNL     1      18.565   5.847  20.213  0.00  0.00    +0.018 A 
ATOM     23  C   UNL     1      18.561   7.959  21.305  0.00  0.00    +0.126 A 
ATOM     24  C   UNL     1      19.940   5.784  20.404  0.00  0.00    +0.068 A 
ATOM     25  C   UNL     1      20.555   6.844  21.052  0.00  0.00    +0.215 A 
BRANCH  25   2
ATOM      2  O   UNL     1      21.909   6.806  21.253  0.00  0.00    -0.474 OA
BRANCH   2  26
ATOM     26  C   UNL     1      22.471   5.547  21.602  0.00  0.00    +0.258 C 
BRANCH  26  27
ATOM     27  C   UNL     1      22.397   5.373  23.107  0.00  0.00    +0.200 C 
BRANCH  27   3
ATOM      3  O   UNL     1      22.151   4.003  23.404  0.00  0.00    -0.380 OA
ATOM     28  C   UNL     1      22.138   3.209  22.226  0.00  0.00    +0.194 C 
ENDBRANCH  27   3
ENDBRANCH  26  27
ENDBRANCH   2  26
ENDBRANCH  25   2
ENDBRANCH  17  20
BRANCH  13   8
ATOM      4  N   UNL     1      12.306   8.616  20.071  0.00  0.00    -0.287 NA
ATOM      8  C   UNL     1      13.129   8.174  21.214  0.00  0.00    +0.146 C 
ATOM      9  C   UNL     1      12.257   7.137  21.945  0.00  0.00    +0.030 C 
ATOM     10  C   UNL     1      10.943   7.109  21.177  0.00  0.00    +0.017 C 
ATOM     11  C   UNL     1      10.911   8.454  20.478  0.00  0.00    +0.085 C 
BRANCH   4  12
ATOM     12  C   UNL     1      12.598   9.979  19.647  0.00  0.00    +0.120 C 
BRANCH  12  14
ATOM     14  C   UNL     1      13.169  10.024  18.255  0.00  0.00    -0.033 A 
ATOM     15  C   UNL     1      12.674   9.170  17.269  0.00  0.00    +0.005 A 
ATOM     16  C   UNL     1      14.195  10.920  17.950  0.00  0.00    +0.005 A 
ATOM     18  C   UNL     1      13.203   9.212  15.979  0.00  0.00    +0.000 A 
ATOM     19  C   UNL     1      14.723  10.963  16.660  0.00  0.00    +0.000 A 
ATOM     21  C   UNL     1      14.228  10.108  15.674  0.00  0.00    +0.000 A 
ENDBRANCH  12  14
ENDBRANCH   4  12
ENDBRANCH  13   8
TORSDOF 8
ENDMDL
MODEL 4
REMARK VINA RESULT:      -6.4     26.676     30.165
REMARK  Name = 45783541
REMARK  9 active torsions:
REMARK  status: ('A' for Active; 'I' for Inactive)
REMARK    1  A    between atoms: O_2  and  C_25
REMARK    2  A    between atoms: O_2  and  C_26
REMARK    3  A    between atoms: O_3  and  C_27
REMARK    4  A    between atoms: O_3  and  C_28
REMARK    5  A    between atoms: N_4  and  C_12
REMARK    6  A    between atoms: C_8  and  C_13
REMARK    7  A    between atoms: C_12  and  C_14
REMARK    8  A    between atoms: C_17  and  C_20
REMARK    9  A    between atoms: C_26  and  C_27
REMARK                            x       y       z     vdW  Elec       q    Type
REMARK                         _______ _______ _______ _____ _____    ______ ____
ROOT
ATOM      1  O   UNL     1      -5.224 -12.012  16.512  0.00  0.00    -0.336 OA
ATOM      5  N   UNL     1      -5.526 -10.082  15.416  0.00  0.00    -0.190 NA
ATOM      6  N   UNL     1      -6.530 -11.597  16.806  0.00  0.00    -0.056 NA
ATOM     13  C   UNL     1      -4.705 -11.064  15.689  0.00  0.00    +0.245 A 
ATOM     17  C   UNL     1      -6.632 -10.452  16.124  0.00  0.00    +0.204 A 
ENDROOT
BRANCH  17  20
ATOM      7  N   UNL     1      -9.704  -8.741  14.915  0.00  0.00    -0.221 NA
ATOM     20  C   UNL     1      -7.824  -9.655  16.130  0.00  0.00    +0.041 A 
ATOM     22  C   UNL     1      -8.264  -9.033  17.293  0.00  0.00    +0.018 A 
ATOM     23  C   UNL     1      -8.573  -9.479  14.978  0.00  0.00    +0.126 A 
ATOM     24  C   UNL     1      -9.424  -8.266  17.269  0.00  0.00    +0.068 A 
ATOM     25  C   UNL     1     -10.101  -8.151  16.066  0.00  0.00    +0.215 A 
BRANCH  25   2
ATOM      2  O   UNL     1     -11.246  -7.401  16.015  0.00  0.00    -0.474 OA
BRANCH   2  26
ATOM     26  C   UNL     1     -11.094  -6.020  15.712  0.00  0.00    +0.258 C 
BRANCH  26  27
ATOM     27  C   UNL     1     -12.034  -5.655  14.580  0.00  0.00    +0.200 C 
BRANCH  27   3
ATOM      3  O   UNL     1     -12.603  -6.846  14.047  0.00  0.00    -0.380 OA
ATOM     28  C   UNL     1     -13.729  -6.564  13.229  0.00  0.00    +0.194 C 
ENDBRANCH  27   3
ENDBRANCH  26  27
ENDBRANCH   2  26
ENDBRANCH  25   2
ENDBRANCH  17  20
BRANCH  13   8
ATOM      4  N   UNL     1      -2.959 -10.512  14.004  0.00  0.00    -0.287 NA
ATOM      8  C   UNL     1      -3.282 -11.285  15.220  0.00  0.00    +0.146 C 
ATOM      9  C   UNL     1      -2.237 -10.835  16.257  0.00  0.00    +0.030 C 
ATOM     10  C   UNL     1      -1.336  -9.858  15.517  0.00  0.00    +0.017 C 
ATOM     11  C   UNL     1      -1.524 -10.232  14.061  0.00  0.00    +0.085 C 
BRANCH   4  12
ATOM     12  C   UNL     1      -3.336 -11.195  12.773  0.00  0.00    +0.120 C 
BRANCH  12  14
ATOM     14  C   UNL     1      -3.878 -10.238  11.744  0.00  0.00    -0.033 A 
ATOM     15  C   UNL     1      -3.113  -9.907  10.626  0.00  0.00    +0.005 A 
ATOM     16  C   UNL     1      -5.148  -9.682  11.910  0.00  0.00    +0.005 A 
ATOM     18  C   UNL     1      -3.617  -9.021   9.673  0.00  0.00    +0.000 A 
ATOM     19  C   UNL     1      -5.651  -8.797  10.957  0.00  0.00    +0.000 A 
ATOM     21  C   UNL     1      -4.885  -8.466   9.839  0.00  0.00    +0.000 A 
ENDBRANCH  12  14
ENDBRANCH   4  12
ENDBRANCH  13   8
TORSDOF 8
ENDMDL
MODEL 5
REMARK VINA RESULT:      -6.2     27.087     30.188
REMARK  Name = 45783541
REMARK  9 active torsions:
REMARK  status: ('A' for Active; 'I' for Inactive)
REMARK    1  A    between atoms: O_2  and  C_25
REMARK    2  A    between atoms: O_2  and  C_26
REMARK    3  A    between atoms: O_3  and  C_27
REMARK    4  A    between atoms: O_3  and  C_28
REMARK    5  A    between atoms: N_4  and  C_12
REMARK    6  A    between atoms: C_8  and  C_13
REMARK    7  A    between atoms: C_12  and  C_14
REMARK    8  A    between atoms: C_17  and  C_20
REMARK    9  A    between atoms: C_26  and  C_27
REMARK                            x       y       z     vdW  Elec       q    Type
REMARK                         _______ _______ _______ _____ _____    ______ ____
ROOT
ATOM      1  O   UNL     1      -4.294 -13.292  15.564  0.00  0.00    -0.336 OA
ATOM      5  N   UNL     1      -4.577 -11.278  16.502  0.00  0.00    -0.190 NA
ATOM      6  N   UNL     1      -5.465 -13.379  16.328  0.00  0.00    -0.056 NA
ATOM     13  C   UNL     1      -3.835 -12.024  15.723  0.00  0.00    +0.245 A 
ATOM     17  C   UNL     1      -5.565 -12.153  16.850  0.00  0.00    +0.204 A 
ENDROOT
BRANCH  17  20
ATOM      7  N   UNL     1      -7.679 -11.911  19.899  0.00  0.00    -0.221 NA
ATOM     20  C   UNL     1      -6.637 -11.771  17.722  0.00  0.00    +0.041 A 
ATOM     22  C   UNL     1      -7.650 -10.926  17.283  0.00  0.00    +0.018 A 
ATOM     23  C   UNL     1      -6.697 -12.231  19.027  0.00  0.00    +0.126 A 
ATOM     24  C   UNL     1      -8.678 -10.573  18.151  0.00  0.00    +0.068 A 
ATOM     25  C   UNL     1      -8.648 -11.087  19.437  0.00  0.00    +0.215 A 
BRANCH  25   2
ATOM      2  O   UNL     1      -9.649 -10.754  20.311  0.00  0.00    -0.474 OA
BRANCH   2  26
ATOM     26  C   UNL     1     -10.876 -11.461  20.178  0.00  0.00    +0.258 C 
BRANCH  26  27
ATOM     27  C   UNL     1     -12.023 -10.470  20.210  0.00  0.00    +0.200 C 
BRANCH  27   3
ATOM      3  O   UNL     1     -12.083  -9.789  18.962  0.00  0.00    -0.380 OA
ATOM     28  C   UNL     1     -13.420  -9.678  18.494  0.00  0.00    +0.194 C 
ENDBRANCH  27   3
ENDBRANCH  26  27
ENDBRANCH   2  26
ENDBRANCH  25   2
ENDBRANCH  17  20
BRANCH  13   8
ATOM      4  N   UNL     1      -2.782 -10.687  13.907  0.00  0.00    -0.287 NA
ATOM      8  C   UNL     1      -2.560 -11.670  14.986  0.00  0.00    +0.146 C 
ATOM      9  C   UNL     1      -1.507 -11.016  15.899  0.00  0.00    +0.030 C 
ATOM     10  C   UNL     1      -1.155  -9.700  15.222  0.00  0.00    +0.017 C 
ATOM     11  C   UNL     1      -1.537  -9.930  13.774  0.00  0.00    +0.085 C 
BRANCH   4  12
ATOM     12  C   UNL     1      -3.189 -11.298  12.648  0.00  0.00    +0.120 C 
BRANCH  12  14
ATOM     14  C   UNL     1      -3.833 -10.301  11.723  0.00  0.00    -0.033 A 
ATOM     15  C   UNL     1      -3.202  -9.946  10.530  0.00  0.00    +0.005 A 
ATOM     16  C   UNL     1      -5.062  -9.730  12.058  0.00  0.00    +0.005 A 
ATOM     18  C   UNL     1      -3.800  -9.022   9.672  0.00  0.00    +0.000 A 
ATOM     19  C   UNL     1      -5.659  -8.807  11.200  0.00  0.00    +0.000 A 
ATOM     21  C   UNL     1      -5.028  -8.453  10.007  0.00  0.00    +0.000 A 
ENDBRANCH  12  14
ENDBRANCH   4  12
ENDBRANCH  13   8
TORSDOF 8
ENDMDL
MODEL 6
REMARK VINA RESULT:      -6.2     27.395     30.301
REMARK  Name = 45783541
REMARK  9 active torsions:
REMARK  status: ('A' for Active; 'I' for Inactive)
REMARK    1  A    between atoms: O_2  and  C_25
REMARK    2  A    between atoms: O_2  and  C_26
REMARK    3  A    between atoms: O_3  and  C_27
REMARK    4  A    between atoms: O_3  and  C_28
REMARK    5  A    between atoms: N_4  and  C_12
REMARK    6  A    between atoms: C_8  and  C_13
REMARK    7  A    between atoms: C_12  and  C_14
REMARK    8  A    between atoms: C_17  and  C_20
REMARK    9  A    between atoms: C_26  and  C_27
REMARK                            x       y       z     vdW  Elec       q    Type
REMARK                         _______ _______ _______ _____ _____    ______ ____
ROOT
ATOM      1  O   UNL     1      -5.135  -9.761  15.810  0.00  0.00    -0.336 OA
ATOM      5  N   UNL     1      -5.211 -11.673  16.974  0.00  0.00    -0.190 NA
ATOM      6  N   UNL     1      -6.327  -9.722  16.545  0.00  0.00    -0.056 NA
ATOM     13  C   UNL     1      -4.540 -10.942  16.120  0.00  0.00    +0.245 A 
ATOM     17  C   UNL     1      -6.300 -10.884  17.205  0.00  0.00    +0.204 A 
ENDROOT
BRANCH  17  20
ATOM      7  N   UNL     1      -9.529 -10.866  19.049  0.00  0.00    -0.221 NA
ATOM     20  C   UNL     1      -7.345 -11.285  18.102  0.00  0.00    +0.041 A 
ATOM     22  C   UNL     1      -7.221 -12.432  18.878  0.00  0.00    +0.018 A 
ATOM     23  C   UNL     1      -8.508 -10.544  18.223  0.00  0.00    +0.126 A 
ATOM     24  C   UNL     1      -8.249 -12.797  19.740  0.00  0.00    +0.068 A 
ATOM     25  C   UNL     1      -9.373 -11.988  19.788  0.00  0.00    +0.215 A 
BRANCH  25   2
ATOM      2  O   UNL     1     -10.401 -12.325  20.629  0.00  0.00    -0.474 OA
BRANCH   2  26
ATOM     26  C   UNL     1     -10.976 -13.614  20.453  0.00  0.00    +0.258 C 
BRANCH  26  27
ATOM     27  C   UNL     1     -11.132 -14.275  21.808  0.00  0.00    +0.200 C 
BRANCH  27   3
ATOM      3  O   UNL     1      -9.845 -14.619  22.308  0.00  0.00    -0.380 OA
ATOM     28  C   UNL     1      -9.359 -15.815  21.714  0.00  0.00    +0.194 C 
ENDBRANCH  27   3
ENDBRANCH  26  27
ENDBRANCH   2  26
ENDBRANCH  25   2
ENDBRANCH  17  20
BRANCH  13   8
ATOM      4  N   UNL     1      -3.059 -10.506  14.169  0.00  0.00    -0.287 NA
ATOM      8  C   UNL     1      -3.214 -11.228  15.446  0.00  0.00    +0.146 C 
ATOM      9  C   UNL     1      -2.008 -10.785  16.295  0.00  0.00    +0.030 C 
ATOM     10  C   UNL     1      -1.202  -9.864  15.391  0.00  0.00    +0.017 C 
ATOM     11  C   UNL     1      -1.624 -10.276  13.995  0.00  0.00    +0.085 C 
BRANCH   4  12
ATOM     12  C   UNL     1      -3.642 -11.211  13.035  0.00  0.00    +0.120 C 
BRANCH  12  14
ATOM     14  C   UNL     1      -4.035 -10.269  11.929  0.00  0.00    -0.033 A 
ATOM     15  C   UNL     1      -5.247  -9.581  11.995  0.00  0.00    +0.005 A 
ATOM     16  C   UNL     1      -3.187 -10.083  10.836  0.00  0.00    +0.005 A 
ATOM     18  C   UNL     1      -5.610  -8.707  10.970  0.00  0.00    +0.000 A 
ATOM     19  C   UNL     1      -3.551  -9.209   9.813  0.00  0.00    +0.000 A 
ATOM     21  C   UNL     1      -4.762  -8.521   9.879  0.00  0.00    +0.000 A 
ENDBRANCH  12  14
ENDBRANCH   4  12
ENDBRANCH  13   8
TORSDOF 8
ENDMDL
MODEL 7
REMARK VINA RESULT:      -6.1      2.169     10.700
REMARK  Name = 45783541
REMARK  9 active torsions:
REMARK  status: ('A' for Active; 'I' for Inactive)
REMARK    1  A    between atoms: O_2  and  C_25
REMARK    2  A    between atoms: O_2  and  C_26
REMARK    3  A    between atoms: O_3  and  C_27
REMARK    4  A    between atoms: O_3  and  C_28
REMARK    5  A    between atoms: N_4  and  C_12
REMARK    6  A    between atoms: C_8  and  C_13
REMARK    7  A    between atoms: C_12  and  C_14
REMARK    8  A    between atoms: C_17  and  C_20
REMARK    9  A    between atoms: C_26  and  C_27
REMARK                            x       y       z     vdW  Elec       q    Type
REMARK                         _______ _______ _______ _____ _____    ______ ____
ROOT
ATOM      1  O   UNL     1      20.905   6.032  23.311  0.00  0.00    -0.336 OA
ATOM      5  N   UNL     1      20.507   5.994  21.107  0.00  0.00    -0.190 NA
ATOM      6  N   UNL     1      19.619   6.561  23.138  0.00  0.00    -0.056 NA
ATOM     13  C   UNL     1      21.356   5.725  22.067  0.00  0.00    +0.245 A 
ATOM     17  C   UNL     1      19.456   6.505  21.813  0.00  0.00    +0.204 A 
ENDROOT
BRANCH  17  20
ATOM      7  N   UNL     1      16.538   8.635  20.934  0.00  0.00    -0.221 NA
ATOM     20  C   UNL     1      18.259   6.953  21.164  0.00  0.00    +0.041 A 
ATOM     22  C   UNL     1      17.655   6.189  20.170  0.00  0.00    +0.018 A 
ATOM     23  C   UNL     1      17.666   8.157  21.505  0.00  0.00    +0.126 A 
ATOM     24  C   UNL     1      16.493   6.647  19.558  0.00  0.00    +0.068 A 
ATOM     25  C   UNL     1      15.979   7.865  19.972  0.00  0.00    +0.215 A 
BRANCH  25   2
ATOM      2  O   UNL     1      14.836   8.340  19.385  0.00  0.00    -0.474 OA
BRANCH   2  26
ATOM     26  C   UNL     1      14.083   7.415  18.609  0.00  0.00    +0.258 C 
BRANCH  26  27
ATOM     27  C   UNL     1      12.837   7.023  19.379  0.00  0.00    +0.200 C 
BRANCH  27   3
ATOM      3  O   UNL     1      11.740   7.799  18.912  0.00  0.00    -0.380 OA
ATOM     28  C   UNL     1      11.090   8.477  19.980  0.00  0.00    +0.194 C 
ENDBRANCH  27   3
ENDBRANCH  26  27
ENDBRANCH   2  26
ENDBRANCH  25   2
ENDBRANCH  17  20
BRANCH  13   8
ATOM      4  N   UNL     1      22.924   4.278  20.787  0.00  0.00    -0.287 NA
ATOM      8  C   UNL     1      22.744   5.128  21.980  0.00  0.00    +0.146 C 
ATOM      9  C   UNL     1      23.846   6.198  21.866  0.00  0.00    +0.030 C 
ATOM     10  C   UNL     1      24.629   5.832  20.613  0.00  0.00    +0.017 C 
ATOM     11  C   UNL     1      24.341   4.355  20.432  0.00  0.00    +0.085 C 
BRANCH   4  12
ATOM     12  C   UNL     1      22.484   2.903  20.990  0.00  0.00    +0.120 C 
BRANCH  12  14
ATOM     14  C   UNL     1      23.468   2.115  21.812  0.00  0.00    -0.033 A 
ATOM     15  C   UNL     1      24.389   1.276  21.185  0.00  0.00    +0.005 A 
ATOM     16  C   UNL     1      23.458   2.222  23.204  0.00  0.00    +0.005 A 
ATOM     18  C   UNL     1      25.301   0.546  21.947  0.00  0.00    +0.000 A 
ATOM     19  C   UNL     1      24.370   1.492  23.966  0.00  0.00    +0.000 A 
ATOM     21  C   UNL     1      25.292   0.654  23.338  0.00  0.00    +0.000 A 
ENDBRANCH  12  14
ENDBRANCH   4  12
ENDBRANCH  13   8
TORSDOF 8
ENDMDL
MODEL 8
REMARK VINA RESULT:      -6.0      1.371      3.427
REMARK  Name = 45783541
REMARK  9 active torsions:
REMARK  status: ('A' for Active; 'I' for Inactive)
REMARK    1  A    between atoms: O_2  and  C_25
REMARK    2  A    between atoms: O_2  and  C_26
REMARK    3  A    between atoms: O_3  and  C_27
REMARK    4  A    between atoms: O_3  and  C_28
REMARK    5  A    between atoms: N_4  and  C_12
REMARK    6  A    between atoms: C_8  and  C_13
REMARK    7  A    between atoms: C_12  and  C_14
REMARK    8  A    between atoms: C_17  and  C_20
REMARK    9  A    between atoms: C_26  and  C_27
REMARK                            x       y       z     vdW  Elec       q    Type
REMARK                         _______ _______ _______ _____ _____    ______ ____
ROOT
ATOM      1  O   UNL     1      15.414   9.663  21.393  0.00  0.00    -0.336 OA
ATOM      5  N   UNL     1      15.559   7.812  20.140  0.00  0.00    -0.190 NA
ATOM      6  N   UNL     1      16.688   9.131  21.631  0.00  0.00    -0.056 NA
ATOM     13  C   UNL     1      14.817   8.826  20.506  0.00  0.00    +0.245 A 
ATOM     17  C   UNL     1      16.698   8.041  20.857  0.00  0.00    +0.204 A 
ENDROOT
BRANCH  17  20
ATOM      7  N   UNL     1      20.025   6.544  21.575  0.00  0.00    -0.221 NA
ATOM     20  C   UNL     1      17.828   7.161  20.778  0.00  0.00    +0.041 A 
ATOM     22  C   UNL     1      17.851   6.106  19.873  0.00  0.00    +0.018 A 
ATOM     23  C   UNL     1      18.929   7.336  21.599  0.00  0.00    +0.126 A 
ATOM     24  C   UNL     1      18.960   5.269  19.818  0.00  0.00    +0.068 A 
ATOM     25  C   UNL     1      20.012   5.528  20.682  0.00  0.00    +0.215 A 
BRANCH  25   2
ATOM      2  O   UNL     1      21.117   4.718  20.648  0.00  0.00    -0.474 OA
BRANCH   2  26
ATOM     26  C   UNL     1      22.378   5.361  20.504  0.00  0.00    +0.258 C 
BRANCH  26  27
ATOM     27  C   UNL     1      23.478   4.330  20.663  0.00  0.00    +0.200 C 
BRANCH  27   3
ATOM      3  O   UNL     1      24.286   4.683  21.780  0.00  0.00    -0.380 OA
ATOM     28  C   UNL     1      24.019   6.008  22.218  0.00  0.00    +0.194 C 
ENDBRANCH  27   3
ENDBRANCH  26  27
ENDBRANCH   2  26
ENDBRANCH  25   2
ENDBRANCH  17  20
BRANCH  13   8
ATOM      4  N   UNL     1      12.478   8.046  20.166  0.00  0.00    -0.287 NA
ATOM      8  C   UNL     1      13.409   9.188  20.080  0.00  0.00    +0.146 C 
ATOM      9  C   UNL     1      12.778  10.274  20.970  0.00  0.00    +0.030 C 
ATOM     10  C   UNL     1      11.470   9.674  21.464  0.00  0.00    +0.017 C 
ATOM     11  C   UNL     1      11.155   8.609  20.432  0.00  0.00    +0.085 C 
BRANCH   4  12
ATOM     12  C   UNL     1      12.487   7.206  18.975  0.00  0.00    +0.120 C 
BRANCH  12  14
ATOM     14  C   UNL     1      12.362   8.020  17.714  0.00  0.00    -0.033 A 
ATOM     15  C   UNL     1      11.101   8.355  17.221  0.00  0.00    +0.005 A 
ATOM     16  C   UNL     1      13.509   8.438  17.037  0.00  0.00    +0.005 A 
ATOM     18  C   UNL     1      10.987   9.110  16.053  0.00  0.00    +0.000 A 
ATOM     19  C   UNL     1      13.394   9.192  15.871  0.00  0.00    +0.000 A 
ATOM     21  C   UNL     1      12.133   9.528  15.378  0.00  0.00    +0.000 A 
ENDBRANCH  12  14
ENDBRANCH   4  12
ENDBRANCH  13   8
TORSDOF 8
ENDMDL
MODEL 9
REMARK VINA RESULT:      -5.9     27.005     30.238
REMARK  Name = 45783541
REMARK  9 active torsions:
REMARK  status: ('A' for Active; 'I' for Inactive)
REMARK    1  A    between atoms: O_2  and  C_25
REMARK    2  A    between atoms: O_2  and  C_26
REMARK    3  A    between atoms: O_3  and  C_27
REMARK    4  A    between atoms: O_3  and  C_28
REMARK    5  A    between atoms: N_4  and  C_12
REMARK    6  A    between atoms: C_8  and  C_13
REMARK    7  A    between atoms: C_12  and  C_14
REMARK    8  A    between atoms: C_17  and  C_20
REMARK    9  A    between atoms: C_26  and  C_27
REMARK                            x       y       z     vdW  Elec       q    Type
REMARK                         _______ _______ _______ _____ _____    ______ ____
ROOT
ATOM      1  O   UNL     1      -4.102 -11.205  17.879  0.00  0.00    -0.336 OA
ATOM      5  N   UNL     1      -5.433 -10.521  16.212  0.00  0.00    -0.190 NA
ATOM      6  N   UNL     1      -5.333 -10.887  18.469  0.00  0.00    -0.056 NA
ATOM     13  C   UNL     1      -4.248 -10.959  16.551  0.00  0.00    +0.245 A 
ATOM     17  C   UNL     1      -6.064 -10.492  17.422  0.00  0.00    +0.204 A 
ENDROOT
BRANCH  17  20
ATOM      7  N   UNL     1      -9.565 -10.279  18.658  0.00  0.00    -0.221 NA
ATOM     20  C   UNL     1      -7.426 -10.062  17.552  0.00  0.00    +0.041 A 
ATOM     22  C   UNL     1      -7.939  -9.054  16.742  0.00  0.00    +0.018 A 
ATOM     23  C   UNL     1      -8.273 -10.636  18.485  0.00  0.00    +0.126 A 
ATOM     24  C   UNL     1      -9.264  -8.657  16.890  0.00  0.00    +0.068 A 
ATOM     25  C   UNL     1     -10.029  -9.295  17.852  0.00  0.00    +0.215 A 
BRANCH  25   2
ATOM      2  O   UNL     1     -11.337  -8.924  18.018  0.00  0.00    -0.474 OA
BRANCH   2  26
ATOM     26  C   UNL     1     -12.293  -9.972  18.120  0.00  0.00    +0.258 C 
BRANCH  26  27
ATOM     27  C   UNL     1     -12.663 -10.441  16.726  0.00  0.00    +0.200 C 
BRANCH  27   3
ATOM      3  O   UNL     1     -13.052 -11.808  16.785  0.00  0.00    -0.380 OA
ATOM     28  C   UNL     1     -12.298 -12.523  17.755  0.00  0.00    +0.194 C 
ENDBRANCH  27   3
ENDBRANCH  26  27
ENDBRANCH   2  26
ENDBRANCH  25   2
ENDBRANCH  17  20
BRANCH  13   8
ATOM      4  N   UNL     1      -3.084 -10.490  14.402  0.00  0.00    -0.287 NA
ATOM      8  C   UNL     1      -3.040 -11.229  15.678  0.00  0.00    +0.146 C 
ATOM      9  C   UNL     1      -1.720 -10.789  16.338  0.00  0.00    +0.030 C 
ATOM     10  C   UNL     1      -1.065  -9.852  15.334  0.00  0.00    +0.017 C 
ATOM     11  C   UNL     1      -1.694 -10.249  14.014  0.00  0.00    +0.085 C 
BRANCH   4  12
ATOM     12  C   UNL     1      -3.831 -11.185  13.361  0.00  0.00    +0.120 C 
BRANCH  12  14
ATOM     14  C   UNL     1      -4.190 -10.270  12.221  0.00  0.00    -0.033 A 
ATOM     15  C   UNL     1      -3.302 -10.095  11.159  0.00  0.00    +0.005 A 
ATOM     16  C   UNL     1      -5.412  -9.594  12.227  0.00  0.00    +0.005 A 
ATOM     18  C   UNL     1      -3.636  -9.247  10.103  0.00  0.00    +0.000 A 
ATOM     19  C   UNL     1      -5.745  -8.748  11.170  0.00  0.00    +0.000 A 
ATOM     21  C   UNL     1      -4.857  -8.573  10.108  0.00  0.00    +0.000 A 
ENDBRANCH  12  14
ENDBRANCH   4  12
ENDBRANCH  13   8
TORSDOF 8
ENDMDL
MODEL 10
REMARK VINA RESULT:      -5.9     27.477     30.734
REMARK  Name = 45783541
REMARK  9 active torsions:
REMARK  status: ('A' for Active; 'I' for Inactive)
REMARK    1  A    between atoms: O_2  and  C_25
REMARK    2  A    between atoms: O_2  and  C_26
REMARK    3  A    between atoms: O_3  and  C_27
REMARK    4  A    between atoms: O_3  and  C_28
REMARK    5  A    between atoms: N_4  and  C_12
REMARK    6  A    between atoms: C_8  and  C_13
REMARK    7  A    between atoms: C_12  and  C_14
REMARK    8  A    between atoms: C_17  and  C_20
REMARK    9  A    between atoms: C_26  and  C_27
REMARK                            x       y       z     vdW  Elec       q    Type
REMARK                         _______ _______ _______ _____ _____    ______ ____
ROOT
ATOM      1  O   UNL     1      -5.464  -9.548  15.693  0.00  0.00    -0.336 OA
ATOM      5  N   UNL     1      -5.887 -11.225  17.118  0.00  0.00    -0.190 NA
ATOM      6  N   UNL     1      -6.683  -9.238  16.310  0.00  0.00    -0.056 NA
ATOM     13  C   UNL     1      -5.065 -10.733  16.225  0.00  0.00    +0.245 A 
ATOM     17  C   UNL     1      -6.865 -10.273  17.135  0.00  0.00    +0.204 A 
ENDROOT
BRANCH  17  20
ATOM      7  N   UNL     1      -8.996 -11.244  20.023  0.00  0.00    -0.221 NA
ATOM     20  C   UNL     1      -8.012 -10.386  17.989  0.00  0.00    +0.041 A 
ATOM     22  C   UNL     1      -9.219  -9.785  17.650  0.00  0.00    +0.018 A 
ATOM     23  C   UNL     1      -7.953 -11.098  19.175  0.00  0.00    +0.126 A 
ATOM     24  C   UNL     1     -10.315  -9.913  18.496  0.00  0.00    +0.068 A 
ATOM     25  C   UNL     1     -10.154 -10.646  19.660  0.00  0.00    +0.215 A 
BRANCH  25   2
ATOM      2  O   UNL     1     -11.218 -10.787  20.511  0.00  0.00    -0.474 OA
BRANCH   2  26
ATOM     26  C   UNL     1     -12.482 -11.057  19.917  0.00  0.00    +0.258 C 
BRANCH  26  27
ATOM     27  C   UNL     1     -13.184 -12.137  20.717  0.00  0.00    +0.200 C 
BRANCH  27   3
ATOM      3  O   UNL     1     -14.589 -11.927  20.648  0.00  0.00    -0.380 OA
ATOM     28  C   UNL     1     -14.899 -10.565  20.383  0.00  0.00    +0.194 C 
ENDBRANCH  27   3
ENDBRANCH  26  27
ENDBRANCH   2  26
ENDBRANCH  25   2
ENDBRANCH  17  20
BRANCH  13   8
ATOM      4  N   UNL     1      -3.333 -10.688  14.438  0.00  0.00    -0.287 NA
ATOM      8  C   UNL     1      -3.753 -11.294  15.717  0.00  0.00    +0.146 C 
ATOM      9  C   UNL     1      -2.580 -11.028  16.679  0.00  0.00    +0.030 C 
ATOM     10  C   UNL     1      -1.527 -10.323  15.836  0.00  0.00    +0.017 C 
ATOM     11  C   UNL     1      -1.871 -10.733  14.419  0.00  0.00    +0.085 C 
BRANCH   4  12
ATOM     12  C   UNL     1      -3.917 -11.342  13.274  0.00  0.00    +0.120 C 
BRANCH  12  14
ATOM     14  C   UNL     1      -4.146 -10.375  12.143  0.00  0.00    -0.033 A 
ATOM     15  C   UNL     1      -5.327  -9.635  12.086  0.00  0.00    +0.005 A 
ATOM     16  C   UNL     1      -3.177 -10.220  11.151  0.00  0.00    +0.005 A 
ATOM     18  C   UNL     1      -5.538  -8.738  11.038  0.00  0.00    +0.000 A 
ATOM     19  C   UNL     1      -3.389  -9.324  10.104  0.00  0.00    +0.000 A 
ATOM     21  C   UNL     1      -4.569  -8.583  10.047  0.00  0.00    +0.000 A 
ENDBRANCH  12  14
ENDBRANCH   4  12
ENDBRANCH  13   8
TORSDOF 8
ENDMDL
