MODEL 1
REMARK VINA RESULT:      -7.6      0.000      0.000
REMARK  Name = 25044789
REMARK  8 active torsions:
REMARK  status: ('A' for Active; 'I' for Inactive)
REMARK    1  A    between atoms: S_1  and  N_8
REMARK    2  A    between atoms: S_1  and  C_31
REMARK    3  A    between atoms: O_5  and  C_36
REMARK    4  A    between atoms: O_5  and  C_37
REMARK    5  A    between atoms: N_6  and  C_17
REMARK    6  A    between atoms: N_8  and  C_21
REMARK    7  A    between atoms: N_9  and  C_28
REMARK    8  A    between atoms: C_17  and  C_20
REMARK                            x       y       z     vdW  Elec       q    Type
REMARK                         _______ _______ _______ _____ _____    ______ ____
ROOT
ATOM      2  O   UNL     1      -6.929 -11.305  15.126  0.00  0.00    -0.266 OA
ATOM      6  N   UNL     1     -10.130 -10.999  18.979  0.00  0.00    -0.297 NA
ATOM      7  N   UNL     1      -7.596 -11.933  17.282  0.00  0.00    -0.310 N 
ATOM     10  C   UNL     1      -9.788 -13.168  17.769  0.00  0.00    +0.024 C 
ATOM     11  C   UNL     1      -8.295 -12.570  19.617  0.00  0.00    +0.050 C 
ATOM     12  C   UNL     1      -9.029 -13.736  18.962  0.00  0.00    +0.017 C 
ATOM     13  C   UNL     1     -10.783 -12.087  18.242  0.00  0.00    +0.090 C 
ATOM     14  C   UNL     1      -9.320 -11.515  20.093  0.00  0.00    +0.094 C 
ATOM     15  C   UNL     1      -8.775 -12.631  16.749  0.00  0.00    +0.130 C 
ATOM     16  C   UNL     1      -7.302 -11.948  18.652  0.00  0.00    +0.026 A 
ATOM     18  C   UNL     1      -6.162 -11.399  19.110  0.00  0.00    +0.024 A 
ATOM     19  C   UNL     1      -6.732 -11.337  16.339  0.00  0.00    +0.274 A 
ATOM     21  C   UNL     1      -5.502 -10.730  16.908  0.00  0.00    +0.112 A 
ATOM     22  C   UNL     1      -5.231 -10.770  18.213  0.00  0.00    +0.031 A 
ENDROOT
BRANCH  21   8
ATOM      8  N   UNL     1      -4.569 -10.101  16.065  0.00  0.00    -0.211 N 
ATOM     38  H   UNL     1      -5.013  -9.519  15.341  0.00  0.00    +0.174 HD
BRANCH   8   1
ATOM      1  S   UNL     1      -3.272 -11.039  15.516  0.00  0.00    +0.073 S 
ATOM      3  O   UNL     1      -2.037 -10.559  16.105  0.00  0.00    -0.150 OA
ATOM      4  O   UNL     1      -3.621 -12.445  15.592  0.00  0.00    -0.150 OA
BRANCH   1  31
ATOM     31  C   UNL     1      -3.246 -10.594  13.804  0.00  0.00    +0.109 A 
ATOM     32  C   UNL     1      -2.033 -10.526  13.119  0.00  0.00    +0.032 A 
ATOM     33  C   UNL     1      -4.440 -10.310  13.139  0.00  0.00    +0.032 A 
ATOM     34  C   UNL     1      -2.013 -10.176  11.769  0.00  0.00    +0.047 A 
ATOM     35  C   UNL     1      -4.419  -9.961  11.789  0.00  0.00    +0.047 A 
ATOM     36  C   UNL     1      -3.206  -9.893  11.104  0.00  0.00    +0.120 A 
BRANCH  36   5
ATOM      5  O   UNL     1      -3.186  -9.551   9.786  0.00  0.00    -0.495 OA
ATOM     37  C   UNL     1      -4.376  -8.978   9.247  0.00  0.00    +0.277 C 
ENDBRANCH  36   5
ENDBRANCH   1  31
ENDBRANCH   8   1
ENDBRANCH  21   8
BRANCH   6  17
ATOM     17  C   UNL     1     -11.110 -10.024  19.453  0.00  0.00    +0.121 C 
BRANCH  17  20
ATOM      9  N   UNL     1     -13.624  -9.034  16.954  0.00  0.00    -0.349 N 
ATOM     20  C   UNL     1     -11.928  -9.458  18.324  0.00  0.00    -0.008 A 
ATOM     23  C   UNL     1     -11.485  -8.531  17.338  0.00  0.00    +0.004 A 
ATOM     24  C   UNL     1     -13.248  -9.748  18.061  0.00  0.00    +0.091 A 
ATOM     25  C   UNL     1     -12.568  -8.283  16.492  0.00  0.00    +0.049 A 
ATOM     26  C   UNL     1     -10.262  -7.879  17.084  0.00  0.00    +0.010 A 
ATOM     27  C   UNL     1     -12.488  -7.411  15.400  0.00  0.00    +0.026 A 
ATOM     28  C   UNL     1     -14.947  -9.075  16.369  0.00  0.00    +0.149 C 
ATOM     29  C   UNL     1     -10.168  -7.004  15.995  0.00  0.00    +0.001 A 
ATOM     30  C   UNL     1     -11.265  -6.775  15.168  0.00  0.00    +0.002 A 
ENDBRANCH  17  20
ENDBRANCH   6  17
TORSDOF 6
ENDMDL
MODEL 2
REMARK VINA RESULT:      -7.6      3.637      7.552
REMARK  Name = 25044789
REMARK  8 active torsions:
REMARK  status: ('A' for Active; 'I' for Inactive)
REMARK    1  A    between atoms: S_1  and  N_8
REMARK    2  A    between atoms: S_1  and  C_31
REMARK    3  A    between atoms: O_5  and  C_36
REMARK    4  A    between atoms: O_5  and  C_37
REMARK    5  A    between atoms: N_6  and  C_17
REMARK    6  A    between atoms: N_8  and  C_21
REMARK    7  A    between atoms: N_9  and  C_28
REMARK    8  A    between atoms: C_17  and  C_20
REMARK                            x       y       z     vdW  Elec       q    Type
REMARK                         _______ _______ _______ _____ _____    ______ ____
ROOT
ATOM      2  O   UNL     1      -5.834 -12.259  10.755  0.00  0.00    -0.266 OA
ATOM      6  N   UNL     1      -3.245 -11.029  14.874  0.00  0.00    -0.297 NA
ATOM      7  N   UNL     1      -3.799 -11.867  11.847  0.00  0.00    -0.310 N 
ATOM     10  C   UNL     1      -2.966 -13.283  13.813  0.00  0.00    +0.024 C 
ATOM     11  C   UNL     1      -1.617 -11.400  13.016  0.00  0.00    +0.050 C 
ATOM     12  C   UNL     1      -1.581 -12.897  13.311  0.00  0.00    +0.017 C 
ATOM     13  C   UNL     1      -3.310 -12.480  15.085  0.00  0.00    +0.090 C 
ATOM     14  C   UNL     1      -1.947 -10.625  14.312  0.00  0.00    +0.094 C 
ATOM     15  C   UNL     1      -3.981 -13.061  12.683  0.00  0.00    +0.130 C 
ATOM     16  C   UNL     1      -2.637 -11.089  11.936  0.00  0.00    +0.026 A 
ATOM     18  C   UNL     1      -2.437 -10.064  11.087  0.00  0.00    +0.024 A 
ATOM     19  C   UNL     1      -4.802 -11.604  10.890  0.00  0.00    +0.274 A 
ATOM     21  C   UNL     1      -4.534 -10.448   9.998  0.00  0.00    +0.112 A 
ATOM     22  C   UNL     1      -3.414  -9.731  10.086  0.00  0.00    +0.031 A 
ENDROOT
BRANCH  21   8
ATOM      8  N   UNL     1      -5.466 -10.087   9.009  0.00  0.00    -0.211 N 
ATOM     38  H   UNL     1      -5.056 -10.059   8.065  0.00  0.00    +0.174 HD
BRANCH   8   1
ATOM      1  S   UNL     1      -6.506  -8.799   9.363  0.00  0.00    +0.073 S 
ATOM      3  O   UNL     1      -7.595  -9.266  10.199  0.00  0.00    -0.150 OA
ATOM      4  O   UNL     1      -5.729  -7.639   9.756  0.00  0.00    -0.150 OA
BRANCH   1  31
ATOM     31  C   UNL     1      -7.176  -8.468   7.760  0.00  0.00    +0.109 A 
ATOM     32  C   UNL     1      -6.765  -9.225   6.663  0.00  0.00    +0.032 A 
ATOM     33  C   UNL     1      -8.116  -7.451   7.593  0.00  0.00    +0.032 A 
ATOM     34  C   UNL     1      -7.294  -8.965   5.398  0.00  0.00    +0.047 A 
ATOM     35  C   UNL     1      -8.645  -7.192   6.329  0.00  0.00    +0.047 A 
ATOM     36  C   UNL     1      -8.234  -7.947   5.231  0.00  0.00    +0.120 A 
BRANCH  36   5
ATOM      5  O   UNL     1      -8.750  -7.693   3.998  0.00  0.00    -0.495 OA
ATOM     37  C   UNL     1      -7.903  -7.939   2.877  0.00  0.00    +0.277 C 
ENDBRANCH  36   5
ENDBRANCH   1  31
ENDBRANCH   8   1
ENDBRANCH  21   8
BRANCH   6  17
ATOM     17  C   UNL     1      -3.526 -10.306  16.113  0.00  0.00    +0.121 C 
BRANCH  17  20
ATOM      9  N   UNL     1      -7.186  -9.931  16.190  0.00  0.00    -0.349 N 
ATOM     20  C   UNL     1      -5.001 -10.256  16.410  0.00  0.00    -0.008 A 
ATOM     23  C   UNL     1      -5.634 -10.645  17.624  0.00  0.00    +0.004 A 
ATOM     24  C   UNL     1      -5.982  -9.820  15.548  0.00  0.00    +0.091 A 
ATOM     25  C   UNL     1      -7.004 -10.431  17.459  0.00  0.00    +0.049 A 
ATOM     26  C   UNL     1      -5.171 -11.161  18.851  0.00  0.00    +0.010 A 
ATOM     27  C   UNL     1      -7.938 -10.709  18.463  0.00  0.00    +0.026 A 
ATOM     28  C   UNL     1      -8.459  -9.570  15.603  0.00  0.00    +0.149 C 
ATOM     29  C   UNL     1      -6.093 -11.443  19.865  0.00  0.00    +0.001 A 
ATOM     30  C   UNL     1      -7.455 -11.220  19.672  0.00  0.00    +0.002 A 
ENDBRANCH  17  20
ENDBRANCH   6  17
TORSDOF 6
ENDMDL
MODEL 3
REMARK VINA RESULT:      -7.4     26.192     28.563
REMARK  Name = 25044789
REMARK  8 active torsions:
REMARK  status: ('A' for Active; 'I' for Inactive)
REMARK    1  A    between atoms: S_1  and  N_8
REMARK    2  A    between atoms: S_1  and  C_31
REMARK    3  A    between atoms: O_5  and  C_36
REMARK    4  A    between atoms: O_5  and  C_37
REMARK    5  A    between atoms: N_6  and  C_17
REMARK    6  A    between atoms: N_8  and  C_21
REMARK    7  A    between atoms: N_9  and  C_28
REMARK    8  A    between atoms: C_17  and  C_20
REMARK                            x       y       z     vdW  Elec       q    Type
REMARK                         _______ _______ _______ _____ _____    ______ ____
ROOT
ATOM      2  O   UNL     1      10.309   4.421   2.526  0.00  0.00    -0.266 OA
ATOM      6  N   UNL     1       9.198   8.022   5.841  0.00  0.00    -0.297 NA
ATOM      7  N   UNL     1      10.834   5.671   4.437  0.00  0.00    -0.310 N 
ATOM     10  C   UNL     1       9.418   5.634   6.572  0.00  0.00    +0.024 C 
ATOM     11  C   UNL     1      11.414   7.050   6.464  0.00  0.00    +0.050 C 
ATOM     12  C   UNL     1      10.733   5.948   7.272  0.00  0.00    +0.017 C 
ATOM     13  C   UNL     1       8.535   6.897   6.513  0.00  0.00    +0.090 C 
ATOM     14  C   UNL     1      10.512   8.304   6.439  0.00  0.00    +0.094 C 
ATOM     15  C   UNL     1       9.723   5.062   5.180  0.00  0.00    +0.130 C 
ATOM     16  C   UNL     1      11.708   6.578   5.051  0.00  0.00    +0.026 A 
ATOM     18  C   UNL     1      12.784   7.042   4.390  0.00  0.00    +0.024 A 
ATOM     19  C   UNL     1      11.031   5.225   3.113  0.00  0.00    +0.274 A 
ATOM     21  C   UNL     1      12.223   5.789   2.429  0.00  0.00    +0.112 A 
ATOM     22  C   UNL     1      13.053   6.637   3.037  0.00  0.00    +0.031 A 
ENDROOT
BRANCH  21   8
ATOM      8  N   UNL     1      12.518   5.421   1.104  0.00  0.00    -0.211 N 
ATOM     38  H   UNL     1      11.683   5.395   0.502  0.00  0.00    +0.174 HD
BRANCH   8   1
ATOM      1  S   UNL     1      13.588   4.129   0.883  0.00  0.00    +0.073 S 
ATOM      3  O   UNL     1      14.955   4.604   0.975  0.00  0.00    -0.150 OA
ATOM      4  O   UNL     1      13.152   2.995   1.677  0.00  0.00    -0.150 OA
BRANCH   1  31
ATOM     31  C   UNL     1      13.280   3.735  -0.814  0.00  0.00    +0.109 A 
ATOM     32  C   UNL     1      12.333   2.766  -1.143  0.00  0.00    +0.032 A 
ATOM     33  C   UNL     1      13.984   4.394  -1.822  0.00  0.00    +0.032 A 
ATOM     34  C   UNL     1      12.089   2.456  -2.482  0.00  0.00    +0.047 A 
ATOM     35  C   UNL     1      13.739   4.084  -3.159  0.00  0.00    +0.047 A 
ATOM     36  C   UNL     1      12.793   3.114  -3.490  0.00  0.00    +0.120 A 
BRANCH  36   5
ATOM      5  O   UNL     1      12.555   2.812  -4.795  0.00  0.00    -0.495 OA
ATOM     37  C   UNL     1      11.302   3.223  -5.340  0.00  0.00    +0.277 C 
ENDBRANCH  36   5
ENDBRANCH   1  31
ENDBRANCH   8   1
ENDBRANCH  21   8
BRANCH   6  17
ATOM     17  C   UNL     1       8.351   9.213   5.852  0.00  0.00    +0.121 C 
BRANCH  17  20
ATOM      9  N   UNL     1       6.170   9.990   2.992  0.00  0.00    -0.349 N 
ATOM     20  C   UNL     1       7.676   9.431   4.525  0.00  0.00    -0.008 A 
ATOM     23  C   UNL     1       8.216   9.138   3.240  0.00  0.00    +0.004 A 
ATOM     24  C   UNL     1       6.416   9.954   4.339  0.00  0.00    +0.091 A 
ATOM     25  C   UNL     1       7.251   9.498   2.298  0.00  0.00    +0.049 A 
ATOM     26  C   UNL     1       9.438   8.599   2.789  0.00  0.00    +0.010 A 
ATOM     27  C   UNL     1       7.448   9.346   0.921  0.00  0.00    +0.026 A 
ATOM     28  C   UNL     1       4.943  10.480   2.401  0.00  0.00    +0.149 C 
ATOM     29  C   UNL     1       9.648   8.441   1.415  0.00  0.00    +0.001 A 
ATOM     30  C   UNL     1       8.667   8.809   0.497  0.00  0.00    +0.002 A 
ENDBRANCH  17  20
ENDBRANCH   6  17
TORSDOF 6
ENDMDL
MODEL 4
REMARK VINA RESULT:      -7.4     26.655     30.228
REMARK  Name = 25044789
REMARK  8 active torsions:
REMARK  status: ('A' for Active; 'I' for Inactive)
REMARK    1  A    between atoms: S_1  and  N_8
REMARK    2  A    between atoms: S_1  and  C_31
REMARK    3  A    between atoms: O_5  and  C_36
REMARK    4  A    between atoms: O_5  and  C_37
REMARK    5  A    between atoms: N_6  and  C_17
REMARK    6  A    between atoms: N_8  and  C_21
REMARK    7  A    between atoms: N_9  and  C_28
REMARK    8  A    between atoms: C_17  and  C_20
REMARK                            x       y       z     vdW  Elec       q    Type
REMARK                         _______ _______ _______ _____ _____    ______ ____
ROOT
ATOM      2  O   UNL     1      13.782   6.592   6.861  0.00  0.00    -0.266 OA
ATOM      6  N   UNL     1       9.165   7.497   5.116  0.00  0.00    -0.297 NA
ATOM      7  N   UNL     1      11.718   7.688   7.018  0.00  0.00    -0.310 N 
ATOM     10  C   UNL     1       9.499   6.457   7.372  0.00  0.00    +0.024 C 
ATOM     11  C   UNL     1       9.512   8.897   7.156  0.00  0.00    +0.050 C 
ATOM     12  C   UNL     1       9.063   7.748   8.053  0.00  0.00    +0.017 C 
ATOM     13  C   UNL     1       8.850   6.351   5.976  0.00  0.00    +0.090 C 
ATOM     14  C   UNL     1       8.832   8.770   5.774  0.00  0.00    +0.094 C 
ATOM     15  C   UNL     1      11.032   6.422   7.314  0.00  0.00    +0.130 C 
ATOM     16  C   UNL     1      11.022   8.905   7.007  0.00  0.00    +0.026 A 
ATOM     18  C   UNL     1      11.683  10.066   6.844  0.00  0.00    +0.024 A 
ATOM     19  C   UNL     1      13.117   7.626   6.846  0.00  0.00    +0.274 A 
ATOM     21  C   UNL     1      13.786   8.937   6.649  0.00  0.00    +0.112 A 
ATOM     22  C   UNL     1      13.109  10.085   6.659  0.00  0.00    +0.031 A 
ENDROOT
BRANCH  21   8
ATOM      8  N   UNL     1      15.178   8.999   6.461  0.00  0.00    -0.211 N 
ATOM     38  H   UNL     1      15.647   9.609   7.145  0.00  0.00    +0.174 HD
BRANCH   8   1
ATOM      1  S   UNL     1      15.734   9.166   4.871  0.00  0.00    +0.073 S 
ATOM      3  O   UNL     1      15.096   8.178   4.023  0.00  0.00    -0.150 OA
ATOM      4  O   UNL     1      15.724  10.568   4.496  0.00  0.00    -0.150 OA
BRANCH   1  31
ATOM     31  C   UNL     1      17.425   8.683   5.063  0.00  0.00    +0.109 A 
ATOM     32  C   UNL     1      18.064   8.855   6.291  0.00  0.00    +0.032 A 
ATOM     33  C   UNL     1      18.119   8.130   3.986  0.00  0.00    +0.032 A 
ATOM     34  C   UNL     1      19.397   8.473   6.443  0.00  0.00    +0.047 A 
ATOM     35  C   UNL     1      19.451   7.748   4.139  0.00  0.00    +0.047 A 
ATOM     36  C   UNL     1      20.092   7.920   5.366  0.00  0.00    +0.120 A 
BRANCH  36   5
ATOM      5  O   UNL     1      21.392   7.548   5.514  0.00  0.00    -0.495 OA
ATOM     37  C   UNL     1      21.956   6.736   4.485  0.00  0.00    +0.277 C 
ENDBRANCH  36   5
ENDBRANCH   1  31
ENDBRANCH   8   1
ENDBRANCH  21   8
BRANCH   6  17
ATOM     17  C   UNL     1       8.491   7.385   3.824  0.00  0.00    +0.121 C 
BRANCH  17  20
ATOM      9  N   UNL     1      10.682   7.499   0.869  0.00  0.00    -0.349 N 
ATOM     20  C   UNL     1       9.469   7.171   2.699  0.00  0.00    -0.008 A 
ATOM     23  C   UNL     1      10.274   6.016   2.485  0.00  0.00    +0.004 A 
ATOM     24  C   UNL     1       9.742   8.064   1.689  0.00  0.00    +0.091 A 
ATOM     25  C   UNL     1      11.025   6.249   1.331  0.00  0.00    +0.049 A 
ATOM     26  C   UNL     1      10.437   4.793   3.165  0.00  0.00    +0.010 A 
ATOM     27  C   UNL     1      11.934   5.315   0.821  0.00  0.00    +0.026 A 
ATOM     28  C   UNL     1      11.227   8.139  -0.309  0.00  0.00    +0.149 C 
ATOM     29  C   UNL     1      11.342   3.849   2.667  0.00  0.00    +0.001 A 
ATOM     30  C   UNL     1      12.078   4.109   1.513  0.00  0.00    +0.002 A 
ENDBRANCH  17  20
ENDBRANCH   6  17
TORSDOF 6
ENDMDL
MODEL 5
REMARK VINA RESULT:      -7.3     17.915     20.547
REMARK  Name = 25044789
REMARK  8 active torsions:
REMARK  status: ('A' for Active; 'I' for Inactive)
REMARK    1  A    between atoms: S_1  and  N_8
REMARK    2  A    between atoms: S_1  and  C_31
REMARK    3  A    between atoms: O_5  and  C_36
REMARK    4  A    between atoms: O_5  and  C_37
REMARK    5  A    between atoms: N_6  and  C_17
REMARK    6  A    between atoms: N_8  and  C_21
REMARK    7  A    between atoms: N_9  and  C_28
REMARK    8  A    between atoms: C_17  and  C_20
REMARK                            x       y       z     vdW  Elec       q    Type
REMARK                         _______ _______ _______ _____ _____    ______ ____
ROOT
ATOM      2  O   UNL     1     -14.322   9.727  21.466  0.00  0.00    -0.266 OA
ATOM      6  N   UNL     1     -12.232   9.276  16.926  0.00  0.00    -0.297 NA
ATOM      7  N   UNL     1     -12.470   9.268  20.107  0.00  0.00    -0.310 N 
ATOM     10  C   UNL     1     -11.409  11.002  18.547  0.00  0.00    +0.024 C 
ATOM     11  C   UNL     1     -10.495   8.730  18.638  0.00  0.00    +0.050 C 
ATOM     12  C   UNL     1     -10.131  10.206  18.776  0.00  0.00    +0.017 C 
ATOM     13  C   UNL     1     -11.973  10.704  17.142  0.00  0.00    +0.090 C 
ATOM     14  C   UNL     1     -11.040   8.464  17.217  0.00  0.00    +0.094 C 
ATOM     15  C   UNL     1     -12.406  10.668  19.665  0.00  0.00    +0.130 C 
ATOM     16  C   UNL     1     -11.520   8.329  19.684  0.00  0.00    +0.026 A 
ATOM     18  C   UNL     1     -11.527   7.079  20.183  0.00  0.00    +0.024 A 
ATOM     19  C   UNL     1     -13.471   8.945  21.047  0.00  0.00    +0.274 A 
ATOM     21  C   UNL     1     -13.441   7.546  21.544  0.00  0.00    +0.112 A 
ATOM     22  C   UNL     1     -12.517   6.672  21.143  0.00  0.00    +0.031 A 
ENDROOT
BRANCH  21   8
ATOM      8  N   UNL     1     -14.394   7.107  22.480  0.00  0.00    -0.211 N 
ATOM     38  H   UNL     1     -13.983   6.531  23.229  0.00  0.00    +0.174 HD
BRANCH   8   1
ATOM      1  S   UNL     1     -15.862   6.526  21.870  0.00  0.00    +0.073 S 
ATOM      3  O   UNL     1     -16.938   7.421  22.250  0.00  0.00    -0.150 OA
ATOM      4  O   UNL     1     -15.693   6.133  20.484  0.00  0.00    -0.150 OA
BRANCH   1  31
ATOM     31  C   UNL     1     -16.049   5.045  22.820  0.00  0.00    +0.109 A 
ATOM     32  C   UNL     1     -15.148   4.756  23.844  0.00  0.00    +0.032 A 
ATOM     33  C   UNL     1     -17.097   4.166  22.544  0.00  0.00    +0.032 A 
ATOM     34  C   UNL     1     -15.295   3.589  24.594  0.00  0.00    +0.047 A 
ATOM     35  C   UNL     1     -17.244   3.000  23.294  0.00  0.00    +0.047 A 
ATOM     36  C   UNL     1     -16.343   2.710  24.319  0.00  0.00    +0.120 A 
BRANCH  36   5
ATOM      5  O   UNL     1     -16.487   1.571  25.050  0.00  0.00    -0.495 OA
ATOM     37  C   UNL     1     -17.748   0.909  24.978  0.00  0.00    +0.277 C 
ENDBRANCH  36   5
ENDBRANCH   1  31
ENDBRANCH   8   1
ENDBRANCH  21   8
BRANCH   6  17
ATOM     17  C   UNL     1     -12.715   9.029  15.569  0.00  0.00    +0.121 C 
BRANCH  17  20
ATOM      9  N   UNL     1     -15.965   7.421  16.195  0.00  0.00    -0.349 N 
ATOM     20  C   UNL     1     -14.006   8.256  15.566  0.00  0.00    -0.008 A 
ATOM     23  C   UNL     1     -14.487   7.413  14.524  0.00  0.00    +0.004 A 
ATOM     24  C   UNL     1     -14.937   8.239  16.580  0.00  0.00    +0.091 A 
ATOM     25  C   UNL     1     -15.716   6.902  14.944  0.00  0.00    +0.049 A 
ATOM     26  C   UNL     1     -13.991   7.035  13.260  0.00  0.00    +0.010 A 
ATOM     27  C   UNL     1     -16.478   6.029  14.160  0.00  0.00    +0.026 A 
ATOM     28  C   UNL     1     -17.137   7.150  16.999  0.00  0.00    +0.149 C 
ATOM     29  C   UNL     1     -14.742   6.162  12.465  0.00  0.00    +0.001 A 
ATOM     30  C   UNL     1     -15.966   5.668  12.910  0.00  0.00    +0.002 A 
ENDBRANCH  17  20
ENDBRANCH   6  17
TORSDOF 6
ENDMDL
MODEL 6
REMARK VINA RESULT:      -7.2     28.079     31.572
REMARK  Name = 25044789
REMARK  8 active torsions:
REMARK  status: ('A' for Active; 'I' for Inactive)
REMARK    1  A    between atoms: S_1  and  N_8
REMARK    2  A    between atoms: S_1  and  C_31
REMARK    3  A    between atoms: O_5  and  C_36
REMARK    4  A    between atoms: O_5  and  C_37
REMARK    5  A    between atoms: N_6  and  C_17
REMARK    6  A    between atoms: N_8  and  C_21
REMARK    7  A    between atoms: N_9  and  C_28
REMARK    8  A    between atoms: C_17  and  C_20
REMARK                            x       y       z     vdW  Elec       q    Type
REMARK                         _______ _______ _______ _____ _____    ______ ____
ROOT
ATOM      2  O   UNL     1      14.055  12.293  17.901  0.00  0.00    -0.266 OA
ATOM      6  N   UNL     1      14.097   8.086  20.638  0.00  0.00    -0.297 NA
ATOM      7  N   UNL     1      13.253  10.136  18.345  0.00  0.00    -0.310 N 
ATOM     10  C   UNL     1      12.037   9.509  20.511  0.00  0.00    +0.024 C 
ATOM     11  C   UNL     1      12.429   7.800  18.799  0.00  0.00    +0.050 C 
ATOM     12  C   UNL     1      11.346   8.465  19.644  0.00  0.00    +0.017 C 
ATOM     13  C   UNL     1      13.096   8.834  21.408  0.00  0.00    +0.090 C 
ATOM     14  C   UNL     1      13.463   7.121  19.727  0.00  0.00    +0.094 C 
ATOM     15  C   UNL     1      12.637  10.588  19.600  0.00  0.00    +0.130 C 
ATOM     16  C   UNL     1      13.109   8.815  17.900  0.00  0.00    +0.026 A 
ATOM     18  C   UNL     1      13.585   8.446  16.696  0.00  0.00    +0.024 A 
ATOM     19  C   UNL     1      13.909  11.117  17.571  0.00  0.00    +0.274 A 
ATOM     21  C   UNL     1      14.432  10.644  16.264  0.00  0.00    +0.112 A 
ATOM     22  C   UNL     1      14.268   9.387  15.850  0.00  0.00    +0.031 A 
ENDROOT
BRANCH  21   8
ATOM      8  N   UNL     1      15.109  11.531  15.410  0.00  0.00    -0.211 N 
ATOM     38  H   UNL     1      15.795  12.118  15.906  0.00  0.00    +0.174 HD
BRANCH   8   1
ATOM      1  S   UNL     1      14.180  12.353  14.259  0.00  0.00    +0.073 S 
ATOM      3  O   UNL     1      13.092  11.505  13.812  0.00  0.00    -0.150 OA
ATOM      4  O   UNL     1      13.913  13.702  14.721  0.00  0.00    -0.150 OA
BRANCH   1  31
ATOM     31  C   UNL     1      15.338  12.471  12.926  0.00  0.00    +0.109 A 
ATOM     32  C   UNL     1      14.881  12.646  11.620  0.00  0.00    +0.032 A 
ATOM     33  C   UNL     1      16.707  12.391  13.182  0.00  0.00    +0.032 A 
ATOM     34  C   UNL     1      15.794  12.741  10.569  0.00  0.00    +0.047 A 
ATOM     35  C   UNL     1      17.619  12.487  12.131  0.00  0.00    +0.047 A 
ATOM     36  C   UNL     1      17.163  12.660  10.825  0.00  0.00    +0.120 A 
BRANCH  36   5
ATOM      5  O   UNL     1      18.053  12.752   9.799  0.00  0.00    -0.495 OA
ATOM     37  C   UNL     1      19.179  11.877   9.837  0.00  0.00    +0.277 C 
ENDBRANCH  36   5
ENDBRANCH   1  31
ENDBRANCH   8   1
ENDBRANCH  21   8
BRANCH   6  17
ATOM     17  C   UNL     1      15.050   7.421  21.523  0.00  0.00    +0.121 C 
BRANCH  17  20
ATOM      9  N   UNL     1      17.928   9.701  21.768  0.00  0.00    -0.349 N 
ATOM     20  C   UNL     1      16.380   8.125  21.545  0.00  0.00    -0.008 A 
ATOM     23  C   UNL     1      17.648   7.552  21.242  0.00  0.00    +0.004 A 
ATOM     24  C   UNL     1      16.586   9.448  21.865  0.00  0.00    +0.091 A 
ATOM     25  C   UNL     1      18.601   8.562  21.389  0.00  0.00    +0.049 A 
ATOM     26  C   UNL     1      18.076   6.266  20.854  0.00  0.00    +0.010 A 
ATOM     27  C   UNL     1      19.966   8.350  21.167  0.00  0.00    +0.026 A 
ATOM     28  C   UNL     1      18.536  10.988  22.030  0.00  0.00    +0.149 C 
ATOM     29  C   UNL     1      19.439   6.039  20.629  0.00  0.00    +0.001 A 
ATOM     30  C   UNL     1      20.367   7.066  20.785  0.00  0.00    +0.002 A 
ENDBRANCH  17  20
ENDBRANCH   6  17
TORSDOF 6
ENDMDL
MODEL 7
REMARK VINA RESULT:      -7.1     27.478     30.750
REMARK  Name = 25044789
REMARK  8 active torsions:
REMARK  status: ('A' for Active; 'I' for Inactive)
REMARK    1  A    between atoms: S_1  and  N_8
REMARK    2  A    between atoms: S_1  and  C_31
REMARK    3  A    between atoms: O_5  and  C_36
REMARK    4  A    between atoms: O_5  and  C_37
REMARK    5  A    between atoms: N_6  and  C_17
REMARK    6  A    between atoms: N_8  and  C_21
REMARK    7  A    between atoms: N_9  and  C_28
REMARK    8  A    between atoms: C_17  and  C_20
REMARK                            x       y       z     vdW  Elec       q    Type
REMARK                         _______ _______ _______ _____ _____    ______ ____
ROOT
ATOM      2  O   UNL     1      13.358  11.732  18.124  0.00  0.00    -0.266 OA
ATOM      6  N   UNL     1      14.585  12.928  13.407  0.00  0.00    -0.297 NA
ATOM      7  N   UNL     1      14.693  11.433  16.222  0.00  0.00    -0.310 N 
ATOM     10  C   UNL     1      16.220  13.261  15.278  0.00  0.00    +0.024 C 
ATOM     11  C   UNL     1      16.095  11.085  14.159  0.00  0.00    +0.050 C 
ATOM     12  C   UNL     1      17.060  12.093  14.778  0.00  0.00    +0.017 C 
ATOM     13  C   UNL     1      15.443  13.894  14.105  0.00  0.00    +0.090 C 
ATOM     14  C   UNL     1      15.346  11.745  12.979  0.00  0.00    +0.094 C 
ATOM     15  C   UNL     1      15.296  12.762  16.397  0.00  0.00    +0.130 C 
ATOM     16  C   UNL     1      15.111  10.576  15.195  0.00  0.00    +0.026 A 
ATOM     18  C   UNL     1      14.628   9.322  15.116  0.00  0.00    +0.024 A 
ATOM     19  C   UNL     1      13.751  11.031  17.193  0.00  0.00    +0.274 A 
ATOM     21  C   UNL     1      13.240   9.646  17.040  0.00  0.00    +0.112 A 
ATOM     22  C   UNL     1      13.663   8.839  16.066  0.00  0.00    +0.031 A 
ENDROOT
BRANCH  21   8
ATOM      8  N   UNL     1      12.292   9.137  17.945  0.00  0.00    -0.211 N 
ATOM     38  H   UNL     1      11.611   9.847  18.251  0.00  0.00    +0.174 HD
BRANCH   8   1
ATOM      1  S   UNL     1      12.867   8.134  19.180  0.00  0.00    +0.073 S 
ATOM      3  O   UNL     1      12.234   6.832  19.089  0.00  0.00    -0.150 OA
ATOM      4  O   UNL     1      14.312   8.240  19.261  0.00  0.00    -0.150 OA
BRANCH   1  31
ATOM     31  C   UNL     1      12.198   8.947  20.602  0.00  0.00    +0.109 A 
ATOM     32  C   UNL     1      11.073   8.424  21.238  0.00  0.00    +0.032 A 
ATOM     33  C   UNL     1      12.796  10.110  21.087  0.00  0.00    +0.032 A 
ATOM     34  C   UNL     1      10.545   9.064  22.360  0.00  0.00    +0.047 A 
ATOM     35  C   UNL     1      12.270  10.749  22.208  0.00  0.00    +0.047 A 
ATOM     36  C   UNL     1      11.143  10.227  22.845  0.00  0.00    +0.120 A 
BRANCH  36   5
ATOM      5  O   UNL     1      10.629  10.852  23.939  0.00  0.00    -0.495 OA
ATOM     37  C   UNL     1      11.546  11.550  24.779  0.00  0.00    +0.277 C 
ENDBRANCH  36   5
ENDBRANCH   1  31
ENDBRANCH   8   1
ENDBRANCH  21   8
BRANCH   6  17
ATOM     17  C   UNL     1      13.907  13.553  12.273  0.00  0.00    +0.121 C 
BRANCH  17  20
ATOM      9  N   UNL     1      10.324  12.799  12.643  0.00  0.00    -0.349 N 
ATOM     20  C   UNL     1      12.470  13.116  12.170  0.00  0.00    -0.008 A 
ATOM     23  C   UNL     1      11.881  12.386  11.099  0.00  0.00    +0.004 A 
ATOM     24  C   UNL     1      11.488  13.354  13.104  0.00  0.00    +0.091 A 
ATOM     25  C   UNL     1      10.535  12.201  11.421  0.00  0.00    +0.049 A 
ATOM     26  C   UNL     1      12.366  11.864   9.883  0.00  0.00    +0.010 A 
ATOM     27  C   UNL     1       9.646  11.517  10.584  0.00  0.00    +0.026 A 
ATOM     28  C   UNL     1       9.062  12.843  13.350  0.00  0.00    +0.149 C 
ATOM     29  C   UNL     1      11.489  11.178   9.037  0.00  0.00    +0.001 A 
ATOM     30  C   UNL     1      10.150  11.008   9.384  0.00  0.00    +0.002 A 
ENDBRANCH  17  20
ENDBRANCH   6  17
TORSDOF 6
ENDMDL
MODEL 8
REMARK VINA RESULT:      -7.0      3.696      7.253
REMARK  Name = 25044789
REMARK  8 active torsions:
REMARK  status: ('A' for Active; 'I' for Inactive)
REMARK    1  A    between atoms: S_1  and  N_8
REMARK    2  A    between atoms: S_1  and  C_31
REMARK    3  A    between atoms: O_5  and  C_36
REMARK    4  A    between atoms: O_5  and  C_37
REMARK    5  A    between atoms: N_6  and  C_17
REMARK    6  A    between atoms: N_8  and  C_21
REMARK    7  A    between atoms: N_9  and  C_28
REMARK    8  A    between atoms: C_17  and  C_20
REMARK                            x       y       z     vdW  Elec       q    Type
REMARK                         _______ _______ _______ _____ _____    ______ ____
ROOT
ATOM      2  O   UNL     1      -6.045 -12.247  11.139  0.00  0.00    -0.266 OA
ATOM      6  N   UNL     1      -3.129 -11.444  15.144  0.00  0.00    -0.297 NA
ATOM      7  N   UNL     1      -3.930 -12.168  12.143  0.00  0.00    -0.310 N 
ATOM     10  C   UNL     1      -3.232 -13.707  14.069  0.00  0.00    +0.024 C 
ATOM     11  C   UNL     1      -1.655 -12.038  13.216  0.00  0.00    +0.050 C 
ATOM     12  C   UNL     1      -1.828 -13.526  13.508  0.00  0.00    +0.017 C 
ATOM     13  C   UNL     1      -3.399 -12.872  15.356  0.00  0.00    +0.090 C 
ATOM     14  C   UNL     1      -1.811 -11.233  14.526  0.00  0.00    +0.094 C 
ATOM     15  C   UNL     1      -4.250 -13.329  12.985  0.00  0.00    +0.130 C 
ATOM     16  C   UNL     1      -2.663 -11.571  12.182  0.00  0.00    +0.026 A 
ATOM     18  C   UNL     1      -2.350 -10.580  11.327  0.00  0.00    +0.024 A 
ATOM     19  C   UNL     1      -4.923 -11.753  11.230  0.00  0.00    +0.274 A 
ATOM     21  C   UNL     1      -4.525 -10.642  10.328  0.00  0.00    +0.112 A 
ATOM     22  C   UNL     1      -3.308 -10.099  10.369  0.00  0.00    +0.031 A 
ENDROOT
BRANCH  21   8
ATOM      8  N   UNL     1      -5.435 -10.140   9.381  0.00  0.00    -0.211 N 
ATOM     38  H   UNL     1      -5.042 -10.106   8.430  0.00  0.00    +0.174 HD
BRANCH   8   1
ATOM      1  S   UNL     1      -6.331  -8.774   9.823  0.00  0.00    +0.073 S 
ATOM      3  O   UNL     1      -7.396  -9.160  10.729  0.00  0.00    -0.150 OA
ATOM      4  O   UNL     1      -5.430  -7.691  10.171  0.00  0.00    -0.150 OA
BRANCH   1  31
ATOM     31  C   UNL     1      -7.081  -8.360   8.275  0.00  0.00    +0.109 A 
ATOM     32  C   UNL     1      -6.859  -9.162   7.156  0.00  0.00    +0.032 A 
ATOM     33  C   UNL     1      -7.895  -7.231   8.174  0.00  0.00    +0.032 A 
ATOM     34  C   UNL     1      -7.451  -8.836   5.935  0.00  0.00    +0.047 A 
ATOM     35  C   UNL     1      -8.487  -6.906   6.954  0.00  0.00    +0.047 A 
ATOM     36  C   UNL     1      -8.265  -7.707   5.834  0.00  0.00    +0.120 A 
BRANCH  36   5
ATOM      5  O   UNL     1      -8.842  -7.389   4.644  0.00  0.00    -0.495 OA
ATOM     37  C   UNL     1      -8.677  -8.318   3.573  0.00  0.00    +0.277 C 
ENDBRANCH  36   5
ENDBRANCH   1  31
ENDBRANCH   8   1
ENDBRANCH  21   8
BRANCH   6  17
ATOM     17  C   UNL     1      -3.247 -10.697  16.394  0.00  0.00    +0.121 C 
BRANCH  17  20
ATOM      9  N   UNL     1      -6.479 -10.581  18.150  0.00  0.00    -0.349 N 
ATOM     20  C   UNL     1      -4.677 -10.595  16.853  0.00  0.00    -0.008 A 
ATOM     23  C   UNL     1      -5.812 -10.327  16.036  0.00  0.00    +0.004 A 
ATOM     24  C   UNL     1      -5.120 -10.747  18.147  0.00  0.00    +0.091 A 
ATOM     25  C   UNL     1      -6.929 -10.323  16.875  0.00  0.00    +0.049 A 
ATOM     26  C   UNL     1      -5.996 -10.086  14.660  0.00  0.00    +0.010 A 
ATOM     27  C   UNL     1      -8.225 -10.090  16.403  0.00  0.00    +0.026 A 
ATOM     28  C   UNL     1      -7.309 -10.666  19.332  0.00  0.00    +0.149 C 
ATOM     29  C   UNL     1      -7.287  -9.851  14.174  0.00  0.00    +0.001 A 
ATOM     30  C   UNL     1      -8.383  -9.853  15.035  0.00  0.00    +0.002 A 
ENDBRANCH  17  20
ENDBRANCH   6  17
TORSDOF 6
ENDMDL
MODEL 9
REMARK VINA RESULT:      -7.0     29.547     33.981
REMARK  Name = 25044789
REMARK  8 active torsions:
REMARK  status: ('A' for Active; 'I' for Inactive)
REMARK    1  A    between atoms: S_1  and  N_8
REMARK    2  A    between atoms: S_1  and  C_31
REMARK    3  A    between atoms: O_5  and  C_36
REMARK    4  A    between atoms: O_5  and  C_37
REMARK    5  A    between atoms: N_6  and  C_17
REMARK    6  A    between atoms: N_8  and  C_21
REMARK    7  A    between atoms: N_9  and  C_28
REMARK    8  A    between atoms: C_17  and  C_20
REMARK                            x       y       z     vdW  Elec       q    Type
REMARK                         _______ _______ _______ _____ _____    ______ ____
ROOT
ATOM      2  O   UNL     1      21.091   4.022  20.330  0.00  0.00    -0.266 OA
ATOM      6  N   UNL     1      24.328   2.221  23.716  0.00  0.00    -0.297 NA
ATOM      7  N   UNL     1      23.279   3.751  21.121  0.00  0.00    -0.310 N 
ATOM     10  C   UNL     1      24.426   1.469  21.326  0.00  0.00    +0.024 C 
ATOM     11  C   UNL     1      25.625   3.496  22.002  0.00  0.00    +0.050 C 
ATOM     12  C   UNL     1      25.708   2.261  21.109  0.00  0.00    +0.017 C 
ATOM     13  C   UNL     1      24.298   1.066  22.810  0.00  0.00    +0.090 C 
ATOM     14  C   UNL     1      25.515   3.058  23.480  0.00  0.00    +0.094 C 
ATOM     15  C   UNL     1      23.237   2.310  20.839  0.00  0.00    +0.130 C 
ATOM     16  C   UNL     1      24.441   4.361  21.614  0.00  0.00    +0.026 A 
ATOM     18  C   UNL     1      24.498   5.697  21.763  0.00  0.00    +0.024 A 
ATOM     19  C   UNL     1      22.132   4.498  20.780  0.00  0.00    +0.274 A 
ATOM     21  C   UNL     1      22.249   5.964  20.986  0.00  0.00    +0.112 A 
ATOM     22  C   UNL     1      23.369   6.527  21.439  0.00  0.00    +0.031 A 
ENDROOT
BRANCH  21   8
ATOM      8  N   UNL     1      21.166   6.809  20.686  0.00  0.00    -0.211 N 
ATOM     38  H   UNL     1      21.441   7.624  20.120  0.00  0.00    +0.174 HD
BRANCH   8   1
ATOM      1  S   UNL     1      20.087   7.155  21.943  0.00  0.00    +0.073 S 
ATOM      3  O   UNL     1      20.111   6.081  22.918  0.00  0.00    -0.150 OA
ATOM      4  O   UNL     1      20.259   8.532  22.368  0.00  0.00    -0.150 OA
BRANCH   1  31
ATOM     31  C   UNL     1      18.543   7.055  21.087  0.00  0.00    +0.109 A 
ATOM     32  C   UNL     1      18.385   6.151  20.037  0.00  0.00    +0.032 A 
ATOM     33  C   UNL     1      17.481   7.879  21.463  0.00  0.00    +0.032 A 
ATOM     34  C   UNL     1      17.167   6.070  19.362  0.00  0.00    +0.047 A 
ATOM     35  C   UNL     1      16.264   7.798  20.789  0.00  0.00    +0.047 A 
ATOM     36  C   UNL     1      16.106   6.895  19.737  0.00  0.00    +0.120 A 
BRANCH  36   5
ATOM      5  O   UNL     1      14.917   6.817  19.079  0.00  0.00    -0.495 OA
ATOM     37  C   UNL     1      13.733   7.002  19.853  0.00  0.00    +0.277 C 
ENDBRANCH  36   5
ENDBRANCH   1  31
ENDBRANCH   8   1
ENDBRANCH  21   8
BRANCH   6  17
ATOM     17  C   UNL     1      24.257   1.796  25.112  0.00  0.00    +0.121 C 
BRANCH  17  20
ATOM      9  N   UNL     1      21.351  -0.428  25.498  0.00  0.00    -0.349 N 
ATOM     20  C   UNL     1      23.265   0.682  25.308  0.00  0.00    -0.008 A 
ATOM     23  C   UNL     1      23.566  -0.687  25.560  0.00  0.00    +0.004 A 
ATOM     24  C   UNL     1      21.894   0.809  25.276  0.00  0.00    +0.091 A 
ATOM     25  C   UNL     1      22.348  -1.360  25.675  0.00  0.00    +0.049 A 
ATOM     26  C   UNL     1      24.762  -1.419  25.702  0.00  0.00    +0.010 A 
ATOM     27  C   UNL     1      22.266  -2.734  25.925  0.00  0.00    +0.026 A 
ATOM     28  C   UNL     1      19.930  -0.699  25.536  0.00  0.00    +0.149 C 
ATOM     29  C   UNL     1      24.695  -2.793  25.953  0.00  0.00    +0.001 A 
ATOM     30  C   UNL     1      23.465  -3.439  26.062  0.00  0.00    +0.002 A 
ENDBRANCH  17  20
ENDBRANCH   6  17
TORSDOF 6
ENDMDL
MODEL 10
REMARK VINA RESULT:      -6.9      4.162      7.535
REMARK  Name = 25044789
REMARK  8 active torsions:
REMARK  status: ('A' for Active; 'I' for Inactive)
REMARK    1  A    between atoms: S_1  and  N_8
REMARK    2  A    between atoms: S_1  and  C_31
REMARK    3  A    between atoms: O_5  and  C_36
REMARK    4  A    between atoms: O_5  and  C_37
REMARK    5  A    between atoms: N_6  and  C_17
REMARK    6  A    between atoms: N_8  and  C_21
REMARK    7  A    between atoms: N_9  and  C_28
REMARK    8  A    between atoms: C_17  and  C_20
REMARK                            x       y       z     vdW  Elec       q    Type
REMARK                         _______ _______ _______ _____ _____    ______ ____
ROOT
ATOM      2  O   UNL     1      -4.356 -12.819   9.415  0.00  0.00    -0.266 OA
ATOM      6  N   UNL     1      -4.106 -14.205  14.232  0.00  0.00    -0.297 NA
ATOM      7  N   UNL     1      -3.140 -13.107  11.398  0.00  0.00    -0.310 N 
ATOM     10  C   UNL     1      -2.755 -15.394  12.487  0.00  0.00    +0.024 C 
ATOM     11  C   UNL     1      -1.851 -13.377  13.544  0.00  0.00    +0.050 C 
ATOM     12  C   UNL     1      -1.476 -14.759  13.017  0.00  0.00    +0.017 C 
ATOM     13  C   UNL     1      -3.799 -15.502  13.618  0.00  0.00    +0.090 C 
ATOM     14  C   UNL     1      -2.884 -13.522  14.685  0.00  0.00    +0.094 C 
ATOM     15  C   UNL     1      -3.259 -14.568  11.296  0.00  0.00    +0.130 C 
ATOM     16  C   UNL     1      -2.407 -12.509  12.431  0.00  0.00    +0.026 A 
ATOM     18  C   UNL     1      -2.216 -11.177  12.448  0.00  0.00    +0.024 A 
ATOM     19  C   UNL     1      -3.715 -12.350  10.355  0.00  0.00    +0.274 A 
ATOM     21  C   UNL     1      -3.488 -10.885  10.441  0.00  0.00    +0.112 A 
ATOM     22  C   UNL     1      -2.772 -10.336  11.422  0.00  0.00    +0.031 A 
ENDROOT
BRANCH  21   8
ATOM      8  N   UNL     1      -4.019 -10.028   9.460  0.00  0.00    -0.211 N 
ATOM     38  H   UNL     1      -3.308  -9.413   9.040  0.00  0.00    +0.174 HD
BRANCH   8   1
ATOM      1  S   UNL     1      -5.488  -9.266   9.816  0.00  0.00    +0.073 S 
ATOM      3  O   UNL     1      -6.316 -10.149  10.615  0.00  0.00    -0.150 OA
ATOM      4  O   UNL     1      -5.238  -7.905  10.252  0.00  0.00    -0.150 OA
BRANCH   1  31
ATOM     31  C   UNL     1      -6.212  -9.181   8.204  0.00  0.00    +0.109 A 
ATOM     32  C   UNL     1      -7.333  -8.380   7.986  0.00  0.00    +0.032 A 
ATOM     33  C   UNL     1      -5.661  -9.913   7.152  0.00  0.00    +0.032 A 
ATOM     34  C   UNL     1      -7.904  -8.311   6.714  0.00  0.00    +0.047 A 
ATOM     35  C   UNL     1      -6.231  -9.843   5.881  0.00  0.00    +0.047 A 
ATOM     36  C   UNL     1      -7.353  -9.044   5.662  0.00  0.00    +0.120 A 
BRANCH  36   5
ATOM      5  O   UNL     1      -7.910  -8.977   4.422  0.00  0.00    -0.495 OA
ATOM     37  C   UNL     1      -7.693 -10.087   3.552  0.00  0.00    +0.277 C 
ENDBRANCH  36   5
ENDBRANCH   1  31
ENDBRANCH   8   1
ENDBRANCH  21   8
BRANCH   6  17
ATOM     17  C   UNL     1      -5.058 -14.356  15.331  0.00  0.00    +0.121 C 
BRANCH  17  20
ATOM      9  N   UNL     1      -6.852 -11.156  15.605  0.00  0.00    -0.349 N 
ATOM     20  C   UNL     1      -5.689 -13.044  15.710  0.00  0.00    -0.008 A 
ATOM     23  C   UNL     1      -5.587 -12.386  16.968  0.00  0.00    +0.004 A 
ATOM     24  C   UNL     1      -6.474 -12.262  14.892  0.00  0.00    +0.091 A 
ATOM     25  C   UNL     1      -6.325 -11.205  16.875  0.00  0.00    +0.049 A 
ATOM     26  C   UNL     1      -4.934 -12.684  18.181  0.00  0.00    +0.010 A 
ATOM     27  C   UNL     1      -6.444 -10.303  17.938  0.00  0.00    +0.026 A 
ATOM     28  C   UNL     1      -7.688 -10.096  15.082  0.00  0.00    +0.149 C 
ATOM     29  C   UNL     1      -5.043 -11.792  19.253  0.00  0.00    +0.001 A 
ATOM     30  C   UNL     1      -5.788 -10.620  19.131  0.00  0.00    +0.002 A 
ENDBRANCH  17  20
ENDBRANCH   6  17
TORSDOF 6
ENDMDL
