MODEL 1
REMARK VINA RESULT:      -7.3      0.000      0.000
REMARK  Name = 38029393
REMARK  12 active torsions:
REMARK  status: ('A' for Active; 'I' for Inactive)
REMARK    1  A    between atoms: N_3  and  C_13
REMARK    2  A    between atoms: N_4  and  C_20
REMARK    3  A    between atoms: C_6  and  C_10
REMARK    4  A    between atoms: C_7  and  C_13
REMARK    5  A    between atoms: C_9  and  C_14
REMARK    6  A    between atoms: C_10  and  C_15
REMARK    7  A    between atoms: C_10  and  C_16
REMARK    8  A    between atoms: C_11  and  C_17
REMARK    9  A    between atoms: C_14  and  C_18
REMARK   10  A    between atoms: C_19  and  C_21
REMARK   11  A    between atoms: C_20  and  C_22
REMARK   12  A    between atoms: C_32  and  C_33
REMARK                            x       y       z     vdW  Elec       q    Type
REMARK                         _______ _______ _______ _____ _____    ______ ____
ROOT
ATOM      6  C   UNL     1      -5.174 -10.522  10.809  0.00  0.00    +0.000 C 
ATOM      7  C   UNL     1      -4.617  -9.579   9.713  0.00  0.00    +0.032 C 
ATOM      8  C   UNL     1      -4.623 -10.127  12.187  0.00  0.00    +0.012 C 
ATOM      9  C   UNL     1      -3.083 -10.179  12.236  0.00  0.00    +0.023 C 
ATOM     11  C   UNL     1      -2.459  -9.495  11.036  0.00  0.00    -0.073 C 
ATOM     12  C   UNL     1      -3.163  -9.222   9.923  0.00  0.00    -0.022 C 
ATOM     17  C   UNL     1      -1.016  -9.090  11.162  0.00  0.00    +0.039 C 
ENDROOT
BRANCH   6  10
ATOM     10  C   UNL     1      -6.706 -10.512  10.841  0.00  0.00    -0.013 C 
ATOM     15  C   UNL     1      -7.227  -9.082  10.944  0.00  0.00    +0.007 C 
ATOM     16  C   UNL     1      -7.217 -11.360  12.001  0.00  0.00    +0.007 C 
ENDBRANCH   6  10
BRANCH   7  13
ATOM     13  C   UNL     1      -4.798 -10.184   8.317  0.00  0.00    +0.112 C 
BRANCH  13   3
ATOM      2  O   UNL     1      -5.625 -10.695   5.615  0.00  0.00    -0.270 OA
ATOM      3  N   UNL     1      -5.805  -9.482   7.586  0.00  0.00    -0.311 N 
ATOM     19  C   UNL     1      -6.146  -9.796   6.271  0.00  0.00    +0.244 C 
ATOM     34  H   UNL     1      -6.274  -8.719   8.063  0.00  0.00    +0.149 HD
BRANCH  19  21
ATOM     21  C   UNL     1      -7.196  -8.954   5.641  0.00  0.00    +0.037 A 
ATOM     23  C   UNL     1      -7.902  -8.028   6.409  0.00  0.00    +0.013 A 
ATOM     24  C   UNL     1      -7.477  -9.092   4.283  0.00  0.00    +0.013 A 
ATOM     27  C   UNL     1      -8.889  -7.239   5.818  0.00  0.00    +0.001 A 
ATOM     28  C   UNL     1      -8.463  -8.302   3.690  0.00  0.00    +0.001 A 
ATOM     29  C   UNL     1      -9.169  -7.376   4.458  0.00  0.00    +0.000 A 
ENDBRANCH  19  21
ENDBRANCH  13   3
ENDBRANCH   7  13
BRANCH   9  14
ATOM     14  C   UNL     1      -2.583 -11.622  12.365  0.00  0.00    +0.103 C 
BRANCH  14  18
ATOM      1  O   UNL     1      -1.994 -13.127  14.166  0.00  0.00    -0.276 OA
ATOM      4  N   UNL     1      -2.345 -10.876  14.625  0.00  0.00    -0.311 N 
ATOM     18  C   UNL     1      -2.272 -11.988  13.799  0.00  0.00    +0.214 C 
ATOM     35  H   UNL     1      -2.580  -9.971  14.227  0.00  0.00    +0.149 HD
BRANCH   4  20
ATOM     20  C   UNL     1      -2.097 -10.930  16.047  0.00  0.00    +0.139 C 
BRANCH  20  22
ATOM     22  C   UNL     1      -3.372 -10.928  16.840  0.00  0.00    -0.030 A 
ATOM     25  C   UNL     1      -4.503 -10.282  16.340  0.00  0.00    +0.006 A 
ATOM     26  C   UNL     1      -3.425 -11.572  18.076  0.00  0.00    +0.006 A 
ATOM     30  C   UNL     1      -5.687 -10.279  17.077  0.00  0.00    +0.019 A 
ATOM     31  C   UNL     1      -4.610 -11.570  18.812  0.00  0.00    +0.019 A 
ATOM     32  C   UNL     1      -5.740 -10.924  18.313  0.00  0.00    +0.052 A 
BRANCH  32  33
ATOM      5  N   UNL     1      -7.940 -10.918  19.680  0.00  0.00    -0.191 NA
ATOM     33  C   UNL     1      -6.954 -10.921  19.068  0.00  0.00    +0.099 C 
ENDBRANCH  32  33
ENDBRANCH  20  22
ENDBRANCH   4  20
ENDBRANCH  14  18
ENDBRANCH   9  14
TORSDOF 9
ENDMDL
MODEL 2
REMARK VINA RESULT:      -7.3      3.156      9.159
REMARK  Name = 38029393
REMARK  12 active torsions:
REMARK  status: ('A' for Active; 'I' for Inactive)
REMARK    1  A    between atoms: N_3  and  C_13
REMARK    2  A    between atoms: N_4  and  C_20
REMARK    3  A    between atoms: C_6  and  C_10
REMARK    4  A    between atoms: C_7  and  C_13
REMARK    5  A    between atoms: C_9  and  C_14
REMARK    6  A    between atoms: C_10  and  C_15
REMARK    7  A    between atoms: C_10  and  C_16
REMARK    8  A    between atoms: C_11  and  C_17
REMARK    9  A    between atoms: C_14  and  C_18
REMARK   10  A    between atoms: C_19  and  C_21
REMARK   11  A    between atoms: C_20  and  C_22
REMARK   12  A    between atoms: C_32  and  C_33
REMARK                            x       y       z     vdW  Elec       q    Type
REMARK                         _______ _______ _______ _____ _____    ______ ____
ROOT
ATOM      6  C   UNL     1      -6.022 -10.404  15.373  0.00  0.00    +0.000 C 
ATOM      7  C   UNL     1      -6.814 -10.484  16.702  0.00  0.00    +0.032 C 
ATOM      8  C   UNL     1      -5.048 -11.586  15.258  0.00  0.00    +0.012 C 
ATOM      9  C   UNL     1      -4.041 -11.626  16.424  0.00  0.00    +0.023 C 
ATOM     11  C   UNL     1      -4.724 -11.439  17.764  0.00  0.00    -0.073 C 
ATOM     12  C   UNL     1      -5.968 -10.941  17.868  0.00  0.00    -0.022 C 
ATOM     17  C   UNL     1      -3.960 -11.883  18.981  0.00  0.00    +0.039 C 
ENDROOT
BRANCH   6  10
ATOM     10  C   UNL     1      -6.954 -10.381  14.157  0.00  0.00    -0.013 C 
ATOM     15  C   UNL     1      -7.383 -11.798  13.788  0.00  0.00    +0.007 C 
ATOM     16  C   UNL     1      -6.271  -9.698  12.977  0.00  0.00    +0.007 C 
ENDBRANCH   6  10
BRANCH   7  13
ATOM     13  C   UNL     1      -7.465  -9.138  17.040  0.00  0.00    +0.112 C 
BRANCH  13   3
ATOM      2  O   UNL     1     -10.133  -9.413  16.017  0.00  0.00    -0.270 OA
ATOM      3  N   UNL     1      -8.656  -9.328  17.805  0.00  0.00    -0.311 N 
ATOM     19  C   UNL     1      -9.918  -9.452  17.226  0.00  0.00    +0.244 C 
ATOM     34  H   UNL     1      -8.556  -9.363  18.814  0.00  0.00    +0.149 HD
BRANCH  19  21
ATOM     21  C   UNL     1     -11.061  -9.620  18.161  0.00  0.00    +0.037 A 
ATOM     23  C   UNL     1     -12.364  -9.397  17.717  0.00  0.00    +0.013 A 
ATOM     24  C   UNL     1     -10.829  -9.998  19.482  0.00  0.00    +0.013 A 
ATOM     27  C   UNL     1     -13.437  -9.553  18.596  0.00  0.00    +0.001 A 
ATOM     28  C   UNL     1     -11.902 -10.156  20.361  0.00  0.00    +0.001 A 
ATOM     29  C   UNL     1     -13.206  -9.933  19.918  0.00  0.00    +0.000 A 
ENDBRANCH  19  21
ENDBRANCH  13   3
ENDBRANCH   7  13
BRANCH   9  14
ATOM     14  C   UNL     1      -2.927 -10.592  16.228  0.00  0.00    +0.103 C 
BRANCH  14  18
ATOM      1  O   UNL     1      -1.126 -11.764  15.115  0.00  0.00    -0.276 OA
ATOM      4  N   UNL     1      -2.372 -10.196  13.936  0.00  0.00    -0.311 N 
ATOM     18  C   UNL     1      -2.032 -10.936  15.059  0.00  0.00    +0.214 C 
ATOM     35  H   UNL     1      -3.143  -9.535  13.986  0.00  0.00    +0.149 HD
BRANCH   4  20
ATOM     20  C   UNL     1      -1.683 -10.317  12.673  0.00  0.00    +0.139 C 
BRANCH  20  22
ATOM     22  C   UNL     1      -2.637 -10.353  11.513  0.00  0.00    -0.030 A 
ATOM     25  C   UNL     1      -3.407 -11.494  11.280  0.00  0.00    +0.006 A 
ATOM     26  C   UNL     1      -2.754  -9.248  10.671  0.00  0.00    +0.006 A 
ATOM     30  C   UNL     1      -4.292 -11.527  10.203  0.00  0.00    +0.019 A 
ATOM     31  C   UNL     1      -3.640  -9.282   9.595  0.00  0.00    +0.019 A 
ATOM     32  C   UNL     1      -4.410 -10.422   9.361  0.00  0.00    +0.052 A 
BRANCH  32  33
ATOM      5  N   UNL     1      -6.056 -10.486   7.363  0.00  0.00    -0.191 NA
ATOM     33  C   UNL     1      -5.318 -10.457   8.258  0.00  0.00    +0.099 C 
ENDBRANCH  32  33
ENDBRANCH  20  22
ENDBRANCH   4  20
ENDBRANCH  14  18
ENDBRANCH   9  14
TORSDOF 9
ENDMDL
MODEL 3
REMARK VINA RESULT:      -7.1     26.388     30.184
REMARK  Name = 38029393
REMARK  12 active torsions:
REMARK  status: ('A' for Active; 'I' for Inactive)
REMARK    1  A    between atoms: N_3  and  C_13
REMARK    2  A    between atoms: N_4  and  C_20
REMARK    3  A    between atoms: C_6  and  C_10
REMARK    4  A    between atoms: C_7  and  C_13
REMARK    5  A    between atoms: C_9  and  C_14
REMARK    6  A    between atoms: C_10  and  C_15
REMARK    7  A    between atoms: C_10  and  C_16
REMARK    8  A    between atoms: C_11  and  C_17
REMARK    9  A    between atoms: C_14  and  C_18
REMARK   10  A    between atoms: C_19  and  C_21
REMARK   11  A    between atoms: C_20  and  C_22
REMARK   12  A    between atoms: C_32  and  C_33
REMARK                            x       y       z     vdW  Elec       q    Type
REMARK                         _______ _______ _______ _____ _____    ______ ____
ROOT
ATOM      6  C   UNL     1      13.707  11.119  21.181  0.00  0.00    +0.000 C 
ATOM      7  C   UNL     1      14.080  11.956  22.429  0.00  0.00    +0.032 C 
ATOM      8  C   UNL     1      12.182  11.063  21.008  0.00  0.00    +0.012 C 
ATOM      9  C   UNL     1      11.479  10.450  22.234  0.00  0.00    +0.023 C 
ATOM     11  C   UNL     1      11.992  11.041  23.532  0.00  0.00    -0.073 C 
ATOM     12  C   UNL     1      13.149  11.723  23.597  0.00  0.00    -0.022 C 
ATOM     17  C   UNL     1      11.121  10.870  24.745  0.00  0.00    +0.039 C 
ENDROOT
BRANCH   6  10
ATOM     10  C   UNL     1      14.352  11.678  19.908  0.00  0.00    -0.013 C 
ATOM     15  C   UNL     1      15.134  12.950  20.222  0.00  0.00    +0.007 C 
ATOM     16  C   UNL     1      13.290  11.944  18.847  0.00  0.00    +0.007 C 
ENDBRANCH   6  10
BRANCH   7  13
ATOM     13  C   UNL     1      15.525  11.687  22.865  0.00  0.00    +0.112 C 
BRANCH  13   3
ATOM      2  O   UNL     1      18.010  11.100  21.554  0.00  0.00    -0.270 OA
ATOM      3  N   UNL     1      15.964  10.409  22.403  0.00  0.00    -0.311 N 
ATOM     19  C   UNL     1      17.192  10.210  21.773  0.00  0.00    +0.244 C 
ATOM     34  H   UNL     1      15.334   9.626  22.542  0.00  0.00    +0.149 HD
BRANCH  19  21
ATOM     21  C   UNL     1      17.490   8.825  21.327  0.00  0.00    +0.037 A 
ATOM     23  C   UNL     1      18.718   8.241  21.637  0.00  0.00    +0.013 A 
ATOM     24  C   UNL     1      16.542   8.109  20.597  0.00  0.00    +0.013 A 
ATOM     27  C   UNL     1      18.998   6.940  21.218  0.00  0.00    +0.001 A 
ATOM     28  C   UNL     1      16.822   6.808  20.178  0.00  0.00    +0.001 A 
ATOM     29  C   UNL     1      18.050   6.223  20.488  0.00  0.00    +0.000 A 
ENDBRANCH  19  21
ENDBRANCH  13   3
ENDBRANCH   7  13
BRANCH   9  14
ATOM     14  C   UNL     1      11.609   8.923  22.239  0.00  0.00    +0.103 C 
BRANCH  14  18
ATOM      1  O   UNL     1      10.359   8.397  20.234  0.00  0.00    -0.276 OA
ATOM      4  N   UNL     1      12.575   7.718  20.413  0.00  0.00    -0.311 N 
ATOM     18  C   UNL     1      11.414   8.332  20.860  0.00  0.00    +0.214 C 
ATOM     35  H   UNL     1      13.402   7.719  21.004  0.00  0.00    +0.149 HD
BRANCH   4  20
ATOM     20  C   UNL     1      12.678   7.066  19.128  0.00  0.00    +0.139 C 
BRANCH  20  22
ATOM     22  C   UNL     1      12.932   8.047  18.020  0.00  0.00    -0.030 A 
ATOM     25  C   UNL     1      11.876   8.480  17.217  0.00  0.00    +0.006 A 
ATOM     26  C   UNL     1      14.222   8.526  17.794  0.00  0.00    +0.006 A 
ATOM     30  C   UNL     1      12.112   9.391  16.188  0.00  0.00    +0.019 A 
ATOM     31  C   UNL     1      14.457   9.437  16.764  0.00  0.00    +0.019 A 
ATOM     32  C   UNL     1      13.402   9.869  15.961  0.00  0.00    +0.052 A 
BRANCH  32  33
ATOM      5  N   UNL     1      13.838  11.562  14.050  0.00  0.00    -0.191 NA
ATOM     33  C   UNL     1      13.643  10.803  14.906  0.00  0.00    +0.099 C 
ENDBRANCH  32  33
ENDBRANCH  20  22
ENDBRANCH   4  20
ENDBRANCH  14  18
ENDBRANCH   9  14
TORSDOF 9
ENDMDL
MODEL 4
REMARK VINA RESULT:      -7.0      3.507      7.261
REMARK  Name = 38029393
REMARK  12 active torsions:
REMARK  status: ('A' for Active; 'I' for Inactive)
REMARK    1  A    between atoms: N_3  and  C_13
REMARK    2  A    between atoms: N_4  and  C_20
REMARK    3  A    between atoms: C_6  and  C_10
REMARK    4  A    between atoms: C_7  and  C_13
REMARK    5  A    between atoms: C_9  and  C_14
REMARK    6  A    between atoms: C_10  and  C_15
REMARK    7  A    between atoms: C_10  and  C_16
REMARK    8  A    between atoms: C_11  and  C_17
REMARK    9  A    between atoms: C_14  and  C_18
REMARK   10  A    between atoms: C_19  and  C_21
REMARK   11  A    between atoms: C_20  and  C_22
REMARK   12  A    between atoms: C_32  and  C_33
REMARK                            x       y       z     vdW  Elec       q    Type
REMARK                         _______ _______ _______ _____ _____    ______ ____
ROOT
ATOM      6  C   UNL     1      -3.047 -12.247  12.621  0.00  0.00    +0.000 C 
ATOM      7  C   UNL     1      -2.008 -11.101  12.529  0.00  0.00    +0.032 C 
ATOM      8  C   UNL     1      -3.591 -12.590  11.226  0.00  0.00    +0.012 C 
ATOM      9  C   UNL     1      -4.260 -11.380  10.547  0.00  0.00    +0.023 C 
ATOM     11  C   UNL     1      -3.406 -10.132  10.652  0.00  0.00    -0.073 C 
ATOM     12  C   UNL     1      -2.395 -10.031  11.533  0.00  0.00    -0.022 C 
ATOM     17  C   UNL     1      -3.710  -9.020   9.688  0.00  0.00    +0.039 C 
ENDROOT
BRANCH   6  10
ATOM     10  C   UNL     1      -2.452 -13.502  13.268  0.00  0.00    -0.013 C 
ATOM     15  C   UNL     1      -2.356 -14.632  12.249  0.00  0.00    +0.007 C 
ATOM     16  C   UNL     1      -3.289 -13.927  14.470  0.00  0.00    +0.007 C 
ENDBRANCH   6  10
BRANCH   7  13
ATOM     13  C   UNL     1      -1.768 -10.460  13.900  0.00  0.00    +0.112 C 
BRANCH  13   3
ATOM      2  O   UNL     1      -2.239 -11.008  16.679  0.00  0.00    -0.270 OA
ATOM      3  N   UNL     1      -3.000 -10.295  14.605  0.00  0.00    -0.311 N 
ATOM     19  C   UNL     1      -3.143 -10.586  15.961  0.00  0.00    +0.244 C 
ATOM     34  H   UNL     1      -3.794  -9.957  14.073  0.00  0.00    +0.149 HD
BRANCH  19  21
ATOM     21  C   UNL     1      -4.496 -10.385  16.542  0.00  0.00    +0.037 A 
ATOM     23  C   UNL     1      -5.543  -9.942  15.734  0.00  0.00    +0.013 A 
ATOM     24  C   UNL     1      -4.717 -10.638  17.895  0.00  0.00    +0.013 A 
ATOM     27  C   UNL     1      -6.813  -9.753  16.280  0.00  0.00    +0.001 A 
ATOM     28  C   UNL     1      -5.987 -10.449  18.441  0.00  0.00    +0.001 A 
ATOM     29  C   UNL     1      -7.035 -10.006  17.633  0.00  0.00    +0.000 A 
ENDBRANCH  19  21
ENDBRANCH  13   3
ENDBRANCH   7  13
BRANCH   9  14
ATOM     14  C   UNL     1      -5.662 -11.132  11.116  0.00  0.00    +0.103 C 
BRANCH  14  18
ATOM      1  O   UNL     1      -6.704 -13.223  10.485  0.00  0.00    -0.276 OA
ATOM      4  N   UNL     1      -6.705 -12.571  12.716  0.00  0.00    -0.311 N 
ATOM     18  C   UNL     1      -6.408 -12.423  11.369  0.00  0.00    +0.214 C 
ATOM     35  H   UNL     1      -6.413 -11.854  13.375  0.00  0.00    +0.149 HD
BRANCH   4  20
ATOM     20  C   UNL     1      -7.415 -13.711  13.247  0.00  0.00    +0.139 C 
BRANCH  20  22
ATOM     22  C   UNL     1      -7.631 -13.598  14.728  0.00  0.00    -0.030 A 
ATOM     25  C   UNL     1      -8.878 -13.212  15.223  0.00  0.00    +0.006 A 
ATOM     26  C   UNL     1      -6.588 -13.880  15.609  0.00  0.00    +0.006 A 
ATOM     30  C   UNL     1      -9.078 -13.107  16.599  0.00  0.00    +0.019 A 
ATOM     31  C   UNL     1      -6.789 -13.775  16.985  0.00  0.00    +0.019 A 
ATOM     32  C   UNL     1      -8.035 -13.388  17.480  0.00  0.00    +0.052 A 
BRANCH  32  33
ATOM      5  N   UNL     1      -8.409 -13.193  20.035  0.00  0.00    -0.191 NA
ATOM     33  C   UNL     1      -8.242 -13.281  18.891  0.00  0.00    +0.099 C 
ENDBRANCH  32  33
ENDBRANCH  20  22
ENDBRANCH   4  20
ENDBRANCH  14  18
ENDBRANCH   9  14
TORSDOF 9
ENDMDL
MODEL 5
REMARK VINA RESULT:      -7.0     22.666     26.767
REMARK  Name = 38029393
REMARK  12 active torsions:
REMARK  status: ('A' for Active; 'I' for Inactive)
REMARK    1  A    between atoms: N_3  and  C_13
REMARK    2  A    between atoms: N_4  and  C_20
REMARK    3  A    between atoms: C_6  and  C_10
REMARK    4  A    between atoms: C_7  and  C_13
REMARK    5  A    between atoms: C_9  and  C_14
REMARK    6  A    between atoms: C_10  and  C_15
REMARK    7  A    between atoms: C_10  and  C_16
REMARK    8  A    between atoms: C_11  and  C_17
REMARK    9  A    between atoms: C_14  and  C_18
REMARK   10  A    between atoms: C_19  and  C_21
REMARK   11  A    between atoms: C_20  and  C_22
REMARK   12  A    between atoms: C_32  and  C_33
REMARK                            x       y       z     vdW  Elec       q    Type
REMARK                         _______ _______ _______ _____ _____    ______ ____
ROOT
ATOM      6  C   UNL     1       8.850   8.547   5.225  0.00  0.00    +0.000 C 
ATOM      7  C   UNL     1       8.794   8.012   6.678  0.00  0.00    +0.032 C 
ATOM      8  C   UNL     1       8.331   7.486   4.243  0.00  0.00    +0.012 C 
ATOM      9  C   UNL     1       9.145   6.180   4.312  0.00  0.00    +0.023 C 
ATOM     11  C   UNL     1       9.364   5.729   5.743  0.00  0.00    -0.073 C 
ATOM     12  C   UNL     1       9.189   6.557   6.788  0.00  0.00    -0.022 C 
ATOM     17  C   UNL     1       9.744   4.288   5.948  0.00  0.00    +0.039 C 
ENDROOT
BRANCH   6  10
ATOM     10  C   UNL     1       8.044   9.840   5.064  0.00  0.00    -0.013 C 
ATOM     15  C   UNL     1       6.937   9.653   4.031  0.00  0.00    +0.007 C 
ATOM     16  C   UNL     1       8.962  10.993   4.671  0.00  0.00    +0.007 C 
ENDBRANCH   6  10
BRANCH   7  13
ATOM     13  C   UNL     1       9.675   8.852   7.610  0.00  0.00    +0.112 C 
BRANCH  13   3
ATOM      2  O   UNL     1      11.614  10.845   6.900  0.00  0.00    -0.270 OA
ATOM      3  N   UNL     1      11.059   8.634   7.334  0.00  0.00    -0.311 N 
ATOM     19  C   UNL     1      11.936   9.664   6.994  0.00  0.00    +0.244 C 
ATOM     34  H   UNL     1      11.395   7.678   7.384  0.00  0.00    +0.149 HD
BRANCH  19  21
ATOM     21  C   UNL     1      13.340   9.269   6.711  0.00  0.00    +0.037 A 
ATOM     23  C   UNL     1      14.321  10.247   6.549  0.00  0.00    +0.013 A 
ATOM     24  C   UNL     1      13.677   7.920   6.606  0.00  0.00    +0.013 A 
ATOM     27  C   UNL     1      15.640   9.876   6.282  0.00  0.00    +0.001 A 
ATOM     28  C   UNL     1      14.995   7.548   6.339  0.00  0.00    +0.001 A 
ATOM     29  C   UNL     1      15.977   8.527   6.177  0.00  0.00    +0.000 A 
ENDBRANCH  19  21
ENDBRANCH  13   3
ENDBRANCH   7  13
BRANCH   9  14
ATOM     14  C   UNL     1      10.479   6.320   3.572  0.00  0.00    +0.103 C 
BRANCH  14  18
ATOM      1  O   UNL     1      10.020   5.259   1.446  0.00  0.00    -0.276 OA
ATOM      4  N   UNL     1      11.597   4.324   2.875  0.00  0.00    -0.311 N 
ATOM     18  C   UNL     1      10.649   5.265   2.502  0.00  0.00    +0.214 C 
ATOM     35  H   UNL     1      12.069   4.417   3.771  0.00  0.00    +0.149 HD
BRANCH   4  20
ATOM     20  C   UNL     1      11.962   3.200   2.046  0.00  0.00    +0.139 C 
BRANCH  20  22
ATOM     22  C   UNL     1      13.154   3.502   1.183  0.00  0.00    -0.030 A 
ATOM     25  C   UNL     1      14.431   3.533   1.744  0.00  0.00    +0.006 A 
ATOM     26  C   UNL     1      12.984   3.750  -0.179  0.00  0.00    +0.006 A 
ATOM     30  C   UNL     1      15.537   3.814   0.943  0.00  0.00    +0.019 A 
ATOM     31  C   UNL     1      14.090   4.030  -0.980  0.00  0.00    +0.019 A 
ATOM     32  C   UNL     1      15.367   4.062  -0.419  0.00  0.00    +0.052 A 
BRANCH  32  33
ATOM      5  N   UNL     1      17.422   4.582  -1.907  0.00  0.00    -0.191 NA
ATOM     33  C   UNL     1      16.502   4.349  -1.240  0.00  0.00    +0.099 C 
ENDBRANCH  32  33
ENDBRANCH  20  22
ENDBRANCH   4  20
ENDBRANCH  14  18
ENDBRANCH   9  14
TORSDOF 9
ENDMDL
MODEL 6
REMARK VINA RESULT:      -7.0      2.782      9.976
REMARK  Name = 38029393
REMARK  12 active torsions:
REMARK  status: ('A' for Active; 'I' for Inactive)
REMARK    1  A    between atoms: N_3  and  C_13
REMARK    2  A    between atoms: N_4  and  C_20
REMARK    3  A    between atoms: C_6  and  C_10
REMARK    4  A    between atoms: C_7  and  C_13
REMARK    5  A    between atoms: C_9  and  C_14
REMARK    6  A    between atoms: C_10  and  C_15
REMARK    7  A    between atoms: C_10  and  C_16
REMARK    8  A    between atoms: C_11  and  C_17
REMARK    9  A    between atoms: C_14  and  C_18
REMARK   10  A    between atoms: C_19  and  C_21
REMARK   11  A    between atoms: C_20  and  C_22
REMARK   12  A    between atoms: C_32  and  C_33
REMARK                            x       y       z     vdW  Elec       q    Type
REMARK                         _______ _______ _______ _____ _____    ______ ____
ROOT
ATOM      6  C   UNL     1      -2.868 -12.596  12.736  0.00  0.00    +0.000 C 
ATOM      7  C   UNL     1      -1.861 -11.420  12.764  0.00  0.00    +0.032 C 
ATOM      8  C   UNL     1      -3.309 -12.891  11.294  0.00  0.00    +0.012 C 
ATOM      9  C   UNL     1      -3.967 -11.669  10.625  0.00  0.00    +0.023 C 
ATOM     11  C   UNL     1      -3.159 -10.405  10.842  0.00  0.00    -0.073 C 
ATOM     12  C   UNL     1      -2.213 -10.317  11.793  0.00  0.00    -0.022 C 
ATOM     17  C   UNL     1      -3.432  -9.259   9.908  0.00  0.00    +0.039 C 
ENDROOT
BRANCH   6  10
ATOM     10  C   UNL     1      -2.281 -13.863  13.367  0.00  0.00    -0.013 C 
ATOM     15  C   UNL     1      -2.190 -14.980  12.332  0.00  0.00    +0.007 C 
ATOM     16  C   UNL     1      -3.121 -14.300  14.563  0.00  0.00    +0.007 C 
ENDBRANCH   6  10
BRANCH   7  13
ATOM     13  C   UNL     1      -1.732 -10.836  14.176  0.00  0.00    +0.112 C 
BRANCH  13   3
ATOM      2  O   UNL     1      -2.412 -10.909  16.964  0.00  0.00    -0.270 OA
ATOM      3  N   UNL     1      -3.020 -10.598  14.746  0.00  0.00    -0.311 N 
ATOM     19  C   UNL     1      -3.265 -10.654  16.117  0.00  0.00    +0.244 C 
ATOM     34  H   UNL     1      -3.777 -10.388  14.104  0.00  0.00    +0.149 HD
BRANCH  19  21
ATOM     21  C   UNL     1      -4.665 -10.406  16.549  0.00  0.00    +0.037 A 
ATOM     23  C   UNL     1      -5.606  -9.939  15.633  0.00  0.00    +0.013 A 
ATOM     24  C   UNL     1      -5.037 -10.640  17.873  0.00  0.00    +0.013 A 
ATOM     27  C   UNL     1      -6.921  -9.706  16.039  0.00  0.00    +0.001 A 
ATOM     28  C   UNL     1      -6.351 -10.408  18.280  0.00  0.00    +0.001 A 
ATOM     29  C   UNL     1      -7.293  -9.941  17.363  0.00  0.00    +0.000 A 
ENDBRANCH  19  21
ENDBRANCH  13   3
ENDBRANCH   7  13
BRANCH   9  14
ATOM     14  C   UNL     1      -5.410 -11.486  11.108  0.00  0.00    +0.103 C 
BRANCH  14  18
ATOM      1  O   UNL     1      -7.478 -10.768  10.075  0.00  0.00    -0.276 OA
ATOM      4  N   UNL     1      -5.843 -11.788   8.776  0.00  0.00    -0.311 N 
ATOM     18  C   UNL     1      -6.373 -11.294   9.958  0.00  0.00    +0.214 C 
ATOM     35  H   UNL     1      -4.915 -12.204   8.778  0.00  0.00    +0.149 HD
BRANCH   4  20
ATOM     20  C   UNL     1      -6.545 -11.741   7.515  0.00  0.00    +0.139 C 
BRANCH  20  22
ATOM     22  C   UNL     1      -5.623 -11.959   6.349  0.00  0.00    -0.030 A 
ATOM     25  C   UNL     1      -4.274 -12.238   6.571  0.00  0.00    +0.006 A 
ATOM     26  C   UNL     1      -6.116 -11.884   5.047  0.00  0.00    +0.006 A 
ATOM     30  C   UNL     1      -3.418 -12.440   5.488  0.00  0.00    +0.019 A 
ATOM     31  C   UNL     1      -5.260 -12.087   3.965  0.00  0.00    +0.019 A 
ATOM     32  C   UNL     1      -3.911 -12.365   4.186  0.00  0.00    +0.052 A 
BRANCH  32  33
ATOM      5  N   UNL     1      -2.320 -12.742   2.177  0.00  0.00    -0.191 NA
ATOM     33  C   UNL     1      -3.033 -12.573   3.077  0.00  0.00    +0.099 C 
ENDBRANCH  32  33
ENDBRANCH  20  22
ENDBRANCH   4  20
ENDBRANCH  14  18
ENDBRANCH   9  14
TORSDOF 9
ENDMDL
MODEL 7
REMARK VINA RESULT:      -6.9     23.253     27.099
REMARK  Name = 38029393
REMARK  12 active torsions:
REMARK  status: ('A' for Active; 'I' for Inactive)
REMARK    1  A    between atoms: N_3  and  C_13
REMARK    2  A    between atoms: N_4  and  C_20
REMARK    3  A    between atoms: C_6  and  C_10
REMARK    4  A    between atoms: C_7  and  C_13
REMARK    5  A    between atoms: C_9  and  C_14
REMARK    6  A    between atoms: C_10  and  C_15
REMARK    7  A    between atoms: C_10  and  C_16
REMARK    8  A    between atoms: C_11  and  C_17
REMARK    9  A    between atoms: C_14  and  C_18
REMARK   10  A    between atoms: C_19  and  C_21
REMARK   11  A    between atoms: C_20  and  C_22
REMARK   12  A    between atoms: C_32  and  C_33
REMARK                            x       y       z     vdW  Elec       q    Type
REMARK                         _______ _______ _______ _____ _____    ______ ____
ROOT
ATOM      6  C   UNL     1       9.281   8.200   5.600  0.00  0.00    +0.000 C 
ATOM      7  C   UNL     1       8.993   8.790   7.003  0.00  0.00    +0.032 C 
ATOM      8  C   UNL     1       8.587   6.839   5.438  0.00  0.00    +0.012 C 
ATOM      9  C   UNL     1       9.047   5.821   6.499  0.00  0.00    +0.023 C 
ATOM     11  C   UNL     1       9.046   6.420   7.891  0.00  0.00    -0.073 C 
ATOM     12  C   UNL     1       9.008   7.748   8.097  0.00  0.00    -0.022 C 
ATOM     17  C   UNL     1       9.044   5.454   9.044  0.00  0.00    +0.039 C 
ENDROOT
BRANCH   6  10
ATOM     10  C   UNL     1       8.832   9.146   4.482  0.00  0.00    -0.013 C 
ATOM     15  C   UNL     1       7.429   9.676   4.764  0.00  0.00    +0.007 C 
ATOM     16  C   UNL     1       8.881   8.436   3.133  0.00  0.00    +0.007 C 
ENDBRANCH   6  10
BRANCH   7  13
ATOM     13  C   UNL     1       9.985   9.907   7.347  0.00  0.00    +0.112 C 
BRANCH  13   3
ATOM      2  O   UNL     1      12.094  11.270   5.956  0.00  0.00    -0.270 OA
ATOM      3  N   UNL     1      11.331   9.457   7.188  0.00  0.00    -0.311 N 
ATOM     19  C   UNL     1      12.297  10.184   6.493  0.00  0.00    +0.244 C 
ATOM     34  H   UNL     1      11.570   8.561   7.599  0.00  0.00    +0.149 HD
BRANCH  19  21
ATOM     21  C   UNL     1      13.645   9.567   6.395  0.00  0.00    +0.037 A 
ATOM     23  C   UNL     1      13.781   8.179   6.419  0.00  0.00    +0.013 A 
ATOM     24  C   UNL     1      14.775  10.376   6.280  0.00  0.00    +0.013 A 
ATOM     27  C   UNL     1      15.047   7.600   6.328  0.00  0.00    +0.001 A 
ATOM     28  C   UNL     1      16.041   9.797   6.188  0.00  0.00    +0.001 A 
ATOM     29  C   UNL     1      16.177   8.409   6.212  0.00  0.00    +0.000 A 
ENDBRANCH  19  21
ENDBRANCH  13   3
ENDBRANCH   7  13
BRANCH   9  14
ATOM     14  C   UNL     1      10.423   5.244   6.152  0.00  0.00    +0.103 C 
BRANCH  14  18
ATOM      1  O   UNL     1       9.993   4.605   3.857  0.00  0.00    -0.276 OA
ATOM      4  N   UNL     1      11.768   6.028   4.336  0.00  0.00    -0.311 N 
ATOM     18  C   UNL     1      10.676   5.236   4.661  0.00  0.00    +0.214 C 
ATOM     35  H   UNL     1      12.269   6.516   5.073  0.00  0.00    +0.149 HD
BRANCH   4  20
ATOM     20  C   UNL     1      12.240   6.204   2.983  0.00  0.00    +0.139 C 
BRANCH  20  22
ATOM     22  C   UNL     1      13.170   7.377   2.860  0.00  0.00    -0.030 A 
ATOM     25  C   UNL     1      12.662   8.676   2.899  0.00  0.00    +0.006 A 
ATOM     26  C   UNL     1      14.540   7.168   2.710  0.00  0.00    +0.006 A 
ATOM     30  C   UNL     1      13.526   9.765   2.785  0.00  0.00    +0.019 A 
ATOM     31  C   UNL     1      15.403   8.258   2.597  0.00  0.00    +0.019 A 
ATOM     32  C   UNL     1      14.896   9.556   2.634  0.00  0.00    +0.052 A 
BRANCH  32  33
ATOM      5  N   UNL     1      16.498  11.580   2.424  0.00  0.00    -0.191 NA
ATOM     33  C   UNL     1      15.781  10.673   2.518  0.00  0.00    +0.099 C 
ENDBRANCH  32  33
ENDBRANCH  20  22
ENDBRANCH   4  20
ENDBRANCH  14  18
ENDBRANCH   9  14
TORSDOF 9
ENDMDL
MODEL 8
REMARK VINA RESULT:      -6.7     20.889     22.518
REMARK  Name = 38029393
REMARK  12 active torsions:
REMARK  status: ('A' for Active; 'I' for Inactive)
REMARK    1  A    between atoms: N_3  and  C_13
REMARK    2  A    between atoms: N_4  and  C_20
REMARK    3  A    between atoms: C_6  and  C_10
REMARK    4  A    between atoms: C_7  and  C_13
REMARK    5  A    between atoms: C_9  and  C_14
REMARK    6  A    between atoms: C_10  and  C_15
REMARK    7  A    between atoms: C_10  and  C_16
REMARK    8  A    between atoms: C_11  and  C_17
REMARK    9  A    between atoms: C_14  and  C_18
REMARK   10  A    between atoms: C_19  and  C_21
REMARK   11  A    between atoms: C_20  and  C_22
REMARK   12  A    between atoms: C_32  and  C_33
REMARK                            x       y       z     vdW  Elec       q    Type
REMARK                         _______ _______ _______ _____ _____    ______ ____
ROOT
ATOM      6  C   UNL     1     -11.644   9.310  18.431  0.00  0.00    +0.000 C 
ATOM      7  C   UNL     1     -10.373   9.763  17.669  0.00  0.00    +0.032 C 
ATOM      8  C   UNL     1     -12.214   8.027  17.807  0.00  0.00    +0.012 C 
ATOM      9  C   UNL     1     -12.576   8.212  16.321  0.00  0.00    +0.023 C 
ATOM     11  C   UNL     1     -11.467   8.903  15.553  0.00  0.00    -0.073 C 
ATOM     12  C   UNL     1     -10.483   9.580  16.173  0.00  0.00    -0.022 C 
ATOM     17  C   UNL     1     -11.488   8.760  14.057  0.00  0.00    +0.039 C 
ENDROOT
BRANCH   6  10
ATOM     10  C   UNL     1     -11.363   9.082  19.920  0.00  0.00    -0.013 C 
ATOM     15  C   UNL     1     -11.345   7.590  20.236  0.00  0.00    +0.007 C 
ATOM     16  C   UNL     1     -12.402   9.803  20.772  0.00  0.00    +0.007 C 
ENDBRANCH   6  10
BRANCH   7  13
ATOM     13  C   UNL     1     -10.034  11.225  17.981  0.00  0.00    +0.112 C 
BRANCH  13   3
ATOM      2  O   UNL     1      -9.309  13.979  17.623  0.00  0.00    -0.270 OA
ATOM      3  N   UNL     1      -9.109  11.746  17.025  0.00  0.00    -0.311 N 
ATOM     19  C   UNL     1      -8.814  13.104  16.917  0.00  0.00    +0.244 C 
ATOM     34  H   UNL     1      -8.666  11.080  16.401  0.00  0.00    +0.149 HD
BRANCH  19  21
ATOM     21  C   UNL     1      -7.850  13.489  15.854  0.00  0.00    +0.037 A 
ATOM     23  C   UNL     1      -6.480  13.484  16.118  0.00  0.00    +0.013 A 
ATOM     24  C   UNL     1      -8.316  13.857  14.592  0.00  0.00    +0.013 A 
ATOM     27  C   UNL     1      -5.576  13.846  15.119  0.00  0.00    +0.001 A 
ATOM     28  C   UNL     1      -7.411  14.218  13.593  0.00  0.00    +0.001 A 
ATOM     29  C   UNL     1      -6.041  14.213  13.856  0.00  0.00    +0.000 A 
ENDBRANCH  19  21
ENDBRANCH  13   3
ENDBRANCH   7  13
BRANCH   9  14
ATOM     14  C   UNL     1     -13.901   8.965  16.165  0.00  0.00    +0.103 C 
BRANCH  14  18
ATOM      1  O   UNL     1     -15.582   7.283  15.714  0.00  0.00    -0.276 OA
ATOM      4  N   UNL     1     -15.544   8.337  17.785  0.00  0.00    -0.311 N 
ATOM     18  C   UNL     1     -15.092   8.094  16.497  0.00  0.00    +0.214 C 
ATOM     35  H   UNL     1     -15.070   9.027  18.361  0.00  0.00    +0.149 HD
BRANCH   4  20
ATOM     20  C   UNL     1     -16.671   7.648  18.369  0.00  0.00    +0.139 C 
BRANCH  20  22
ATOM     22  C   UNL     1     -16.288   6.894  19.610  0.00  0.00    -0.030 A 
ATOM     25  C   UNL     1     -15.112   7.219  20.288  0.00  0.00    +0.006 A 
ATOM     26  C   UNL     1     -17.106   5.870  20.085  0.00  0.00    +0.006 A 
ATOM     30  C   UNL     1     -14.756   6.519  21.440  0.00  0.00    +0.019 A 
ATOM     31  C   UNL     1     -16.750   5.170  21.237  0.00  0.00    +0.019 A 
ATOM     32  C   UNL     1     -15.575   5.495  21.915  0.00  0.00    +0.052 A 
BRANCH  32  33
ATOM      5  N   UNL     1     -14.912   4.194  24.054  0.00  0.00    -0.191 NA
ATOM     33  C   UNL     1     -15.209   4.777  23.096  0.00  0.00    +0.099 C 
ENDBRANCH  32  33
ENDBRANCH  20  22
ENDBRANCH   4  20
ENDBRANCH  14  18
ENDBRANCH   9  14
TORSDOF 9
ENDMDL
MODEL 9
REMARK VINA RESULT:      -6.6      3.567      6.044
REMARK  Name = 38029393
REMARK  12 active torsions:
REMARK  status: ('A' for Active; 'I' for Inactive)
REMARK    1  A    between atoms: N_3  and  C_13
REMARK    2  A    between atoms: N_4  and  C_20
REMARK    3  A    between atoms: C_6  and  C_10
REMARK    4  A    between atoms: C_7  and  C_13
REMARK    5  A    between atoms: C_9  and  C_14
REMARK    6  A    between atoms: C_10  and  C_15
REMARK    7  A    between atoms: C_10  and  C_16
REMARK    8  A    between atoms: C_11  and  C_17
REMARK    9  A    between atoms: C_14  and  C_18
REMARK   10  A    between atoms: C_19  and  C_21
REMARK   11  A    between atoms: C_20  and  C_22
REMARK   12  A    between atoms: C_32  and  C_33
REMARK                            x       y       z     vdW  Elec       q    Type
REMARK                         _______ _______ _______ _____ _____    ______ ____
ROOT
ATOM      6  C   UNL     1      -4.350 -11.065  11.422  0.00  0.00    +0.000 C 
ATOM      7  C   UNL     1      -5.629 -11.050  12.295  0.00  0.00    +0.032 C 
ATOM      8  C   UNL     1      -3.808 -12.496  11.289  0.00  0.00    +0.012 C 
ATOM      9  C   UNL     1      -3.472 -13.121  12.657  0.00  0.00    +0.023 C 
ATOM     11  C   UNL     1      -4.587 -12.910  13.662  0.00  0.00    -0.073 C 
ATOM     12  C   UNL     1      -5.550 -11.989  13.477  0.00  0.00    -0.022 C 
ATOM     17  C   UNL     1      -4.596 -13.813  14.863  0.00  0.00    +0.039 C 
ENDROOT
BRANCH   6  10
ATOM     10  C   UNL     1      -4.605 -10.477  10.030  0.00  0.00    -0.013 C 
ATOM     15  C   UNL     1      -4.472 -11.558   8.962  0.00  0.00    +0.007 C 
ATOM     16  C   UNL     1      -3.644  -9.325   9.756  0.00  0.00    +0.007 C 
ENDBRANCH   6  10
BRANCH   7  13
ATOM     13  C   UNL     1      -5.945  -9.634  12.789  0.00  0.00    +0.112 C 
BRANCH  13   3
ATOM      2  O   UNL     1      -8.815  -9.625  12.855  0.00  0.00    -0.270 OA
ATOM      3  N   UNL     1      -6.771  -9.675  13.954  0.00  0.00    -0.311 N 
ATOM     19  C   UNL     1      -8.164  -9.667  13.896  0.00  0.00    +0.244 C 
ATOM     34  H   UNL     1      -6.301  -9.703  14.852  0.00  0.00    +0.149 HD
BRANCH  19  21
ATOM     21  C   UNL     1      -8.880  -9.689  15.198  0.00  0.00    +0.037 A 
ATOM     23  C   UNL     1      -9.485 -10.864  15.644  0.00  0.00    +0.013 A 
ATOM     24  C   UNL     1      -8.948  -8.532  15.974  0.00  0.00    +0.013 A 
ATOM     27  C   UNL     1     -10.157 -10.883  16.866  0.00  0.00    +0.001 A 
ATOM     28  C   UNL     1      -9.620  -8.551  17.197  0.00  0.00    +0.001 A 
ATOM     29  C   UNL     1     -10.224  -9.726  17.643  0.00  0.00    +0.000 A 
ENDBRANCH  19  21
ENDBRANCH  13   3
ENDBRANCH   7  13
BRANCH   9  14
ATOM     14  C   UNL     1      -2.140 -12.587  13.195  0.00  0.00    +0.103 C 
BRANCH  14  18
ATOM      1  O   UNL     1      -2.517 -10.238  13.639  0.00  0.00    -0.276 OA
ATOM      4  N   UNL     1      -2.264 -11.712  15.417  0.00  0.00    -0.311 N 
ATOM     18  C   UNL     1      -2.330 -11.372  14.075  0.00  0.00    +0.214 C 
ATOM     35  H   UNL     1      -2.109 -12.682  15.681  0.00  0.00    +0.149 HD
BRANCH   4  20
ATOM     20  C   UNL     1      -2.410 -10.750  16.484  0.00  0.00    +0.139 C 
BRANCH  20  22
ATOM     22  C   UNL     1      -3.699 -10.931  17.233  0.00  0.00    -0.030 A 
ATOM     25  C   UNL     1      -4.864 -10.315  16.773  0.00  0.00    +0.006 A 
ATOM     26  C   UNL     1      -3.732 -11.716  18.385  0.00  0.00    +0.006 A 
ATOM     30  C   UNL     1      -6.061 -10.483  17.469  0.00  0.00    +0.019 A 
ATOM     31  C   UNL     1      -4.930 -11.884  19.080  0.00  0.00    +0.019 A 
ATOM     32  C   UNL     1      -6.094 -11.268  18.621  0.00  0.00    +0.052 A 
BRANCH  32  33
ATOM      5  N   UNL     1      -8.319 -11.580  19.910  0.00  0.00    -0.191 NA
ATOM     33  C   UNL     1      -7.322 -11.440  19.333  0.00  0.00    +0.099 C 
ENDBRANCH  32  33
ENDBRANCH  20  22
ENDBRANCH   4  20
ENDBRANCH  14  18
ENDBRANCH   9  14
TORSDOF 9
ENDMDL
MODEL 10
REMARK VINA RESULT:      -6.6     23.105     26.352
REMARK  Name = 38029393
REMARK  12 active torsions:
REMARK  status: ('A' for Active; 'I' for Inactive)
REMARK    1  A    between atoms: N_3  and  C_13
REMARK    2  A    between atoms: N_4  and  C_20
REMARK    3  A    between atoms: C_6  and  C_10
REMARK    4  A    between atoms: C_7  and  C_13
REMARK    5  A    between atoms: C_9  and  C_14
REMARK    6  A    between atoms: C_10  and  C_15
REMARK    7  A    between atoms: C_10  and  C_16
REMARK    8  A    between atoms: C_11  and  C_17
REMARK    9  A    between atoms: C_14  and  C_18
REMARK   10  A    between atoms: C_19  and  C_21
REMARK   11  A    between atoms: C_20  and  C_22
REMARK   12  A    between atoms: C_32  and  C_33
REMARK                            x       y       z     vdW  Elec       q    Type
REMARK                         _______ _______ _______ _____ _____    ______ ____
ROOT
ATOM      6  C   UNL     1      21.069  -7.192   2.516  0.00  0.00    +0.000 C 
ATOM      7  C   UNL     1      21.024  -6.479   1.141  0.00  0.00    +0.032 C 
ATOM      8  C   UNL     1      21.251  -8.706   2.330  0.00  0.00    +0.012 C 
ATOM      9  C   UNL     1      20.118  -9.331   1.494  0.00  0.00    +0.023 C 
ATOM     11  C   UNL     1      19.831  -8.524   0.243  0.00  0.00    -0.073 C 
ATOM     12  C   UNL     1      20.255  -7.257   0.097  0.00  0.00    -0.022 C 
ATOM     17  C   UNL     1      19.083  -9.225  -0.858  0.00  0.00    +0.039 C 
ENDROOT
BRANCH   6  10
ATOM     10  C   UNL     1      22.188  -6.641   3.405  0.00  0.00    -0.013 C 
ATOM     15  C   UNL     1      23.534  -6.747   2.694  0.00  0.00    +0.007 C 
ATOM     16  C   UNL     1      22.221  -7.381   4.738  0.00  0.00    +0.007 C 
ENDBRANCH   6  10
BRANCH   7  13
ATOM     13  C   UNL     1      20.432  -5.071   1.267  0.00  0.00    +0.112 C 
BRANCH  13   3
ATOM      2  O   UNL     1      20.635  -3.863  -1.329  0.00  0.00    -0.270 OA
ATOM      3  N   UNL     1      19.371  -4.881   0.330  0.00  0.00    -0.311 N 
ATOM     19  C   UNL     1      19.557  -4.282  -0.915  0.00  0.00    +0.244 C 
ATOM     34  H   UNL     1      18.448  -5.196   0.608  0.00  0.00    +0.149 HD
BRANCH  19  21
ATOM     21  C   UNL     1      18.347  -4.134  -1.765  0.00  0.00    +0.037 A 
ATOM     23  C   UNL     1      17.811  -2.869  -2.003  0.00  0.00    +0.013 A 
ATOM     24  C   UNL     1      17.746  -5.262  -2.322  0.00  0.00    +0.013 A 
ATOM     27  C   UNL     1      16.674  -2.731  -2.800  0.00  0.00    +0.001 A 
ATOM     28  C   UNL     1      16.609  -5.125  -3.120  0.00  0.00    +0.001 A 
ATOM     29  C   UNL     1      16.073  -3.859  -3.359  0.00  0.00    +0.000 A 
ENDBRANCH  19  21
ENDBRANCH  13   3
ENDBRANCH   7  13
BRANCH   9  14
ATOM     14  C   UNL     1      18.848  -9.511   2.332  0.00  0.00    +0.103 C 
BRANCH  14  18
ATOM      1  O   UNL     1      18.603 -11.743   1.427  0.00  0.00    -0.276 OA
ATOM      4  N   UNL     1      16.735 -10.626   2.243  0.00  0.00    -0.311 N 
ATOM     18  C   UNL     1      18.082 -10.756   1.942  0.00  0.00    +0.214 C 
ATOM     35  H   UNL     1      16.397  -9.770   2.674  0.00  0.00    +0.149 HD
BRANCH   4  20
ATOM     20  C   UNL     1      15.764 -11.662   1.978  0.00  0.00    +0.139 C 
BRANCH  20  22
ATOM     22  C   UNL     1      15.891 -12.811   2.936  0.00  0.00    -0.030 A 
ATOM     25  C   UNL     1      15.743 -12.595   4.307  0.00  0.00    +0.006 A 
ATOM     26  C   UNL     1      16.157 -14.093   2.456  0.00  0.00    +0.006 A 
ATOM     30  C   UNL     1      15.862 -13.663   5.197  0.00  0.00    +0.019 A 
ATOM     31  C   UNL     1      16.275 -15.160   3.347  0.00  0.00    +0.019 A 
ATOM     32  C   UNL     1      16.128 -14.945   4.717  0.00  0.00    +0.052 A 
BRANCH  32  33
ATOM      5  N   UNL     1      16.348 -16.925   6.371  0.00  0.00    -0.191 NA
ATOM     33  C   UNL     1      16.249 -16.038   5.630  0.00  0.00    +0.099 C 
ENDBRANCH  32  33
ENDBRANCH  20  22
ENDBRANCH   4  20
ENDBRANCH  14  18
ENDBRANCH   9  14
TORSDOF 9
ENDMDL
