MODEL 1
REMARK VINA RESULT:      -6.3      0.000      0.000
REMARK  Name = 75536929
REMARK  4 active torsions:
REMARK  status: ('A' for Active; 'I' for Inactive)
REMARK    1  A    between atoms: O_3  and  C_8
REMARK    2  A    between atoms: O_3  and  C_16
REMARK    3  A    between atoms: N_4  and  C_11
REMARK    4  A    between atoms: C_11  and  C_13
REMARK                            x       y       z     vdW  Elec       q    Type
REMARK                         _______ _______ _______ _____ _____    ______ ____
ROOT
ATOM      2  O   UNL     1      10.530   7.262  21.910  0.00  0.00    -0.375 OA
ATOM      4  N   UNL     1      11.906  10.033  21.520  0.00  0.00    -0.292 NA
ATOM      7  C   UNL     1      12.100   9.490  20.171  0.00  0.00    +0.131 C 
ATOM      8  C   UNL     1      11.509   8.105  19.863  0.00  0.00    +0.215 C 
ATOM      9  C   UNL     1      10.605   9.724  22.113  0.00  0.00    +0.113 C 
ATOM     10  C   UNL     1      11.620   7.107  21.008  0.00  0.00    +0.205 C 
ATOM     12  C   UNL     1      10.657   8.360  22.803  0.00  0.00    +0.175 C 
ENDROOT
BRANCH   8   3
ATOM      3  O   UNL     1      12.204   7.565  18.739  0.00  0.00    -0.468 OA
BRANCH   3  16
ATOM      5  N   UNL     1      10.768   8.306  17.067  0.00  0.00    -0.219 NA
ATOM      6  N   UNL     1      12.969   9.366  15.688  0.00  0.00    -0.256 NA
ATOM     16  C   UNL     1      12.024   8.207  17.544  0.00  0.00    +0.234 A 
ATOM     20  C   UNL     1      13.106   8.727  16.867  0.00  0.00    +0.177 A 
ATOM     21  C   UNL     1      10.631   8.945  15.888  0.00  0.00    +0.134 A 
ATOM     22  C   UNL     1      11.712   9.465  15.210  0.00  0.00    +0.130 A 
ENDBRANCH   3  16
ENDBRANCH   8   3
BRANCH   4  11
ATOM     11  C   UNL     1      12.169  11.473  21.525  0.00  0.00    +0.122 C 
BRANCH  11  13
ATOM      1  F   UNL     1      13.608  11.094  23.936  0.00  0.00    -0.205 F 
ATOM     13  C   UNL     1      11.771  12.110  22.829  0.00  0.00    +0.002 A 
ATOM     14  C   UNL     1      12.525  11.882  23.980  0.00  0.00    +0.128 A 
ATOM     15  C   UNL     1      10.644  12.932  22.885  0.00  0.00    +0.008 A 
ATOM     17  C   UNL     1      12.154  12.474  25.186  0.00  0.00    +0.038 A 
ATOM     18  C   UNL     1      10.273  13.524  24.091  0.00  0.00    +0.000 A 
ATOM     19  C   UNL     1      11.027  13.296  25.242  0.00  0.00    +0.003 A 
ENDBRANCH  11  13
ENDBRANCH   4  11
TORSDOF 4
ENDMDL
MODEL 2
REMARK VINA RESULT:      -5.8     24.825     26.161
REMARK  Name = 75536929
REMARK  4 active torsions:
REMARK  status: ('A' for Active; 'I' for Inactive)
REMARK    1  A    between atoms: O_3  and  C_8
REMARK    2  A    between atoms: O_3  and  C_16
REMARK    3  A    between atoms: N_4  and  C_11
REMARK    4  A    between atoms: C_11  and  C_13
REMARK                            x       y       z     vdW  Elec       q    Type
REMARK                         _______ _______ _______ _____ _____    ______ ____
ROOT
ATOM      2  O   UNL     1     -15.875   7.865  21.194  0.00  0.00    -0.375 OA
ATOM      4  N   UNL     1     -12.873   7.340  20.532  0.00  0.00    -0.292 NA
ATOM      7  C   UNL     1     -13.095   6.239  21.476  0.00  0.00    +0.131 C 
ATOM      8  C   UNL     1     -14.510   6.057  22.048  0.00  0.00    +0.215 C 
ATOM      9  C   UNL     1     -13.992   7.586  19.620  0.00  0.00    +0.113 C 
ATOM     10  C   UNL     1     -15.233   7.361  22.360  0.00  0.00    +0.205 C 
ATOM     12  C   UNL     1     -15.007   8.520  20.280  0.00  0.00    +0.175 C 
ENDROOT
BRANCH   8   3
ATOM      3  O   UNL     1     -14.407   5.309  23.260  0.00  0.00    -0.468 OA
BRANCH   3  16
ATOM      5  N   UNL     1     -16.288   4.167  22.508  0.00  0.00    -0.219 NA
ATOM      6  N   UNL     1     -16.194   2.562  24.806  0.00  0.00    -0.256 NA
ATOM     16  C   UNL     1     -15.339   4.327  23.452  0.00  0.00    +0.234 A 
ATOM     20  C   UNL     1     -15.294   3.539  24.582  0.00  0.00    +0.177 A 
ATOM     21  C   UNL     1     -17.188   3.190  22.733  0.00  0.00    +0.134 A 
ATOM     22  C   UNL     1     -17.143   2.402  23.862  0.00  0.00    +0.130 A 
ENDBRANCH   3  16
ENDBRANCH   8   3
BRANCH   4  11
ATOM     11  C   UNL     1     -11.622   7.133  19.802  0.00  0.00    +0.122 C 
BRANCH  11  13
ATOM      1  F   UNL     1     -10.396   7.219  17.249  0.00  0.00    -0.205 F 
ATOM     13  C   UNL     1     -11.124   8.406  19.171  0.00  0.00    +0.002 A 
ATOM     14  C   UNL     1     -10.530   8.377  17.910  0.00  0.00    +0.128 A 
ATOM     15  C   UNL     1     -11.259   9.617  19.852  0.00  0.00    +0.008 A 
ATOM     17  C   UNL     1     -10.070   9.558  17.328  0.00  0.00    +0.038 A 
ATOM     18  C   UNL     1     -10.799  10.798  19.270  0.00  0.00    +0.000 A 
ATOM     19  C   UNL     1     -10.204  10.769  18.009  0.00  0.00    +0.003 A 
ENDBRANCH  11  13
ENDBRANCH   4  11
TORSDOF 4
ENDMDL
MODEL 3
REMARK VINA RESULT:      -5.8      1.496      2.046
REMARK  Name = 75536929
REMARK  4 active torsions:
REMARK  status: ('A' for Active; 'I' for Inactive)
REMARK    1  A    between atoms: O_3  and  C_8
REMARK    2  A    between atoms: O_3  and  C_16
REMARK    3  A    between atoms: N_4  and  C_11
REMARK    4  A    between atoms: C_11  and  C_13
REMARK                            x       y       z     vdW  Elec       q    Type
REMARK                         _______ _______ _______ _____ _____    ______ ____
ROOT
ATOM      2  O   UNL     1      11.341   7.658  22.068  0.00  0.00    -0.375 OA
ATOM      4  N   UNL     1      11.766  10.737  21.821  0.00  0.00    -0.292 NA
ATOM      7  C   UNL     1      12.372  10.320  20.552  0.00  0.00    +0.131 C 
ATOM      8  C   UNL     1      12.340   8.825  20.198  0.00  0.00    +0.215 C 
ATOM      9  C   UNL     1      10.556   9.998  22.183  0.00  0.00    +0.113 C 
ATOM     10  C   UNL     1      12.565   7.895  21.382  0.00  0.00    +0.205 C 
ATOM     12  C   UNL     1      10.931   8.714  22.925  0.00  0.00    +0.175 C 
ENDROOT
BRANCH   8   3
ATOM      3  O   UNL     1      13.368   8.574  19.238  0.00  0.00    -0.468 OA
BRANCH   3  16
ATOM      5  N   UNL     1      13.996   9.618  17.258  0.00  0.00    -0.219 NA
ATOM      6  N   UNL     1      11.581   8.796  16.093  0.00  0.00    -0.256 NA
ATOM     16  C   UNL     1      13.084   8.899  17.940  0.00  0.00    +0.234 A 
ATOM     20  C   UNL     1      11.896   8.496  17.368  0.00  0.00    +0.177 A 
ATOM     21  C   UNL     1      13.681   9.919  15.983  0.00  0.00    +0.134 A 
ATOM     22  C   UNL     1      12.494   9.516  15.410  0.00  0.00    +0.130 A 
ENDBRANCH   3  16
ENDBRANCH   8   3
BRANCH   4  11
ATOM     11  C   UNL     1      11.531  12.181  21.816  0.00  0.00    +0.122 C 
BRANCH  11  13
ATOM      1  F   UNL     1       9.533  14.058  22.535  0.00  0.00    -0.205 F 
ATOM     13  C   UNL     1      11.381  12.729  23.211  0.00  0.00    +0.002 A 
ATOM     14  C   UNL     1      10.374  13.651  23.496  0.00  0.00    +0.128 A 
ATOM     15  C   UNL     1      12.252  12.312  24.218  0.00  0.00    +0.008 A 
ATOM     17  C   UNL     1      10.238  14.157  24.789  0.00  0.00    +0.038 A 
ATOM     18  C   UNL     1      12.115  12.818  25.510  0.00  0.00    +0.000 A 
ATOM     19  C   UNL     1      11.109  13.740  25.796  0.00  0.00    +0.003 A 
ENDBRANCH  11  13
ENDBRANCH   4  11
TORSDOF 4
ENDMDL
MODEL 4
REMARK VINA RESULT:      -5.8     27.823     29.519
REMARK  Name = 75536929
REMARK  4 active torsions:
REMARK  status: ('A' for Active; 'I' for Inactive)
REMARK    1  A    between atoms: O_3  and  C_8
REMARK    2  A    between atoms: O_3  and  C_16
REMARK    3  A    between atoms: N_4  and  C_11
REMARK    4  A    between atoms: C_11  and  C_13
REMARK                            x       y       z     vdW  Elec       q    Type
REMARK                         _______ _______ _______ _____ _____    ______ ____
ROOT
ATOM      2  O   UNL     1     -18.446   4.700  27.630  0.00  0.00    -0.375 OA
ATOM      4  N   UNL     1     -16.678   3.848  25.207  0.00  0.00    -0.292 NA
ATOM      7  C   UNL     1     -15.858   3.298  26.293  0.00  0.00    +0.131 C 
ATOM      8  C   UNL     1     -16.386   3.434  27.730  0.00  0.00    +0.215 C 
ATOM      9  C   UNL     1     -18.120   3.688  25.400  0.00  0.00    +0.113 C 
ATOM     10  C   UNL     1     -17.079   4.759  28.021  0.00  0.00    +0.205 C 
ATOM     12  C   UNL     1     -18.666   4.847  26.234  0.00  0.00    +0.175 C 
ENDROOT
BRANCH   8   3
ATOM      3  O   UNL     1     -15.278   3.311  28.623  0.00  0.00    -0.468 OA
BRANCH   3  16
ATOM      5  N   UNL     1     -13.987   1.866  29.908  0.00  0.00    -0.219 NA
ATOM      6  N   UNL     1     -16.097   0.019  29.898  0.00  0.00    -0.256 NA
ATOM     16  C   UNL     1     -15.149   2.115  29.274  0.00  0.00    +0.234 A 
ATOM     20  C   UNL     1     -16.186   1.207  29.268  0.00  0.00    +0.177 A 
ATOM     21  C   UNL     1     -13.898   0.678  30.538  0.00  0.00    +0.134 A 
ATOM     22  C   UNL     1     -14.934  -0.230  30.533  0.00  0.00    +0.130 A 
ENDBRANCH   3  16
ENDBRANCH   8   3
BRANCH   4  11
ATOM     11  C   UNL     1     -16.245   3.298  23.922  0.00  0.00    +0.122 C 
BRANCH  11  13
ATOM      1  F   UNL     1     -13.671   4.481  24.001  0.00  0.00    -0.205 F 
ATOM     13  C   UNL     1     -15.806   4.378  22.969  0.00  0.00    +0.002 A 
ATOM     14  C   UNL     1     -14.524   4.918  23.064  0.00  0.00    +0.128 A 
ATOM     15  C   UNL     1     -16.687   4.839  21.990  0.00  0.00    +0.008 A 
ATOM     17  C   UNL     1     -14.121   5.918  22.180  0.00  0.00    +0.038 A 
ATOM     18  C   UNL     1     -16.284   5.840  21.106  0.00  0.00    +0.000 A 
ATOM     19  C   UNL     1     -15.001   6.379  21.201  0.00  0.00    +0.003 A 
ENDBRANCH  11  13
ENDBRANCH   4  11
TORSDOF 4
ENDMDL
MODEL 5
REMARK VINA RESULT:      -5.8     26.775     27.577
REMARK  Name = 75536929
REMARK  4 active torsions:
REMARK  status: ('A' for Active; 'I' for Inactive)
REMARK    1  A    between atoms: O_3  and  C_8
REMARK    2  A    between atoms: O_3  and  C_16
REMARK    3  A    between atoms: N_4  and  C_11
REMARK    4  A    between atoms: C_11  and  C_13
REMARK                            x       y       z     vdW  Elec       q    Type
REMARK                         _______ _______ _______ _____ _____    ______ ____
ROOT
ATOM      2  O   UNL     1      -3.932 -13.945  13.591  0.00  0.00    -0.375 OA
ATOM      4  N   UNL     1      -4.482 -11.244  15.049  0.00  0.00    -0.292 NA
ATOM      7  C   UNL     1      -4.044 -10.718  13.751  0.00  0.00    +0.131 C 
ATOM      8  C   UNL     1      -3.707 -11.729  12.644  0.00  0.00    +0.215 C 
ATOM      9  C   UNL     1      -5.327 -12.436  14.962  0.00  0.00    +0.113 C 
ATOM     10  C   UNL     1      -2.991 -12.981  13.133  0.00  0.00    +0.205 C 
ATOM     12  C   UNL     1      -4.455 -13.689  14.886  0.00  0.00    +0.175 C 
ENDROOT
BRANCH   8   3
ATOM      3  O   UNL     1      -2.861 -11.081  11.693  0.00  0.00    -0.468 OA
BRANCH   3  16
ATOM      5  N   UNL     1      -4.062 -11.531   9.754  0.00  0.00    -0.219 NA
ATOM      6  N   UNL     1      -4.022  -8.796   9.131  0.00  0.00    -0.256 NA
ATOM     16  C   UNL     1      -3.462 -10.626  10.552  0.00  0.00    +0.234 A 
ATOM     20  C   UNL     1      -3.441  -9.282  10.245  0.00  0.00    +0.177 A 
ATOM     21  C   UNL     1      -4.643 -11.045   8.639  0.00  0.00    +0.134 A 
ATOM     22  C   UNL     1      -4.623  -9.702   8.332  0.00  0.00    +0.130 A 
ENDBRANCH   3  16
ENDBRANCH   8   3
BRANCH   4  11
ATOM     11  C   UNL     1      -5.125 -10.186  15.829  0.00  0.00    +0.122 C 
BRANCH  11  13
ATOM      1  F   UNL     1      -7.465  -9.566  17.301  0.00  0.00    -0.205 F 
ATOM     13  C   UNL     1      -5.325 -10.592  17.265  0.00  0.00    +0.002 A 
ATOM     14  C   UNL     1      -6.503 -10.254  17.931  0.00  0.00    +0.128 A 
ATOM     15  C   UNL     1      -4.328 -11.308  17.929  0.00  0.00    +0.008 A 
ATOM     17  C   UNL     1      -6.685 -10.632  19.261  0.00  0.00    +0.038 A 
ATOM     18  C   UNL     1      -4.511 -11.686  19.259  0.00  0.00    +0.000 A 
ATOM     19  C   UNL     1      -5.689 -11.348  19.925  0.00  0.00    +0.003 A 
ENDBRANCH  11  13
ENDBRANCH   4  11
TORSDOF 4
ENDMDL
MODEL 6
REMARK VINA RESULT:      -5.7     15.886     17.816
REMARK  Name = 75536929
REMARK  4 active torsions:
REMARK  status: ('A' for Active; 'I' for Inactive)
REMARK    1  A    between atoms: O_3  and  C_8
REMARK    2  A    between atoms: O_3  and  C_16
REMARK    3  A    between atoms: N_4  and  C_11
REMARK    4  A    between atoms: C_11  and  C_13
REMARK                            x       y       z     vdW  Elec       q    Type
REMARK                         _______ _______ _______ _____ _____    ______ ____
ROOT
ATOM      2  O   UNL     1      -3.271  -2.891  24.833  0.00  0.00    -0.375 OA
ATOM      4  N   UNL     1      -1.268  -0.646  24.011  0.00  0.00    -0.292 NA
ATOM      7  C   UNL     1      -2.481   0.168  24.146  0.00  0.00    +0.131 C 
ATOM      8  C   UNL     1      -3.768  -0.532  24.611  0.00  0.00    +0.215 C 
ATOM      9  C   UNL     1      -1.124  -1.685  25.032  0.00  0.00    +0.113 C 
ATOM     10  C   UNL     1      -3.962  -1.931  24.041  0.00  0.00    +0.205 C 
ATOM     12  C   UNL     1      -1.871  -2.948  24.600  0.00  0.00    +0.175 C 
ENDROOT
BRANCH   8   3
ATOM      3  O   UNL     1      -4.880   0.267  24.205  0.00  0.00    -0.468 OA
BRANCH   3  16
ATOM      5  N   UNL     1      -4.183   2.478  24.028  0.00  0.00    -0.219 NA
ATOM      6  N   UNL     1      -5.732   3.116  26.277  0.00  0.00    -0.256 NA
ATOM     16  C   UNL     1      -4.913   1.551  24.677  0.00  0.00    +0.234 A 
ATOM     20  C   UNL     1      -5.674   1.864  25.783  0.00  0.00    +0.177 A 
ATOM     21  C   UNL     1      -4.241   3.731  24.522  0.00  0.00    +0.134 A 
ATOM     22  C   UNL     1      -5.001   4.044  25.627  0.00  0.00    +0.130 A 
ENDBRANCH   3  16
ENDBRANCH   8   3
BRANCH   4  11
ATOM     11  C   UNL     1      -0.088   0.216  23.953  0.00  0.00    +0.122 C 
BRANCH  11  13
ATOM      1  F   UNL     1      -0.597   0.821  26.673  0.00  0.00    -0.205 F 
ATOM     13  C   UNL     1      -0.385   1.608  24.444  0.00  0.00    +0.002 A 
ATOM     14  C   UNL     1      -0.627   1.836  25.798  0.00  0.00    +0.128 A 
ATOM     15  C   UNL     1      -0.418   2.671  23.540  0.00  0.00    +0.008 A 
ATOM     17  C   UNL     1      -0.902   3.126  26.251  0.00  0.00    +0.038 A 
ATOM     18  C   UNL     1      -0.693   3.961  23.993  0.00  0.00    +0.000 A 
ATOM     19  C   UNL     1      -0.935   4.189  25.347  0.00  0.00    +0.003 A 
ENDBRANCH  11  13
ENDBRANCH   4  11
TORSDOF 4
ENDMDL
MODEL 7
REMARK VINA RESULT:      -5.7     26.880     28.294
REMARK  Name = 75536929
REMARK  4 active torsions:
REMARK  status: ('A' for Active; 'I' for Inactive)
REMARK    1  A    between atoms: O_3  and  C_8
REMARK    2  A    between atoms: O_3  and  C_16
REMARK    3  A    between atoms: N_4  and  C_11
REMARK    4  A    between atoms: C_11  and  C_13
REMARK                            x       y       z     vdW  Elec       q    Type
REMARK                         _______ _______ _______ _____ _____    ______ ____
ROOT
ATOM      2  O   UNL     1      -3.989 -13.569  15.197  0.00  0.00    -0.375 OA
ATOM      4  N   UNL     1      -3.117 -11.696  12.862  0.00  0.00    -0.292 NA
ATOM      7  C   UNL     1      -3.750 -10.698  13.731  0.00  0.00    +0.131 C 
ATOM      8  C   UNL     1      -4.300 -11.171  15.086  0.00  0.00    +0.215 C 
ATOM      9  C   UNL     1      -2.337 -12.708  13.575  0.00  0.00    +0.113 C 
ATOM     10  C   UNL     1      -4.963 -12.542  15.049  0.00  0.00    +0.205 C 
ATOM     12  C   UNL     1      -3.249 -13.852  14.019  0.00  0.00    +0.175 C 
ENDROOT
BRANCH   8   3
ATOM      3  O   UNL     1      -5.272 -10.223  15.526  0.00  0.00    -0.468 OA
BRANCH   3  16
ATOM      5  N   UNL     1      -4.824 -10.727  17.752  0.00  0.00    -0.219 NA
ATOM      6  N   UNL     1      -7.515 -10.242  18.373  0.00  0.00    -0.256 NA
ATOM     16  C   UNL     1      -5.717 -10.358  16.813  0.00  0.00    +0.234 A 
ATOM     20  C   UNL     1      -7.040 -10.120  17.118  0.00  0.00    +0.177 A 
ATOM     21  C   UNL     1      -5.299 -10.849  19.007  0.00  0.00    +0.134 A 
ATOM     22  C   UNL     1      -6.621 -10.611  19.313  0.00  0.00    +0.130 A 
ENDBRANCH   3  16
ENDBRANCH   8   3
BRANCH   4  11
ATOM     11  C   UNL     1      -2.319 -11.031  11.831  0.00  0.00    +0.122 C 
BRANCH  11  13
ATOM      1  F   UNL     1      -3.679 -12.874  10.162  0.00  0.00    -0.205 F 
ATOM     13  C   UNL     1      -3.160 -10.610  10.655  0.00  0.00    +0.002 A 
ATOM     14  C   UNL     1      -3.803 -11.570   9.875  0.00  0.00    +0.128 A 
ATOM     15  C   UNL     1      -3.296  -9.256  10.348  0.00  0.00    +0.008 A 
ATOM     17  C   UNL     1      -4.582 -11.178   8.786  0.00  0.00    +0.038 A 
ATOM     18  C   UNL     1      -4.075  -8.863   9.260  0.00  0.00    +0.000 A 
ATOM     19  C   UNL     1      -4.717  -9.823   8.479  0.00  0.00    +0.003 A 
ENDBRANCH  11  13
ENDBRANCH   4  11
TORSDOF 4
ENDMDL
MODEL 8
REMARK VINA RESULT:      -5.7     28.219     29.495
REMARK  Name = 75536929
REMARK  4 active torsions:
REMARK  status: ('A' for Active; 'I' for Inactive)
REMARK    1  A    between atoms: O_3  and  C_8
REMARK    2  A    between atoms: O_3  and  C_16
REMARK    3  A    between atoms: N_4  and  C_11
REMARK    4  A    between atoms: C_11  and  C_13
REMARK                            x       y       z     vdW  Elec       q    Type
REMARK                         _______ _______ _______ _____ _____    ______ ____
ROOT
ATOM      2  O   UNL     1     -14.559   1.156  32.446  0.00  0.00    -0.375 OA
ATOM      4  N   UNL     1     -15.157   4.216  32.503  0.00  0.00    -0.292 NA
ATOM      7  C   UNL     1     -15.322   3.977  31.065  0.00  0.00    +0.131 C 
ATOM      8  C   UNL     1     -15.173   2.535  30.554  0.00  0.00    +0.215 C 
ATOM      9  C   UNL     1     -15.693   3.153  33.355  0.00  0.00    +0.113 C 
ATOM     10  C   UNL     1     -14.073   1.737  31.242  0.00  0.00    +0.205 C 
ATOM     12  C   UNL     1     -14.645   2.055  33.542  0.00  0.00    +0.175 C 
ENDROOT
BRANCH   8   3
ATOM      3  O   UNL     1     -14.873   2.587  29.159  0.00  0.00    -0.468 OA
BRANCH   3  16
ATOM      5  N   UNL     1     -16.100   2.917  27.211  0.00  0.00    -0.219 NA
ATOM      6  N   UNL     1     -17.550   0.581  27.765  0.00  0.00    -0.256 NA
ATOM     16  C   UNL     1     -15.859   2.171  28.307  0.00  0.00    +0.234 A 
ATOM     20  C   UNL     1     -16.572   1.023  28.580  0.00  0.00    +0.177 A 
ATOM     21  C   UNL     1     -17.078   2.474  26.397  0.00  0.00    +0.134 A 
ATOM     22  C   UNL     1     -17.791   1.327  26.668  0.00  0.00    +0.130 A 
ENDBRANCH   3  16
ENDBRANCH   8   3
BRANCH   4  11
ATOM     11  C   UNL     1     -15.709   5.522  32.863  0.00  0.00    +0.122 C 
BRANCH  11  13
ATOM      1  F   UNL     1     -14.544   5.522  35.446  0.00  0.00    -0.205 F 
ATOM     13  C   UNL     1     -14.633   6.489  33.280  0.00  0.00    +0.002 A 
ATOM     14  C   UNL     1     -14.103   6.434  34.569  0.00  0.00    +0.128 A 
ATOM     15  C   UNL     1     -14.167   7.442  32.374  0.00  0.00    +0.008 A 
ATOM     17  C   UNL     1     -13.106   7.331  34.952  0.00  0.00    +0.038 A 
ATOM     18  C   UNL     1     -13.171   8.339  32.757  0.00  0.00    +0.000 A 
ATOM     19  C   UNL     1     -12.640   8.284  34.045  0.00  0.00    +0.003 A 
ENDBRANCH  11  13
ENDBRANCH   4  11
TORSDOF 4
ENDMDL
MODEL 9
REMARK VINA RESULT:      -5.7     14.068     18.714
REMARK  Name = 75536929
REMARK  4 active torsions:
REMARK  status: ('A' for Active; 'I' for Inactive)
REMARK    1  A    between atoms: O_3  and  C_8
REMARK    2  A    between atoms: O_3  and  C_16
REMARK    3  A    between atoms: N_4  and  C_11
REMARK    4  A    between atoms: C_11  and  C_13
REMARK                            x       y       z     vdW  Elec       q    Type
REMARK                         _______ _______ _______ _____ _____    ______ ____
ROOT
ATOM      2  O   UNL     1      13.247   8.666   3.912  0.00  0.00    -0.375 OA
ATOM      4  N   UNL     1      11.797   5.958   3.374  0.00  0.00    -0.292 NA
ATOM      7  C   UNL     1      11.556   6.064   4.818  0.00  0.00    +0.131 C 
ATOM      8  C   UNL     1      12.063   7.322   5.540  0.00  0.00    +0.215 C 
ATOM      9  C   UNL     1      11.686   7.225   2.651  0.00  0.00    +0.113 C 
ATOM     10  C   UNL     1      13.413   7.826   5.049  0.00  0.00    +0.205 C 
ATOM     12  C   UNL     1      13.021   7.970   2.695  0.00  0.00    +0.175 C 
ENDROOT
BRANCH   8   3
ATOM      3  O   UNL     1      12.184   7.018   6.930  0.00  0.00    -0.468 OA
BRANCH   3  16
ATOM      5  N   UNL     1      10.998   5.545   8.283  0.00  0.00    -0.219 NA
ATOM      6  N   UNL     1       8.785   7.263   8.162  0.00  0.00    -0.256 NA
ATOM     16  C   UNL     1      11.028   6.699   7.588  0.00  0.00    +0.234 A 
ATOM     20  C   UNL     1       9.940   7.543   7.528  0.00  0.00    +0.177 A 
ATOM     21  C   UNL     1       9.843   5.265   8.918  0.00  0.00    +0.134 A 
ATOM     22  C   UNL     1       8.755   6.108   8.858  0.00  0.00    +0.130 A 
ENDBRANCH   3  16
ENDBRANCH   8   3
BRANCH   4  11
ATOM     11  C   UNL     1      10.931   4.932   2.794  0.00  0.00    +0.122 C 
BRANCH  11  13
ATOM      1  F   UNL     1       9.602   4.963   0.291  0.00  0.00    -0.205 F 
ATOM     13  C   UNL     1      11.523   4.343   1.541  0.00  0.00    +0.002 A 
ATOM     14  C   UNL     1      10.814   4.392   0.341  0.00  0.00    +0.128 A 
ATOM     15  C   UNL     1      12.784   3.746   1.582  0.00  0.00    +0.008 A 
ATOM     17  C   UNL     1      11.364   3.847  -0.818  0.00  0.00    +0.038 A 
ATOM     18  C   UNL     1      13.334   3.200   0.423  0.00  0.00    +0.000 A 
ATOM     19  C   UNL     1      12.625   3.250  -0.777  0.00  0.00    +0.003 A 
ENDBRANCH  11  13
ENDBRANCH   4  11
TORSDOF 4
ENDMDL
MODEL 10
REMARK VINA RESULT:      -5.6     27.110     28.756
REMARK  Name = 75536929
REMARK  4 active torsions:
REMARK  status: ('A' for Active; 'I' for Inactive)
REMARK    1  A    between atoms: O_3  and  C_8
REMARK    2  A    between atoms: O_3  and  C_16
REMARK    3  A    between atoms: N_4  and  C_11
REMARK    4  A    between atoms: C_11  and  C_13
REMARK                            x       y       z     vdW  Elec       q    Type
REMARK                         _______ _______ _______ _____ _____    ______ ____
ROOT
ATOM      2  O   UNL     1     -16.984   5.066  33.467  0.00  0.00    -0.375 OA
ATOM      4  N   UNL     1     -14.571   6.892  32.717  0.00  0.00    -0.292 NA
ATOM      7  C   UNL     1     -13.949   5.584  32.483  0.00  0.00    +0.131 C 
ATOM      8  C   UNL     1     -14.818   4.331  32.678  0.00  0.00    +0.215 C 
ATOM      9  C   UNL     1     -15.966   6.981  32.285  0.00  0.00    +0.113 C 
ATOM     10  C   UNL     1     -15.781   4.412  33.855  0.00  0.00    +0.205 C 
ATOM     12  C   UNL     1     -16.889   6.481  33.397  0.00  0.00    +0.175 C 
ENDROOT
BRANCH   8   3
ATOM      3  O   UNL     1     -13.950   3.218  32.895  0.00  0.00    -0.468 OA
BRANCH   3  16
ATOM      5  N   UNL     1     -13.552   2.242  30.822  0.00  0.00    -0.219 NA
ATOM      6  N   UNL     1     -14.963  -0.034  31.657  0.00  0.00    -0.256 NA
ATOM     16  C   UNL     1     -14.100   2.153  32.050  0.00  0.00    +0.234 A 
ATOM     20  C   UNL     1     -14.794   1.035  32.460  0.00  0.00    +0.177 A 
ATOM     21  C   UNL     1     -13.722   1.173  30.019  0.00  0.00    +0.134 A 
ATOM     22  C   UNL     1     -14.415   0.055  30.428  0.00  0.00    +0.130 A 
ENDBRANCH   3  16
ENDBRANCH   8   3
BRANCH   4  11
ATOM     11  C   UNL     1     -13.756   7.950  32.119  0.00  0.00    +0.122 C 
BRANCH  11  13
ATOM      1  F   UNL     1     -11.317   9.164  31.341  0.00  0.00    -0.205 F 
ATOM     13  C   UNL     1     -12.771   8.523  33.104  0.00  0.00    +0.002 A 
ATOM     14  C   UNL     1     -11.589   9.107  32.652  0.00  0.00    +0.128 A 
ATOM     15  C   UNL     1     -13.045   8.468  34.471  0.00  0.00    +0.008 A 
ATOM     17  C   UNL     1     -10.679   9.637  33.566  0.00  0.00    +0.038 A 
ATOM     18  C   UNL     1     -12.135   8.998  35.385  0.00  0.00    +0.000 A 
ATOM     19  C   UNL     1     -10.953   9.583  34.933  0.00  0.00    +0.003 A 
ENDBRANCH  11  13
ENDBRANCH   4  11
TORSDOF 4
ENDMDL
