MODEL 1
REMARK VINA RESULT:      -7.5      0.000      0.000
REMARK  Name = 7164727
REMARK  5 active torsions:
REMARK  status: ('A' for Active; 'I' for Inactive)
REMARK    1  A    between atoms: O_4  and  C_28
REMARK    2  A    between atoms: O_4  and  C_34
REMARK    3  A    between atoms: N_7  and  C_21
REMARK    4  A    between atoms: N_8  and  C_19
REMARK    5  A    between atoms: C_22  and  C_25
REMARK                            x       y       z     vdW  Elec       q    Type
REMARK                         _______ _______ _______ _____ _____    ______ ____
ROOT
ATOM      1  O   UNL     1      14.189   6.362   7.301  0.00  0.00    -0.266 OA
ATOM      2  O   UNL     1      10.181   4.006   4.918  0.00  0.00    -0.252 OA
ATOM      5  N   UNL     1       9.501   6.125   5.549  0.00  0.00    -0.284 N 
ATOM      6  N   UNL     1      12.136   7.377   6.842  0.00  0.00    -0.310 N 
ATOM      7  N   UNL     1      10.136   5.684   3.320  0.00  0.00    -0.269 N 
ATOM      9  C   UNL     1       9.950   6.644   7.953  0.00  0.00    +0.027 C 
ATOM     10  C   UNL     1       9.927   8.462   6.299  0.00  0.00    +0.054 C 
ATOM     11  C   UNL     1       9.508   8.083   7.717  0.00  0.00    +0.018 C 
ATOM     12  C   UNL     1       9.280   5.706   6.936  0.00  0.00    +0.114 C 
ATOM     13  C   UNL     1      11.479   6.574   7.883  0.00  0.00    +0.130 C 
ATOM     14  C   UNL     1       9.214   7.546   5.280  0.00  0.00    +0.119 C 
ATOM     15  C   UNL     1      11.430   8.347   6.124  0.00  0.00    +0.027 A 
ATOM     16  C   UNL     1      12.075   9.149   5.259  0.00  0.00    +0.024 A 
ATOM     17  C   UNL     1      13.524   7.191   6.680  0.00  0.00    +0.273 A 
ATOM     18  C   UNL     1       9.966   5.180   4.608  0.00  0.00    +0.306 C 
ATOM     19  C   UNL     1      14.200   8.086   5.689  0.00  0.00    +0.099 A 
ATOM     20  C   UNL     1      13.486   9.013   5.039  0.00  0.00    +0.030 A 
ATOM     35  H   UNL     1       9.560   6.467   3.030  0.00  0.00    +0.156 HD
ENDROOT
BRANCH   7  21
ATOM     21  C   UNL     1      11.006   5.192   2.316  0.00  0.00    +0.035 A 
ATOM     23  C   UNL     1      12.383   5.341   2.459  0.00  0.00    +0.027 A 
ATOM     24  C   UNL     1      10.479   4.561   1.192  0.00  0.00    +0.027 A 
ATOM     26  C   UNL     1      13.239   4.857   1.471  0.00  0.00    +0.047 A 
ATOM     27  C   UNL     1      11.336   4.077   0.204  0.00  0.00    +0.047 A 
ATOM     28  C   UNL     1      12.716   4.224   0.344  0.00  0.00    +0.120 A 
BRANCH  28   4
ATOM      4  O   UNL     1      13.552   3.750  -0.620  0.00  0.00    -0.495 OA
ATOM     34  C   UNL     1      14.929   4.115  -0.523  0.00  0.00    +0.277 C 
ENDBRANCH  28   4
ENDBRANCH   7  21
BRANCH  19   8
ATOM      3  O   UNL     1      16.240   9.950   6.399  0.00  0.00    -0.270 OA
ATOM      8  N   UNL     1      15.539   7.927   5.491  0.00  0.00    -0.277 N 
ATOM     22  C   UNL     1      16.485   8.874   5.860  0.00  0.00    +0.248 C 
ATOM     36  H   UNL     1      15.798   7.131   4.918  0.00  0.00    +0.155 HD
BRANCH  22  25
ATOM     25  C   UNL     1      17.900   8.513   5.584  0.00  0.00    +0.037 A 
ATOM     29  C   UNL     1      18.813   8.566   6.616  0.00  0.00    +0.013 A 
ATOM     30  C   UNL     1      18.254   8.137   4.306  0.00  0.00    +0.013 A 
ATOM     31  C   UNL     1      20.141   8.226   6.358  0.00  0.00    +0.001 A 
ATOM     32  C   UNL     1      19.582   7.798   4.047  0.00  0.00    +0.001 A 
ATOM     33  C   UNL     1      20.526   7.844   5.072  0.00  0.00    +0.000 A 
ENDBRANCH  22  25
ENDBRANCH  19   8
TORSDOF 4
ENDMDL
MODEL 2
REMARK VINA RESULT:      -7.5     25.493     29.798
REMARK  Name = 7164727
REMARK  5 active torsions:
REMARK  status: ('A' for Active; 'I' for Inactive)
REMARK    1  A    between atoms: O_4  and  C_28
REMARK    2  A    between atoms: O_4  and  C_34
REMARK    3  A    between atoms: N_7  and  C_21
REMARK    4  A    between atoms: N_8  and  C_19
REMARK    5  A    between atoms: C_22  and  C_25
REMARK                            x       y       z     vdW  Elec       q    Type
REMARK                         _______ _______ _______ _____ _____    ______ ____
ROOT
ATOM      1  O   UNL     1      -7.528 -12.139  14.382  0.00  0.00    -0.266 OA
ATOM      2  O   UNL     1     -11.854 -11.009  17.084  0.00  0.00    -0.252 OA
ATOM      5  N   UNL     1     -10.122 -11.311  18.588  0.00  0.00    -0.284 N 
ATOM      6  N   UNL     1      -7.607 -11.848  16.699  0.00  0.00    -0.310 N 
ATOM      7  N   UNL     1     -10.816  -9.139  17.978  0.00  0.00    -0.269 N 
ATOM      9  C   UNL     1      -8.866 -13.446  18.252  0.00  0.00    +0.027 C 
ATOM     10  C   UNL     1      -7.712 -11.490  19.191  0.00  0.00    +0.054 C 
ATOM     11  C   UNL     1      -7.852 -13.005  19.301  0.00  0.00    +0.018 C 
ATOM     12  C   UNL     1     -10.224 -12.770  18.505  0.00  0.00    +0.114 C 
ATOM     13  C   UNL     1      -8.313 -13.127  16.859  0.00  0.00    +0.130 C 
ATOM     14  C   UNL     1      -9.068 -10.815  19.492  0.00  0.00    +0.119 C 
ATOM     15  C   UNL     1      -7.236 -11.083  17.809  0.00  0.00    +0.027 A 
ATOM     16  C   UNL     1      -6.490  -9.977  17.647  0.00  0.00    +0.024 A 
ATOM     17  C   UNL     1      -7.238 -11.489  15.387  0.00  0.00    +0.273 A 
ATOM     18  C   UNL     1     -10.997 -10.512  17.819  0.00  0.00    +0.306 C 
ATOM     19  C   UNL     1      -6.430 -10.236  15.248  0.00  0.00    +0.099 A 
ATOM     20  C   UNL     1      -6.082  -9.547  16.340  0.00  0.00    +0.030 A 
ATOM     35  H   UNL     1     -10.444  -8.803  18.859  0.00  0.00    +0.156 HD
ENDROOT
BRANCH   7  21
ATOM     21  C   UNL     1     -11.144  -8.119  17.051  0.00  0.00    +0.035 A 
ATOM     23  C   UNL     1     -10.135  -7.334  16.501  0.00  0.00    +0.027 A 
ATOM     24  C   UNL     1     -12.474  -7.908  16.696  0.00  0.00    +0.027 A 
ATOM     26  C   UNL     1     -10.457  -6.330  15.588  0.00  0.00    +0.047 A 
ATOM     27  C   UNL     1     -12.796  -6.904  15.784  0.00  0.00    +0.047 A 
ATOM     28  C   UNL     1     -11.788  -6.115  15.229  0.00  0.00    +0.120 A 
BRANCH  28   4
ATOM      4  O   UNL     1     -12.102  -5.136  14.338  0.00  0.00    -0.495 OA
ATOM     34  C   UNL     1     -13.376  -5.224  13.699  0.00  0.00    +0.277 C 
ENDBRANCH  28   4
ENDBRANCH   7  21
BRANCH  19   8
ATOM      3  O   UNL     1      -4.064 -11.021  13.860  0.00  0.00    -0.270 OA
ATOM      8  N   UNL     1      -6.067  -9.845  13.994  0.00  0.00    -0.277 N 
ATOM     22  C   UNL     1      -4.898 -10.263  13.371  0.00  0.00    +0.248 C 
ATOM     36  H   UNL     1      -6.632  -9.106  13.591  0.00  0.00    +0.155 HD
BRANCH  22  25
ATOM     25  C   UNL     1      -4.683  -9.749  11.993  0.00  0.00    +0.037 A 
ATOM     29  C   UNL     1      -5.634  -8.920  11.435  0.00  0.00    +0.013 A 
ATOM     30  C   UNL     1      -3.538 -10.117  11.317  0.00  0.00    +0.013 A 
ATOM     31  C   UNL     1      -5.432  -8.438  10.142  0.00  0.00    +0.001 A 
ATOM     32  C   UNL     1      -3.337  -9.635  10.023  0.00  0.00    +0.001 A 
ATOM     33  C   UNL     1      -4.283  -8.797   9.436  0.00  0.00    +0.000 A 
ENDBRANCH  22  25
ENDBRANCH  19   8
TORSDOF 4
ENDMDL
MODEL 3
REMARK VINA RESULT:      -7.0      1.951      6.637
REMARK  Name = 7164727
REMARK  5 active torsions:
REMARK  status: ('A' for Active; 'I' for Inactive)
REMARK    1  A    between atoms: O_4  and  C_28
REMARK    2  A    between atoms: O_4  and  C_34
REMARK    3  A    between atoms: N_7  and  C_21
REMARK    4  A    between atoms: N_8  and  C_19
REMARK    5  A    between atoms: C_22  and  C_25
REMARK                            x       y       z     vdW  Elec       q    Type
REMARK                         _______ _______ _______ _____ _____    ______ ____
ROOT
ATOM      1  O   UNL     1       9.586   7.160   1.835  0.00  0.00    -0.266 OA
ATOM      2  O   UNL     1      11.949  10.068   5.476  0.00  0.00    -0.252 OA
ATOM      5  N   UNL     1      10.572   8.549   6.548  0.00  0.00    -0.284 N 
ATOM      6  N   UNL     1       9.370   6.836   4.138  0.00  0.00    -0.310 N 
ATOM      7  N   UNL     1      12.895   8.161   6.395  0.00  0.00    -0.269 N 
ATOM      9  C   UNL     1       8.229   8.535   5.675  0.00  0.00    +0.027 C 
ATOM     10  C   UNL     1       9.186   6.481   6.627  0.00  0.00    +0.054 C 
ATOM     11  C   UNL     1       7.918   7.328   6.551  0.00  0.00    +0.018 C 
ATOM     12  C   UNL     1       9.377   9.356   6.285  0.00  0.00    +0.114 C 
ATOM     13  C   UNL     1       8.555   8.052   4.258  0.00  0.00    +0.130 C 
ATOM     14  C   UNL     1      10.321   7.296   7.283  0.00  0.00    +0.119 C 
ATOM     15  C   UNL     1       9.619   6.021   5.247  0.00  0.00    +0.027 A 
ATOM     16  C   UNL     1      10.268   4.854   5.095  0.00  0.00    +0.024 A 
ATOM     17  C   UNL     1       9.797   6.483   2.842  0.00  0.00    +0.273 A 
ATOM     18  C   UNL     1      11.827   9.003   6.086  0.00  0.00    +0.306 C 
ATOM     19  C   UNL     1      10.539   5.189   2.719  0.00  0.00    +0.099 A 
ATOM     20  C   UNL     1      10.738   4.434   3.805  0.00  0.00    +0.030 A 
ATOM     35  H   UNL     1      12.824   7.580   7.223  0.00  0.00    +0.156 HD
ENDROOT
BRANCH   7  21
ATOM     21  C   UNL     1      14.126   8.051   5.703  0.00  0.00    +0.035 A 
ATOM     23  C   UNL     1      14.188   7.328   4.515  0.00  0.00    +0.027 A 
ATOM     24  C   UNL     1      15.265   8.665   6.215  0.00  0.00    +0.027 A 
ATOM     26  C   UNL     1      15.401   7.219   3.833  0.00  0.00    +0.047 A 
ATOM     27  C   UNL     1      16.477   8.556   5.533  0.00  0.00    +0.047 A 
ATOM     28  C   UNL     1      16.545   7.833   4.342  0.00  0.00    +0.120 A 
BRANCH  28   4
ATOM      4  O   UNL     1      17.727   7.728   3.676  0.00  0.00    -0.495 OA
ATOM     34  C   UNL     1      18.910   8.079   4.393  0.00  0.00    +0.277 C 
ENDBRANCH  28   4
ENDBRANCH   7  21
BRANCH  19   8
ATOM      3  O   UNL     1      13.254   5.171   1.842  0.00  0.00    -0.270 OA
ATOM      8  N   UNL     1      10.983   4.820   1.485  0.00  0.00    -0.277 N 
ATOM     22  C   UNL     1      12.322   4.834   1.117  0.00  0.00    +0.248 C 
ATOM     36  H   UNL     1      10.257   4.673   0.792  0.00  0.00    +0.155 HD
BRANCH  22  25
ATOM     25  C   UNL     1      12.615   4.375  -0.266  0.00  0.00    +0.037 A 
ATOM     29  C   UNL     1      11.693   3.581  -0.914  0.00  0.00    +0.013 A 
ATOM     30  C   UNL     1      13.801   4.760  -0.857  0.00  0.00    +0.013 A 
ATOM     31  C   UNL     1      11.968   3.151  -2.212  0.00  0.00    +0.001 A 
ATOM     32  C   UNL     1      14.076   4.329  -2.155  0.00  0.00    +0.001 A 
ATOM     33  C   UNL     1      13.161   3.524  -2.832  0.00  0.00    +0.000 A 
ENDBRANCH  22  25
ENDBRANCH  19   8
TORSDOF 4
ENDMDL
MODEL 4
REMARK VINA RESULT:      -7.0      4.188      8.076
REMARK  Name = 7164727
REMARK  5 active torsions:
REMARK  status: ('A' for Active; 'I' for Inactive)
REMARK    1  A    between atoms: O_4  and  C_28
REMARK    2  A    between atoms: O_4  and  C_34
REMARK    3  A    between atoms: N_7  and  C_21
REMARK    4  A    between atoms: N_8  and  C_19
REMARK    5  A    between atoms: C_22  and  C_25
REMARK                            x       y       z     vdW  Elec       q    Type
REMARK                         _______ _______ _______ _____ _____    ______ ____
ROOT
ATOM      1  O   UNL     1      13.023   6.400   3.540  0.00  0.00    -0.266 OA
ATOM      2  O   UNL     1      11.326   9.703  -0.135  0.00  0.00    -0.252 OA
ATOM      5  N   UNL     1      11.710   7.650  -1.131  0.00  0.00    -0.284 N 
ATOM      6  N   UNL     1      12.596   5.809   1.321  0.00  0.00    -0.310 N 
ATOM      7  N   UNL     1       9.518   8.314  -0.558  0.00  0.00    -0.269 N 
ATOM      9  C   UNL     1      13.973   6.709  -0.640  0.00  0.00    +0.027 C 
ATOM     10  C   UNL     1      12.089   5.189  -1.069  0.00  0.00    +0.054 C 
ATOM     11  C   UNL     1      13.576   5.412  -1.335  0.00  0.00    +0.018 C 
ATOM     12  C   UNL     1      13.155   7.885  -1.197  0.00  0.00    +0.114 C 
ATOM     13  C   UNL     1      13.788   6.541   0.871  0.00  0.00    +0.130 C 
ATOM     14  C   UNL     1      11.270   6.351  -1.671  0.00  0.00    +0.119 C 
ATOM     15  C   UNL     1      11.810   5.086   0.419  0.00  0.00    +0.027 A 
ATOM     16  C   UNL     1      10.792   4.329   0.866  0.00  0.00    +0.024 A 
ATOM     17  C   UNL     1      12.349   5.792   2.708  0.00  0.00    +0.273 A 
ATOM     18  C   UNL     1      10.874   8.639  -0.566  0.00  0.00    +0.306 C 
ATOM     19  C   UNL     1      11.190   4.959   3.163  0.00  0.00    +0.099 A 
ATOM     20  C   UNL     1      10.478   4.268   2.265  0.00  0.00    +0.030 A 
ATOM     35  H   UNL     1       9.171   7.686  -1.275  0.00  0.00    +0.156 HD
ENDROOT
BRANCH   7  21
ATOM     21  C   UNL     1       8.525   8.805   0.324  0.00  0.00    +0.035 A 
ATOM     23  C   UNL     1       7.466   9.557  -0.178  0.00  0.00    +0.027 A 
ATOM     24  C   UNL     1       8.614   8.534   1.686  0.00  0.00    +0.027 A 
ATOM     26  C   UNL     1       6.487  10.041   0.691  0.00  0.00    +0.047 A 
ATOM     27  C   UNL     1       7.635   9.019   2.555  0.00  0.00    +0.047 A 
ATOM     28  C   UNL     1       6.572   9.772   2.056  0.00  0.00    +0.120 A 
BRANCH  28   4
ATOM      4  O   UNL     1       5.616  10.243   2.903  0.00  0.00    -0.495 OA
ATOM     34  C   UNL     1       6.001  10.461   4.261  0.00  0.00    +0.277 C 
ENDBRANCH  28   4
ENDBRANCH   7  21
BRANCH  19   8
ATOM      3  O   UNL     1       9.104   6.397   4.475  0.00  0.00    -0.270 OA
ATOM      8  N   UNL     1      10.908   4.929   4.496  0.00  0.00    -0.277 N 
ATOM     22  C   UNL     1       9.876   5.654   5.076  0.00  0.00    +0.248 C 
ATOM     36  H   UNL     1      11.595   4.455   5.071  0.00  0.00    +0.155 HD
BRANCH  22  25
ATOM     25  C   UNL     1       9.707   5.475   6.542  0.00  0.00    +0.037 A 
ATOM     29  C   UNL     1       9.304   6.553   7.302  0.00  0.00    +0.013 A 
ATOM     30  C   UNL     1       9.959   4.237   7.094  0.00  0.00    +0.013 A 
ATOM     31  C   UNL     1       9.146   6.385   8.677  0.00  0.00    +0.001 A 
ATOM     32  C   UNL     1       9.802   4.069   8.470  0.00  0.00    +0.001 A 
ATOM     33  C   UNL     1       9.396   5.143   9.262  0.00  0.00    +0.000 A 
ENDBRANCH  22  25
ENDBRANCH  19   8
TORSDOF 4
ENDMDL
MODEL 5
REMARK VINA RESULT:      -6.9     25.195     29.480
REMARK  Name = 7164727
REMARK  5 active torsions:
REMARK  status: ('A' for Active; 'I' for Inactive)
REMARK    1  A    between atoms: O_4  and  C_28
REMARK    2  A    between atoms: O_4  and  C_34
REMARK    3  A    between atoms: N_7  and  C_21
REMARK    4  A    between atoms: N_8  and  C_19
REMARK    5  A    between atoms: C_22  and  C_25
REMARK                            x       y       z     vdW  Elec       q    Type
REMARK                         _______ _______ _______ _____ _____    ______ ____
ROOT
ATOM      1  O   UNL     1      -8.550  -8.306  17.073  0.00  0.00    -0.266 OA
ATOM      2  O   UNL     1      -3.666 -10.099  16.597  0.00  0.00    -0.252 OA
ATOM      5  N   UNL     1      -4.996 -11.826  17.373  0.00  0.00    -0.284 N 
ATOM      6  N   UNL     1      -7.908 -10.521  17.445  0.00  0.00    -0.310 N 
ATOM      7  N   UNL     1      -4.395 -11.706  15.094  0.00  0.00    -0.269 N 
ATOM      9  C   UNL     1      -6.369 -11.211  19.370  0.00  0.00    +0.027 C 
ATOM     10  C   UNL     1      -7.196 -12.913  17.801  0.00  0.00    +0.054 C 
ATOM     11  C   UNL     1      -7.086 -12.553  19.280  0.00  0.00    +0.018 C 
ATOM     12  C   UNL     1      -4.968 -11.312  18.745  0.00  0.00    +0.114 C 
ATOM     13  C   UNL     1      -7.228 -10.140  18.691  0.00  0.00    +0.130 C 
ATOM     14  C   UNL     1      -5.786 -13.058  17.191  0.00  0.00    +0.119 C 
ATOM     15  C   UNL     1      -7.976 -11.857  17.039  0.00  0.00    +0.027 A 
ATOM     16  C   UNL     1      -8.701 -12.199  15.959  0.00  0.00    +0.024 A 
ATOM     17  C   UNL     1      -8.569  -9.493  16.744  0.00  0.00    +0.273 A 
ATOM     18  C   UNL     1      -4.305 -11.127  16.359  0.00  0.00    +0.306 C 
ATOM     19  C   UNL     1      -9.343  -9.911  15.532  0.00  0.00    +0.099 A 
ATOM     20  C   UNL     1      -9.395 -11.204  15.193  0.00  0.00    +0.030 A 
ATOM     35  H   UNL     1      -4.533 -12.709  15.033  0.00  0.00    +0.156 HD
ENDROOT
BRANCH   7  21
ATOM     21  C   UNL     1      -4.264 -11.055  13.843  0.00  0.00    +0.035 A 
ATOM     23  C   UNL     1      -5.359 -10.398  13.287  0.00  0.00    +0.027 A 
ATOM     24  C   UNL     1      -3.042 -11.076  13.176  0.00  0.00    +0.027 A 
ATOM     26  C   UNL     1      -5.230  -9.756  12.055  0.00  0.00    +0.047 A 
ATOM     27  C   UNL     1      -2.914 -10.435  11.944  0.00  0.00    +0.047 A 
ATOM     28  C   UNL     1      -4.008  -9.774  11.384  0.00  0.00    +0.120 A 
BRANCH  28   4
ATOM      4  O   UNL     1      -3.882  -9.147  10.183  0.00  0.00    -0.495 OA
ATOM     34  C   UNL     1      -5.065  -8.581   9.619  0.00  0.00    +0.277 C 
ENDBRANCH  28   4
ENDBRANCH   7  21
BRANCH  19   8
ATOM      3  O   UNL     1     -12.012  -8.994  15.953  0.00  0.00    -0.270 OA
ATOM      8  N   UNL     1      -9.983  -8.943  14.817  0.00  0.00    -0.277 N 
ATOM     22  C   UNL     1     -11.287  -8.540  15.071  0.00  0.00    +0.248 C 
ATOM     36  H   UNL     1      -9.498  -8.632  13.982  0.00  0.00    +0.155 HD
BRANCH  22  25
ATOM     25  C   UNL     1     -11.808  -7.455  14.199  0.00  0.00    +0.037 A 
ATOM     29  C   UNL     1     -12.249  -7.772  12.932  0.00  0.00    +0.013 A 
ATOM     30  C   UNL     1     -11.833  -6.165  14.687  0.00  0.00    +0.013 A 
ATOM     31  C   UNL     1     -12.738  -6.754  12.114  0.00  0.00    +0.001 A 
ATOM     32  C   UNL     1     -12.321  -5.146  13.869  0.00  0.00    +0.001 A 
ATOM     33  C   UNL     1     -12.773  -5.440  12.583  0.00  0.00    +0.000 A 
ENDBRANCH  22  25
ENDBRANCH  19   8
TORSDOF 4
ENDMDL
MODEL 6
REMARK VINA RESULT:      -6.7      4.010      8.068
REMARK  Name = 7164727
REMARK  5 active torsions:
REMARK  status: ('A' for Active; 'I' for Inactive)
REMARK    1  A    between atoms: O_4  and  C_28
REMARK    2  A    between atoms: O_4  and  C_34
REMARK    3  A    between atoms: N_7  and  C_21
REMARK    4  A    between atoms: N_8  and  C_19
REMARK    5  A    between atoms: C_22  and  C_25
REMARK                            x       y       z     vdW  Elec       q    Type
REMARK                         _______ _______ _______ _____ _____    ______ ____
ROOT
ATOM      1  O   UNL     1       9.354  10.666   3.174  0.00  0.00    -0.266 OA
ATOM      2  O   UNL     1      13.660   7.739   2.735  0.00  0.00    -0.252 OA
ATOM      5  N   UNL     1      12.971   7.683   4.943  0.00  0.00    -0.284 N 
ATOM      6  N   UNL     1      10.290   9.414   4.910  0.00  0.00    -0.310 N 
ATOM      7  N   UNL     1      12.486   5.888   3.489  0.00  0.00    -0.269 N 
ATOM      9  C   UNL     1      12.577   9.948   5.926  0.00  0.00    +0.027 C 
ATOM     10  C   UNL     1      11.295   8.021   6.755  0.00  0.00    +0.054 C 
ATOM     11  C   UNL     1      12.017   9.296   7.184  0.00  0.00    +0.018 C 
ATOM     12  C   UNL     1      13.559   8.996   5.223  0.00  0.00    +0.114 C 
ATOM     13  C   UNL     1      11.414  10.353   5.015  0.00  0.00    +0.130 C 
ATOM     14  C   UNL     1      12.296   7.051   6.091  0.00  0.00    +0.119 C 
ATOM     15  C   UNL     1      10.168   8.332   5.787  0.00  0.00    +0.027 A 
ATOM     16  C   UNL     1       9.073   7.552   5.750  0.00  0.00    +0.024 A 
ATOM     17  C   UNL     1       9.298   9.716   3.956  0.00  0.00    +0.273 A 
ATOM     18  C   UNL     1      13.076   7.142   3.642  0.00  0.00    +0.306 C 
ATOM     19  C   UNL     1       8.108   8.808   3.928  0.00  0.00    +0.099 A 
ATOM     20  C   UNL     1       8.026   7.797   4.800  0.00  0.00    +0.030 A 
ATOM     35  H   UNL     1      12.426   5.283   4.301  0.00  0.00    +0.156 HD
ENDROOT
BRANCH   7  21
ATOM     21  C   UNL     1      11.990   5.315   2.292  0.00  0.00    +0.035 A 
ATOM     23  C   UNL     1      12.811   4.489   1.530  0.00  0.00    +0.027 A 
ATOM     24  C   UNL     1      10.686   5.582   1.886  0.00  0.00    +0.027 A 
ATOM     26  C   UNL     1      12.324   3.925   0.350  0.00  0.00    +0.047 A 
ATOM     27  C   UNL     1      10.198   5.018   0.707  0.00  0.00    +0.047 A 
ATOM     28  C   UNL     1      11.017   4.189  -0.061  0.00  0.00    +0.120 A 
BRANCH  28   4
ATOM      4  O   UNL     1      10.542   3.637  -1.210  0.00  0.00    -0.495 OA
ATOM     34  C   UNL     1      11.486   2.982  -2.056  0.00  0.00    +0.277 C 
ENDBRANCH  28   4
ENDBRANCH   7  21
BRANCH  19   8
ATOM      3  O   UNL     1       5.781  10.411   4.332  0.00  0.00    -0.270 OA
ATOM      8  N   UNL     1       7.133   9.058   3.008  0.00  0.00    -0.277 N 
ATOM     22  C   UNL     1       6.021   9.848   3.267  0.00  0.00    +0.248 C 
ATOM     36  H   UNL     1       7.191   8.507   2.159  0.00  0.00    +0.155 HD
BRANCH  22  25
ATOM     25  C   UNL     1       5.078  10.024   2.132  0.00  0.00    +0.037 A 
ATOM     29  C   UNL     1       5.457   9.593   0.878  0.00  0.00    +0.013 A 
ATOM     30  C   UNL     1       3.854  10.613   2.370  0.00  0.00    +0.013 A 
ATOM     31  C   UNL     1       4.571   9.758  -0.186  0.00  0.00    +0.001 A 
ATOM     32  C   UNL     1       2.968  10.779   1.305  0.00  0.00    +0.001 A 
ATOM     33  C   UNL     1       3.327  10.352   0.027  0.00  0.00    +0.000 A 
ENDBRANCH  22  25
ENDBRANCH  19   8
TORSDOF 4
ENDMDL
MODEL 7
REMARK VINA RESULT:      -6.7      3.082      6.392
REMARK  Name = 7164727
REMARK  5 active torsions:
REMARK  status: ('A' for Active; 'I' for Inactive)
REMARK    1  A    between atoms: O_4  and  C_28
REMARK    2  A    between atoms: O_4  and  C_34
REMARK    3  A    between atoms: N_7  and  C_21
REMARK    4  A    between atoms: N_8  and  C_19
REMARK    5  A    between atoms: C_22  and  C_25
REMARK                            x       y       z     vdW  Elec       q    Type
REMARK                         _______ _______ _______ _____ _____    ______ ____
ROOT
ATOM      1  O   UNL     1      13.070   8.152   4.064  0.00  0.00    -0.266 OA
ATOM      2  O   UNL     1       8.838  10.344   6.205  0.00  0.00    -0.252 OA
ATOM      5  N   UNL     1       8.756   8.068   6.613  0.00  0.00    -0.284 N 
ATOM      6  N   UNL     1      11.481   7.005   5.336  0.00  0.00    -0.310 N 
ATOM      7  N   UNL     1       9.480   9.562   8.291  0.00  0.00    -0.269 N 
ATOM      9  C   UNL     1       9.064   6.673   4.561  0.00  0.00    +0.027 C 
ATOM     10  C   UNL     1       9.774   5.799   6.746  0.00  0.00    +0.054 C 
ATOM     11  C   UNL     1       9.103   5.421   5.428  0.00  0.00    +0.018 C 
ATOM     12  C   UNL     1       8.264   7.783   5.262  0.00  0.00    +0.114 C 
ATOM     13  C   UNL     1      10.500   7.107   4.247  0.00  0.00    +0.130 C 
ATOM     14  C   UNL     1       8.941   6.881   7.466  0.00  0.00    +0.119 C 
ATOM     15  C   UNL     1      11.184   6.312   6.513  0.00  0.00    +0.027 A 
ATOM     16  C   UNL     1      12.133   6.130   7.448  0.00  0.00    +0.024 A 
ATOM     17  C   UNL     1      12.758   7.548   5.091  0.00  0.00    +0.273 A 
ATOM     18  C   UNL     1       9.021   9.405   6.984  0.00  0.00    +0.306 C 
ATOM     19  C   UNL     1      13.779   7.348   6.168  0.00  0.00    +0.099 A 
ATOM     20  C   UNL     1      13.454   6.661   7.269  0.00  0.00    +0.030 A 
ATOM     35  H   UNL     1       9.201   8.875   8.983  0.00  0.00    +0.156 HD
ENDROOT
BRANCH   7  21
ATOM     21  C   UNL     1      10.270  10.621   8.799  0.00  0.00    +0.035 A 
ATOM     23  C   UNL     1       9.730  11.499   9.735  0.00  0.00    +0.027 A 
ATOM     24  C   UNL     1      11.582  10.778   8.361  0.00  0.00    +0.027 A 
ATOM     26  C   UNL     1      10.508  12.543  10.236  0.00  0.00    +0.047 A 
ATOM     27  C   UNL     1      12.360  11.822   8.862  0.00  0.00    +0.047 A 
ATOM     28  C   UNL     1      11.823  12.704   9.800  0.00  0.00    +0.120 A 
BRANCH  28   4
ATOM      4  O   UNL     1      12.582  13.722  10.290  0.00  0.00    -0.495 OA
ATOM     34  C   UNL     1      13.641  14.200   9.461  0.00  0.00    +0.277 C 
ENDBRANCH  28   4
ENDBRANCH   7  21
BRANCH  19   8
ATOM      3  O   UNL     1      14.580  10.028   6.730  0.00  0.00    -0.270 OA
ATOM      8  N   UNL     1      15.022   7.872   5.976  0.00  0.00    -0.277 N 
ATOM     22  C   UNL     1      15.351   9.189   6.270  0.00  0.00    +0.248 C 
ATOM     36  H   UNL     1      15.666   7.280   5.463  0.00  0.00    +0.155 HD
BRANCH  22  25
ATOM     25  C   UNL     1      16.764   9.573   6.016  0.00  0.00    +0.037 A 
ATOM     29  C   UNL     1      17.185  10.837   6.374  0.00  0.00    +0.013 A 
ATOM     30  C   UNL     1      17.608   8.654   5.429  0.00  0.00    +0.013 A 
ATOM     31  C   UNL     1      18.511  11.196   6.136  0.00  0.00    +0.001 A 
ATOM     32  C   UNL     1      18.934   9.014   5.190  0.00  0.00    +0.001 A 
ATOM     33  C   UNL     1      19.386  10.285   5.542  0.00  0.00    +0.000 A 
ENDBRANCH  22  25
ENDBRANCH  19   8
TORSDOF 4
ENDMDL
MODEL 8
REMARK VINA RESULT:      -6.7     31.849     34.631
REMARK  Name = 7164727
REMARK  5 active torsions:
REMARK  status: ('A' for Active; 'I' for Inactive)
REMARK    1  A    between atoms: O_4  and  C_28
REMARK    2  A    between atoms: O_4  and  C_34
REMARK    3  A    between atoms: N_7  and  C_21
REMARK    4  A    between atoms: N_8  and  C_19
REMARK    5  A    between atoms: C_22  and  C_25
REMARK                            x       y       z     vdW  Elec       q    Type
REMARK                         _______ _______ _______ _____ _____    ______ ____
ROOT
ATOM      1  O   UNL     1       9.246 -10.810  31.866  0.00  0.00    -0.266 OA
ATOM      2  O   UNL     1       7.674  -9.979  36.779  0.00  0.00    -0.252 OA
ATOM      5  N   UNL     1       7.776  -7.936  35.698  0.00  0.00    -0.284 N 
ATOM      6  N   UNL     1       8.618  -8.730  32.724  0.00  0.00    -0.310 N 
ATOM      7  N   UNL     1       5.708  -9.033  35.997  0.00  0.00    -0.269 N 
ATOM      9  C   UNL     1       9.954  -7.523  34.543  0.00  0.00    +0.027 C 
ATOM     10  C   UNL     1       7.898  -6.505  33.663  0.00  0.00    +0.054 C 
ATOM     11  C   UNL     1       9.379  -6.252  33.929  0.00  0.00    +0.018 C 
ATOM     12  C   UNL     1       9.231  -7.856  35.858  0.00  0.00    +0.114 C 
ATOM     13  C   UNL     1       9.850  -8.661  33.523  0.00  0.00    +0.130 C 
ATOM     14  C   UNL     1       7.168  -6.792  34.993  0.00  0.00    +0.119 C 
ATOM     15  C   UNL     1       7.705  -7.672  32.712  0.00  0.00    +0.027 A 
ATOM     16  C   UNL     1       6.644  -7.705  31.887  0.00  0.00    +0.024 A 
ATOM     17  C   UNL     1       8.460  -9.862  31.901  0.00  0.00    +0.273 A 
ATOM     18  C   UNL     1       7.087  -9.063  36.199  0.00  0.00    +0.306 C 
ATOM     19  C   UNL     1       7.252  -9.873  31.016  0.00  0.00    +0.099 A 
ATOM     20  C   UNL     1       6.415  -8.829  31.025  0.00  0.00    +0.030 A 
ATOM     35  H   UNL     1       5.251  -8.129  35.933  0.00  0.00    +0.156 HD
ENDROOT
BRANCH   7  21
ATOM     21  C   UNL     1       4.830 -10.141  35.917  0.00  0.00    +0.035 A 
ATOM     23  C   UNL     1       4.704 -10.839  34.719  0.00  0.00    +0.027 A 
ATOM     24  C   UNL     1       4.099 -10.527  37.038  0.00  0.00    +0.027 A 
ATOM     26  C   UNL     1       3.840 -11.931  34.640  0.00  0.00    +0.047 A 
ATOM     27  C   UNL     1       3.235 -11.619  36.959  0.00  0.00    +0.047 A 
ATOM     28  C   UNL     1       3.106 -12.322  35.760  0.00  0.00    +0.120 A 
BRANCH  28   4
ATOM      4  O   UNL     1       2.264 -13.388  35.684  0.00  0.00    -0.495 OA
ATOM     34  C   UNL     1       2.293 -14.154  34.479  0.00  0.00    +0.277 C 
ENDBRANCH  28   4
ENDBRANCH   7  21
BRANCH  19   8
ATOM      3  O   UNL     1       5.963 -12.306  31.769  0.00  0.00    -0.270 OA
ATOM      8  N   UNL     1       7.053 -10.959  30.217  0.00  0.00    -0.277 N 
ATOM     22  C   UNL     1       6.418 -12.118  30.643  0.00  0.00    +0.248 C 
ATOM     36  H   UNL     1       7.533 -10.930  29.324  0.00  0.00    +0.155 HD
BRANCH  22  25
ATOM     25  C   UNL     1       6.274 -13.187  29.621  0.00  0.00    +0.037 A 
ATOM     29  C   UNL     1       5.115 -13.934  29.598  0.00  0.00    +0.013 A 
ATOM     30  C   UNL     1       7.304 -13.397  28.729  0.00  0.00    +0.013 A 
ATOM     31  C   UNL     1       4.980 -14.937  28.638  0.00  0.00    +0.001 A 
ATOM     32  C   UNL     1       7.169 -14.401  27.770  0.00  0.00    +0.001 A 
ATOM     33  C   UNL     1       6.008 -15.172  27.725  0.00  0.00    +0.000 A 
ENDBRANCH  22  25
ENDBRANCH  19   8
TORSDOF 4
ENDMDL
MODEL 9
REMARK VINA RESULT:      -6.7      4.448      8.324
REMARK  Name = 7164727
REMARK  5 active torsions:
REMARK  status: ('A' for Active; 'I' for Inactive)
REMARK    1  A    between atoms: O_4  and  C_28
REMARK    2  A    between atoms: O_4  and  C_34
REMARK    3  A    between atoms: N_7  and  C_21
REMARK    4  A    between atoms: N_8  and  C_19
REMARK    5  A    between atoms: C_22  and  C_25
REMARK                            x       y       z     vdW  Elec       q    Type
REMARK                         _______ _______ _______ _____ _____    ______ ____
ROOT
ATOM      1  O   UNL     1      12.140   7.833   2.275  0.00  0.00    -0.266 OA
ATOM      2  O   UNL     1      13.058   5.806  -2.452  0.00  0.00    -0.252 OA
ATOM      5  N   UNL     1      13.548   4.193  -0.868  0.00  0.00    -0.284 N 
ATOM      6  N   UNL     1      12.785   5.623   1.882  0.00  0.00    -0.310 N 
ATOM      7  N   UNL     1      11.504   4.135  -2.045  0.00  0.00    -0.269 N 
ATOM      9  C   UNL     1      15.080   4.998   0.937  0.00  0.00    +0.027 C 
ATOM     10  C   UNL     1      13.442   3.232   1.428  0.00  0.00    +0.054 C 
ATOM     11  C   UNL     1      14.877   3.685   1.684  0.00  0.00    +0.018 C 
ATOM     12  C   UNL     1      14.851   4.796  -0.570  0.00  0.00    +0.114 C 
ATOM     13  C   UNL     1      14.143   6.057   1.527  0.00  0.00    +0.130 C 
ATOM     14  C   UNL     1      13.232   2.987  -0.082  0.00  0.00    +0.119 C 
ATOM     15  C   UNL     1      12.447   4.266   1.920  0.00  0.00    +0.027 A 
ATOM     16  C   UNL     1      11.235   3.885   2.359  0.00  0.00    +0.024 A 
ATOM     17  C   UNL     1      11.881   6.629   2.277  0.00  0.00    +0.273 A 
ATOM     18  C   UNL     1      12.715   4.793  -1.838  0.00  0.00    +0.306 C 
ATOM     19  C   UNL     1      10.533   6.164   2.733  0.00  0.00    +0.099 A 
ATOM     20  C   UNL     1      10.261   4.855   2.771  0.00  0.00    +0.030 A 
ATOM     35  H   UNL     1      11.463   3.137  -1.869  0.00  0.00    +0.156 HD
ENDROOT
BRANCH   7  21
ATOM     21  C   UNL     1      10.298   4.695  -2.534  0.00  0.00    +0.035 A 
ATOM     23  C   UNL     1       9.652   5.689  -1.804  0.00  0.00    +0.027 A 
ATOM     24  C   UNL     1       9.767   4.249  -3.741  0.00  0.00    +0.027 A 
ATOM     26  C   UNL     1       8.464   6.241  -2.284  0.00  0.00    +0.047 A 
ATOM     27  C   UNL     1       8.579   4.801  -4.221  0.00  0.00    +0.047 A 
ATOM     28  C   UNL     1       7.928   5.797  -3.493  0.00  0.00    +0.120 A 
BRANCH  28   4
ATOM      4  O   UNL     1       6.771   6.337  -3.963  0.00  0.00    -0.495 OA
ATOM     34  C   UNL     1       5.872   6.886  -2.999  0.00  0.00    +0.277 C 
ENDBRANCH  28   4
ENDBRANCH   7  21
BRANCH  19   8
ATOM      3  O   UNL     1       9.028   7.842   0.983  0.00  0.00    -0.270 OA
ATOM      8  N   UNL     1       9.624   7.108   3.108  0.00  0.00    -0.277 N 
ATOM     22  C   UNL     1       8.922   7.896   2.206  0.00  0.00    +0.248 C 
ATOM     36  H   UNL     1       9.595   7.309   4.102  0.00  0.00    +0.155 HD
BRANCH  22  25
ATOM     25  C   UNL     1       7.956   8.855   2.802  0.00  0.00    +0.037 A 
ATOM     29  C   UNL     1       7.081   9.522   1.971  0.00  0.00    +0.013 A 
ATOM     30  C   UNL     1       7.966   9.047   4.168  0.00  0.00    +0.013 A 
ATOM     31  C   UNL     1       6.174  10.422   2.531  0.00  0.00    +0.001 A 
ATOM     32  C   UNL     1       7.060   9.947   4.728  0.00  0.00    +0.001 A 
ATOM     33  C   UNL     1       6.165  10.636   3.910  0.00  0.00    +0.000 A 
ENDBRANCH  22  25
ENDBRANCH  19   8
TORSDOF 4
ENDMDL
MODEL 10
REMARK VINA RESULT:      -6.7     24.975     27.710
REMARK  Name = 7164727
REMARK  5 active torsions:
REMARK  status: ('A' for Active; 'I' for Inactive)
REMARK    1  A    between atoms: O_4  and  C_28
REMARK    2  A    between atoms: O_4  and  C_34
REMARK    3  A    between atoms: N_7  and  C_21
REMARK    4  A    between atoms: N_8  and  C_19
REMARK    5  A    between atoms: C_22  and  C_25
REMARK                            x       y       z     vdW  Elec       q    Type
REMARK                         _______ _______ _______ _____ _____    ______ ____
ROOT
ATOM      1  O   UNL     1      -4.461 -12.877   9.790  0.00  0.00    -0.266 OA
ATOM      2  O   UNL     1      -5.806 -13.656  14.778  0.00  0.00    -0.252 OA
ATOM      5  N   UNL     1      -3.558 -13.114  14.713  0.00  0.00    -0.284 N 
ATOM      6  N   UNL     1      -3.034 -12.566  11.613  0.00  0.00    -0.310 N 
ATOM      7  N   UNL     1      -5.166 -11.488  15.296  0.00  0.00    -0.269 N 
ATOM      9  C   UNL     1      -2.242 -14.495  13.097  0.00  0.00    +0.027 C 
ATOM     10  C   UNL     1      -1.526 -12.198  13.600  0.00  0.00    +0.054 C 
ATOM     11  C   UNL     1      -1.023 -13.618  13.351  0.00  0.00    +0.018 C 
ATOM     12  C   UNL     1      -3.180 -14.473  14.316  0.00  0.00    +0.114 C 
ATOM     13  C   UNL     1      -2.943 -14.018  11.821  0.00  0.00    +0.130 C 
ATOM     14  C   UNL     1      -2.430 -12.175  14.852  0.00  0.00    +0.119 C 
ATOM     15  C   UNL     1      -2.299 -11.676  12.403  0.00  0.00    +0.027 A 
ATOM     16  C   UNL     1      -2.306 -10.361  12.122  0.00  0.00    +0.024 A 
ATOM     17  C   UNL     1      -3.811 -12.129  10.522  0.00  0.00    +0.273 A 
ATOM     18  C   UNL     1      -4.922 -12.807  14.916  0.00  0.00    +0.306 C 
ATOM     19  C   UNL     1      -3.814 -10.655  10.259  0.00  0.00    +0.099 A 
ATOM     20  C   UNL     1      -3.080  -9.844  11.030  0.00  0.00    +0.030 A 
ATOM     35  H   UNL     1      -4.441 -10.991  15.801  0.00  0.00    +0.156 HD
ENDROOT
BRANCH   7  21
ATOM     21  C   UNL     1      -6.359 -10.750  15.103  0.00  0.00    +0.035 A 
ATOM     23  C   UNL     1      -7.064 -10.274  16.206  0.00  0.00    +0.027 A 
ATOM     24  C   UNL     1      -6.820 -10.503  13.813  0.00  0.00    +0.027 A 
ATOM     26  C   UNL     1      -8.239  -9.547  16.017  0.00  0.00    +0.047 A 
ATOM     27  C   UNL     1      -7.995  -9.775  13.624  0.00  0.00    +0.047 A 
ATOM     28  C   UNL     1      -8.704  -9.297  14.726  0.00  0.00    +0.120 A 
BRANCH  28   4
ATOM      4  O   UNL     1      -9.850  -8.586  14.542  0.00  0.00    -0.495 OA
ATOM     34  C   UNL     1     -10.238  -7.697  15.589  0.00  0.00    +0.277 C 
ENDBRANCH  28   4
ENDBRANCH   7  21
BRANCH  19   8
ATOM      3  O   UNL     1      -6.421  -9.513  10.452  0.00  0.00    -0.270 OA
ATOM      8  N   UNL     1      -4.567 -10.191   9.223  0.00  0.00    -0.277 N 
ATOM     22  C   UNL     1      -5.834  -9.645   9.381  0.00  0.00    +0.248 C 
ATOM     36  H   UNL     1      -4.207 -10.404   8.299  0.00  0.00    +0.155 HD
BRANCH  22  25
ATOM     25  C   UNL     1      -6.492  -9.171   8.136  0.00  0.00    +0.037 A 
ATOM     29  C   UNL     1      -6.089  -9.700   6.928  0.00  0.00    +0.013 A 
ATOM     30  C   UNL     1      -7.485  -8.219   8.229  0.00  0.00    +0.013 A 
ATOM     31  C   UNL     1      -6.707  -9.256   5.759  0.00  0.00    +0.001 A 
ATOM     32  C   UNL     1      -8.102  -7.774   7.060  0.00  0.00    +0.001 A 
ATOM     33  C   UNL     1      -7.714  -8.292   5.825  0.00  0.00    +0.000 A 
ENDBRANCH  22  25
ENDBRANCH  19   8
TORSDOF 4
ENDMDL
