MODEL 1
REMARK VINA RESULT:      -7.8      0.000      0.000
REMARK  Name = 11941480
REMARK  6 active torsions:
REMARK  status: ('A' for Active; 'I' for Inactive)
REMARK    1  A    between atoms: N_8  and  C_11
REMARK    2  A    between atoms: N_10  and  C_24
REMARK    3  A    between atoms: C_22  and  C_25
REMARK    4  A    between atoms: C_24  and  C_26
REMARK    5  A    between atoms: C_24  and  C_27
REMARK    6  A    between atoms: C_30  and  C_33
REMARK                            x       y       z     vdW  Elec       q    Type
REMARK                         _______ _______ _______ _____ _____    ______ ____
ROOT
ATOM      4  O   UNL     1      11.173   5.805  -1.594  0.00  0.00    -0.273 OA
ATOM      5  O   UNL     1      11.293   3.302   3.042  0.00  0.00    -0.270 OA
ATOM      7  N   UNL     1      12.169   4.327   1.178  0.00  0.00    -0.284 N 
ATOM      9  N   UNL     1      10.169   6.333   0.382  0.00  0.00    -0.283 N 
ATOM     11  C   UNL     1      13.665   5.088  -0.488  0.00  0.00    +0.105 C 
ATOM     12  C   UNL     1      12.490   5.512   0.405  0.00  0.00    +0.183 C 
ATOM     13  C   UNL     1      13.471   3.578  -0.638  0.00  0.00    +0.043 C 
ATOM     14  C   UNL     1      12.903   3.160   0.709  0.00  0.00    +0.111 C 
ATOM     15  C   UNL     1      11.227   5.854  -0.363  0.00  0.00    +0.240 C 
ATOM     16  C   UNL     1      11.407   4.297   2.327  0.00  0.00    +0.249 C 
ATOM     17  C   UNL     1      10.663   5.528   2.704  0.00  0.00    +0.059 A 
ATOM     18  C   UNL     1      10.037   6.388   1.787  0.00  0.00    +0.046 A 
ATOM     20  C   UNL     1      10.455   5.718   4.083  0.00  0.00    +0.023 A 
ATOM     21  C   UNL     1       9.163   7.376   2.272  0.00  0.00    +0.024 A 
ATOM     22  C   UNL     1       9.623   6.734   4.547  0.00  0.00    -0.017 A 
ATOM     23  C   UNL     1       8.965   7.556   3.640  0.00  0.00    +0.010 A 
ATOM     35  H   UNL     1       9.427   6.778  -0.152  0.00  0.00    +0.155 HD
ENDROOT
BRANCH  11   8
ATOM      6  O   UNL     1      15.080   7.602  -0.555  0.00  0.00    -0.253 OA
ATOM      8  N   UNL     1      14.929   5.392   0.142  0.00  0.00    -0.294 N 
ATOM     10  N   UNL     1      16.747   6.658   0.754  0.00  0.00    -0.297 N 
ATOM     19  C   UNL     1      15.542   6.640   0.057  0.00  0.00    +0.300 C 
ATOM     34  H   UNL     1      15.364   4.684   0.726  0.00  0.00    +0.151 HD
ATOM     36  H   UNL     1      17.008   5.836   1.290  0.00  0.00    +0.150 HD
BRANCH  10  24
ATOM     24  C   UNL     1      17.590   7.829   0.830  0.00  0.00    +0.068 C 
ATOM     26  C   UNL     1      18.812   7.660  -0.061  0.00  0.00    +0.027 C 
ATOM     27  C   UNL     1      17.992   8.105   2.273  0.00  0.00    +0.027 C 
ENDBRANCH  10  24
ENDBRANCH  11   8
BRANCH  22  25
ATOM     25  C   UNL     1       9.424   6.917   5.969  0.00  0.00    -0.017 A 
ATOM     28  C   UNL     1       9.512   5.825   6.832  0.00  0.00    +0.021 A 
ATOM     29  C   UNL     1       9.145   8.186   6.477  0.00  0.00    +0.008 A 
ATOM     30  C   UNL     1       9.321   6.001   8.202  0.00  0.00    +0.055 A 
ATOM     31  C   UNL     1       8.954   8.363   7.847  0.00  0.00    +0.001 A 
ATOM     32  C   UNL     1       9.043   7.271   8.709  0.00  0.00    +0.012 A 
BRANCH  30  33
ATOM      1  F   UNL     1      10.498   4.884   9.960  0.00  0.00    -0.166 F 
ATOM      2  F   UNL     1       8.337   4.701   9.951  0.00  0.00    -0.166 F 
ATOM      3  F   UNL     1       9.520   3.647   8.463  0.00  0.00    -0.166 F 
ATOM     33  C   UNL     1       9.417   4.835   9.127  0.00  0.00    +0.417 C 
ENDBRANCH  30  33
ENDBRANCH  22  25
TORSDOF 4
ENDMDL
MODEL 2
REMARK VINA RESULT:      -7.7      3.420      6.269
REMARK  Name = 11941480
REMARK  6 active torsions:
REMARK  status: ('A' for Active; 'I' for Inactive)
REMARK    1  A    between atoms: N_8  and  C_11
REMARK    2  A    between atoms: N_10  and  C_24
REMARK    3  A    between atoms: C_22  and  C_25
REMARK    4  A    between atoms: C_24  and  C_26
REMARK    5  A    between atoms: C_24  and  C_27
REMARK    6  A    between atoms: C_30  and  C_33
REMARK                            x       y       z     vdW  Elec       q    Type
REMARK                         _______ _______ _______ _____ _____    ______ ____
ROOT
ATOM      4  O   UNL     1      11.371   4.001  -2.111  0.00  0.00    -0.273 OA
ATOM      5  O   UNL     1      10.605   8.333   0.789  0.00  0.00    -0.270 OA
ATOM      7  N   UNL     1      10.143   6.786  -0.849  0.00  0.00    -0.284 N 
ATOM      9  N   UNL     1      11.239   4.245   0.150  0.00  0.00    -0.283 N 
ATOM     11  C   UNL     1       9.207   5.698  -2.729  0.00  0.00    +0.105 C 
ATOM     12  C   UNL     1       9.663   5.485  -1.279  0.00  0.00    +0.183 C 
ATOM     13  C   UNL     1      10.063   6.873  -3.203  0.00  0.00    +0.043 C 
ATOM     14  C   UNL     1      10.207   7.730  -1.956  0.00  0.00    +0.111 C 
ATOM     15  C   UNL     1      10.847   4.547  -1.138  0.00  0.00    +0.240 C 
ATOM     16  C   UNL     1      10.356   7.175   0.456  0.00  0.00    +0.249 C 
ATOM     17  C   UNL     1      10.307   6.131   1.513  0.00  0.00    +0.059 A 
ATOM     18  C   UNL     1      10.801   4.825   1.360  0.00  0.00    +0.046 A 
ATOM     20  C   UNL     1       9.884   6.566   2.783  0.00  0.00    +0.023 A 
ATOM     21  C   UNL     1      10.923   4.008   2.499  0.00  0.00    +0.024 A 
ATOM     22  C   UNL     1       9.967   5.725   3.891  0.00  0.00    -0.017 A 
ATOM     23  C   UNL     1      10.499   4.449   3.752  0.00  0.00    +0.010 A 
ATOM     35  H   UNL     1      11.862   3.446   0.240  0.00  0.00    +0.155 HD
ENDROOT
BRANCH  11   8
ATOM      6  O   UNL     1       7.470   5.502  -5.024  0.00  0.00    -0.253 OA
ATOM      8  N   UNL     1       7.800   6.020  -2.785  0.00  0.00    -0.294 N 
ATOM     10  N   UNL     1       5.714   6.272  -3.718  0.00  0.00    -0.297 N 
ATOM     19  C   UNL     1       7.035   5.895  -3.943  0.00  0.00    +0.300 C 
ATOM     34  H   UNL     1       7.329   6.294  -1.928  0.00  0.00    +0.151 HD
ATOM     36  H   UNL     1       5.434   6.512  -2.771  0.00  0.00    +0.150 HD
BRANCH  10  24
ATOM     24  C   UNL     1       4.704   6.239  -4.749  0.00  0.00    +0.068 C 
ATOM     26  C   UNL     1       4.337   7.653  -5.177  0.00  0.00    +0.027 C 
ATOM     27  C   UNL     1       3.478   5.471  -4.272  0.00  0.00    +0.027 C 
ENDBRANCH  10  24
ENDBRANCH  11   8
BRANCH  22  25
ATOM     25  C   UNL     1       9.523   6.189   5.189  0.00  0.00    -0.017 A 
ATOM     28  C   UNL     1       9.789   5.431   6.329  0.00  0.00    +0.021 A 
ATOM     29  C   UNL     1       8.830   7.395   5.298  0.00  0.00    +0.008 A 
ATOM     30  C   UNL     1       9.361   5.878   7.578  0.00  0.00    +0.055 A 
ATOM     31  C   UNL     1       8.402   7.842   6.548  0.00  0.00    +0.001 A 
ATOM     32  C   UNL     1       8.668   7.084   7.688  0.00  0.00    +0.012 A 
BRANCH  30  33
ATOM      1  F   UNL     1       8.667   5.150   9.749  0.00  0.00    -0.166 F 
ATOM      2  F   UNL     1       9.793   3.735   8.549  0.00  0.00    -0.166 F 
ATOM      3  F   UNL     1      10.796   5.454   9.426  0.00  0.00    -0.166 F 
ATOM     33  C   UNL     1       9.646   5.070   8.800  0.00  0.00    +0.417 C 
ENDBRANCH  30  33
ENDBRANCH  22  25
TORSDOF 4
ENDMDL
MODEL 3
REMARK VINA RESULT:      -7.7     24.606     28.803
REMARK  Name = 11941480
REMARK  6 active torsions:
REMARK  status: ('A' for Active; 'I' for Inactive)
REMARK    1  A    between atoms: N_8  and  C_11
REMARK    2  A    between atoms: N_10  and  C_24
REMARK    3  A    between atoms: C_22  and  C_25
REMARK    4  A    between atoms: C_24  and  C_26
REMARK    5  A    between atoms: C_24  and  C_27
REMARK    6  A    between atoms: C_30  and  C_33
REMARK                            x       y       z     vdW  Elec       q    Type
REMARK                         _______ _______ _______ _____ _____    ______ ____
ROOT
ATOM      4  O   UNL     1      -6.146 -10.990  20.605  0.00  0.00    -0.273 OA
ATOM      5  O   UNL     1      -7.259 -13.728  16.243  0.00  0.00    -0.270 OA
ATOM      7  N   UNL     1      -7.638 -12.218  17.935  0.00  0.00    -0.284 N 
ATOM      9  N   UNL     1      -4.982 -11.175  18.655  0.00  0.00    -0.283 N 
ATOM     11  C   UNL     1      -8.687 -10.703  19.418  0.00  0.00    +0.105 C 
ATOM     12  C   UNL     1      -7.430 -10.927  18.565  0.00  0.00    +0.183 C 
ATOM     13  C   UNL     1      -9.163 -12.123  19.730  0.00  0.00    +0.043 C 
ATOM     14  C   UNL     1      -8.809 -12.897  18.470  0.00  0.00    +0.111 C 
ATOM     15  C   UNL     1      -6.154 -11.068  19.374  0.00  0.00    +0.240 C 
ATOM     16  C   UNL     1      -6.945 -12.703  16.847  0.00  0.00    +0.249 C 
ATOM     17  C   UNL     1      -5.739 -11.959  16.397  0.00  0.00    +0.059 A 
ATOM     18  C   UNL     1      -4.818 -11.347  17.263  0.00  0.00    +0.046 A 
ATOM     20  C   UNL     1      -5.448 -12.039  15.023  0.00  0.00    +0.023 A 
ATOM     21  C   UNL     1      -3.596 -10.889  16.739  0.00  0.00    +0.024 A 
ATOM     22  C   UNL     1      -4.252 -11.536  14.514  0.00  0.00    -0.017 A 
ATOM     23  C   UNL     1      -3.319 -10.972  15.375  0.00  0.00    +0.010 A 
ATOM     35  H   UNL     1      -4.128 -11.029  19.189  0.00  0.00    +0.155 HD
ENDROOT
BRANCH  11   8
ATOM      6  O   UNL     1      -8.234  -8.831  17.270  0.00  0.00    -0.253 OA
ATOM      8  N   UNL     1      -9.687  -9.966  18.681  0.00  0.00    -0.294 N 
ATOM     10  N   UNL     1     -10.527  -8.506  17.118  0.00  0.00    -0.297 N 
ATOM     19  C   UNL     1      -9.377  -9.078  17.654  0.00  0.00    +0.300 C 
ATOM     34  H   UNL     1     -10.667 -10.147  18.878  0.00  0.00    +0.151 HD
ATOM     36  H   UNL     1     -11.429  -8.831  17.452  0.00  0.00    +0.150 HD
BRANCH  10  24
ATOM     24  C   UNL     1     -10.494  -7.549  16.037  0.00  0.00    +0.068 C 
ATOM     26  C   UNL     1     -11.315  -6.318  16.395  0.00  0.00    +0.027 C 
ATOM     27  C   UNL     1     -10.988  -8.185  14.743  0.00  0.00    +0.027 C 
ENDBRANCH  10  24
ENDBRANCH  11   8
BRANCH  22  25
ATOM     25  C   UNL     1      -3.973 -11.623  13.097  0.00  0.00    -0.017 A 
ATOM     28  C   UNL     1      -3.845 -10.460  12.338  0.00  0.00    +0.021 A 
ATOM     29  C   UNL     1      -3.830 -12.871  12.490  0.00  0.00    +0.008 A 
ATOM     30  C   UNL     1      -3.576 -10.545  10.972  0.00  0.00    +0.055 A 
ATOM     31  C   UNL     1      -3.560 -12.956  11.125  0.00  0.00    +0.001 A 
ATOM     32  C   UNL     1      -3.433 -11.793  10.366  0.00  0.00    +0.012 A 
BRANCH  30  33
ATOM      1  F   UNL     1      -2.165  -8.805  10.131  0.00  0.00    -0.166 F 
ATOM      2  F   UNL     1      -3.786  -9.465   8.849  0.00  0.00    -0.166 F 
ATOM      3  F   UNL     1      -4.218  -8.283  10.621  0.00  0.00    -0.166 F 
ATOM     33  C   UNL     1      -3.437  -9.302  10.159  0.00  0.00    +0.417 C 
ENDBRANCH  30  33
ENDBRANCH  22  25
TORSDOF 4
ENDMDL
MODEL 4
REMARK VINA RESULT:      -7.5     25.579     28.983
REMARK  Name = 11941480
REMARK  6 active torsions:
REMARK  status: ('A' for Active; 'I' for Inactive)
REMARK    1  A    between atoms: N_8  and  C_11
REMARK    2  A    between atoms: N_10  and  C_24
REMARK    3  A    between atoms: C_22  and  C_25
REMARK    4  A    between atoms: C_24  and  C_26
REMARK    5  A    between atoms: C_24  and  C_27
REMARK    6  A    between atoms: C_30  and  C_33
REMARK                            x       y       z     vdW  Elec       q    Type
REMARK                         _______ _______ _______ _____ _____    ______ ____
ROOT
ATOM      4  O   UNL     1     -11.063  -9.680  18.971  0.00  0.00    -0.273 OA
ATOM      5  O   UNL     1      -8.673 -11.765  14.763  0.00  0.00    -0.270 OA
ATOM      7  N   UNL     1     -10.010 -10.284  15.907  0.00  0.00    -0.284 N 
ATOM      9  N   UNL     1      -8.858 -10.125  18.610  0.00  0.00    -0.283 N 
ATOM     11  C   UNL     1     -11.575  -8.588  16.423  0.00  0.00    +0.105 C 
ATOM     12  C   UNL     1     -10.192  -9.145  16.787  0.00  0.00    +0.183 C 
ATOM     13  C   UNL     1     -12.319  -9.809  15.879  0.00  0.00    +0.043 C 
ATOM     14  C   UNL     1     -11.228 -10.600  15.174  0.00  0.00    +0.111 C 
ATOM     15  C   UNL     1     -10.103  -9.699  18.196  0.00  0.00    +0.240 C 
ATOM     16  C   UNL     1      -8.812 -10.910  15.636  0.00  0.00    +0.249 C 
ATOM     17  C   UNL     1      -7.631 -10.547  16.464  0.00  0.00    +0.059 A 
ATOM     18  C   UNL     1      -7.683 -10.280  17.842  0.00  0.00    +0.046 A 
ATOM     20  C   UNL     1      -6.382 -10.653  15.826  0.00  0.00    +0.023 A 
ATOM     21  C   UNL     1      -6.477 -10.191  18.561  0.00  0.00    +0.024 A 
ATOM     22  C   UNL     1      -5.197 -10.513  16.547  0.00  0.00    -0.017 A 
ATOM     23  C   UNL     1      -5.245 -10.295  17.918  0.00  0.00    +0.010 A 
ATOM     35  H   UNL     1      -8.756 -10.267  19.612  0.00  0.00    +0.155 HD
ENDROOT
BRANCH  11   8
ATOM      6  O   UNL     1     -13.546  -6.580  15.782  0.00  0.00    -0.253 OA
ATOM      8  N   UNL     1     -11.468  -7.552  15.422  0.00  0.00    -0.294 N 
ATOM     10  N   UNL     1     -12.111  -5.740  14.164  0.00  0.00    -0.297 N 
ATOM     19  C   UNL     1     -12.474  -6.621  15.179  0.00  0.00    +0.300 C 
ATOM     34  H   UNL     1     -10.596  -7.459  14.911  0.00  0.00    +0.151 HD
ATOM     36  H   UNL     1     -11.175  -5.807  13.777  0.00  0.00    +0.150 HD
BRANCH  10  24
ATOM     24  C   UNL     1     -12.970  -4.671  13.710  0.00  0.00    +0.068 C 
ATOM     26  C   UNL     1     -14.301  -5.231  13.227  0.00  0.00    +0.027 C 
ATOM     27  C   UNL     1     -12.284  -3.859  12.619  0.00  0.00    +0.027 C 
ENDBRANCH  10  24
ENDBRANCH  11   8
BRANCH  22  25
ATOM     25  C   UNL     1      -3.921 -10.620  15.872  0.00  0.00    -0.017 A 
ATOM     28  C   UNL     1      -3.870 -10.671  14.480  0.00  0.00    +0.021 A 
ATOM     29  C   UNL     1      -2.741 -10.672  16.616  0.00  0.00    +0.008 A 
ATOM     30  C   UNL     1      -2.640 -10.774  13.831  0.00  0.00    +0.055 A 
ATOM     31  C   UNL     1      -1.511 -10.775  15.967  0.00  0.00    +0.001 A 
ATOM     32  C   UNL     1      -1.460 -10.825  14.575  0.00  0.00    +0.012 A 
BRANCH  30  33
ATOM      1  F   UNL     1      -1.459 -10.255  11.816  0.00  0.00    -0.166 F 
ATOM      2  F   UNL     1      -2.605 -12.097  11.838  0.00  0.00    -0.166 F 
ATOM      3  F   UNL     1      -3.631 -10.182  11.753  0.00  0.00    -0.166 F 
ATOM     33  C   UNL     1      -2.583 -10.827  12.341  0.00  0.00    +0.417 C 
ENDBRANCH  30  33
ENDBRANCH  22  25
TORSDOF 4
ENDMDL
MODEL 5
REMARK VINA RESULT:      -7.3     23.446     26.505
REMARK  Name = 11941480
REMARK  6 active torsions:
REMARK  status: ('A' for Active; 'I' for Inactive)
REMARK    1  A    between atoms: N_8  and  C_11
REMARK    2  A    between atoms: N_10  and  C_24
REMARK    3  A    between atoms: C_22  and  C_25
REMARK    4  A    between atoms: C_24  and  C_26
REMARK    5  A    between atoms: C_24  and  C_27
REMARK    6  A    between atoms: C_30  and  C_33
REMARK                            x       y       z     vdW  Elec       q    Type
REMARK                         _______ _______ _______ _____ _____    ______ ____
ROOT
ATOM      4  O   UNL     1      -1.337 -11.982  13.885  0.00  0.00    -0.273 OA
ATOM      5  O   UNL     1      -5.297 -13.438  10.727  0.00  0.00    -0.270 OA
ATOM      7  N   UNL     1      -4.272 -12.929  12.723  0.00  0.00    -0.284 N 
ATOM      9  N   UNL     1      -2.205 -10.946  12.051  0.00  0.00    -0.283 N 
ATOM     11  C   UNL     1      -3.812 -12.697  15.031  0.00  0.00    +0.105 C 
ATOM     12  C   UNL     1      -3.740 -11.975  13.678  0.00  0.00    +0.183 C 
ATOM     13  C   UNL     1      -3.736 -14.176  14.649  0.00  0.00    +0.043 C 
ATOM     14  C   UNL     1      -4.482 -14.237  13.326  0.00  0.00    +0.111 C 
ATOM     15  C   UNL     1      -2.326 -11.678  13.214  0.00  0.00    +0.240 C 
ATOM     16  C   UNL     1      -4.703 -12.635  11.446  0.00  0.00    +0.249 C 
ATOM     17  C   UNL     1      -4.408 -11.283  10.903  0.00  0.00    +0.059 A 
ATOM     18  C   UNL     1      -3.214 -10.580  11.134  0.00  0.00    +0.046 A 
ATOM     20  C   UNL     1      -5.336 -10.783   9.970  0.00  0.00    +0.023 A 
ATOM     21  C   UNL     1      -2.949  -9.427  10.374  0.00  0.00    +0.024 A 
ATOM     22  C   UNL     1      -5.077  -9.612   9.262  0.00  0.00    -0.017 A 
ATOM     23  C   UNL     1      -3.876  -8.940   9.454  0.00  0.00    +0.010 A 
ATOM     35  H   UNL     1      -1.283 -10.552  11.878  0.00  0.00    +0.155 HD
ENDROOT
BRANCH  11   8
ATOM      6  O   UNL     1      -4.302 -10.523  16.864  0.00  0.00    -0.253 OA
ATOM      8  N   UNL     1      -5.050 -12.396  15.712  0.00  0.00    -0.294 N 
ATOM     10  N   UNL     1      -6.488 -11.263  17.101  0.00  0.00    -0.297 N 
ATOM     19  C   UNL     1      -5.197 -11.320  16.584  0.00  0.00    +0.300 C 
ATOM     34  H   UNL     1      -5.869 -12.957  15.501  0.00  0.00    +0.151 HD
ATOM     36  H   UNL     1      -7.178 -11.922  16.752  0.00  0.00    +0.150 HD
BRANCH  10  24
ATOM     24  C   UNL     1      -6.915 -10.244  18.031  0.00  0.00    +0.068 C 
ATOM     26  C   UNL     1      -7.411 -10.880  19.322  0.00  0.00    +0.027 C 
ATOM     27  C   UNL     1      -7.986  -9.361  17.404  0.00  0.00    +0.027 C 
ENDBRANCH  10  24
ENDBRANCH  11   8
BRANCH  22  25
ATOM     25  C   UNL     1      -6.045  -9.111   8.309  0.00  0.00    -0.017 A 
ATOM     28  C   UNL     1      -6.903  -8.072   8.668  0.00  0.00    +0.021 A 
ATOM     29  C   UNL     1      -6.119  -9.667   7.032  0.00  0.00    +0.008 A 
ATOM     30  C   UNL     1      -7.835  -7.589   7.750  0.00  0.00    +0.055 A 
ATOM     31  C   UNL     1      -7.052  -9.185   6.114  0.00  0.00    +0.001 A 
ATOM     32  C   UNL     1      -7.909  -8.146   6.473  0.00  0.00    +0.012 A 
BRANCH  30  33
ATOM      1  F   UNL     1      -9.643  -6.142   7.152  0.00  0.00    -0.166 F 
ATOM      2  F   UNL     1      -9.517  -6.750   9.230  0.00  0.00    -0.166 F 
ATOM      3  F   UNL     1      -8.085  -5.324   8.428  0.00  0.00    -0.166 F 
ATOM     33  C   UNL     1      -8.753  -6.476   8.131  0.00  0.00    +0.417 C 
ENDBRANCH  30  33
ENDBRANCH  22  25
TORSDOF 4
ENDMDL
MODEL 6
REMARK VINA RESULT:      -7.3     25.726     29.705
REMARK  Name = 11941480
REMARK  6 active torsions:
REMARK  status: ('A' for Active; 'I' for Inactive)
REMARK    1  A    between atoms: N_8  and  C_11
REMARK    2  A    between atoms: N_10  and  C_24
REMARK    3  A    between atoms: C_22  and  C_25
REMARK    4  A    between atoms: C_24  and  C_26
REMARK    5  A    between atoms: C_24  and  C_27
REMARK    6  A    between atoms: C_30  and  C_33
REMARK                            x       y       z     vdW  Elec       q    Type
REMARK                         _______ _______ _______ _____ _____    ______ ____
ROOT
ATOM      4  O   UNL     1      -9.702 -12.511  20.356  0.00  0.00    -0.273 OA
ATOM      5  O   UNL     1      -7.661 -13.599  15.621  0.00  0.00    -0.270 OA
ATOM      7  N   UNL     1      -9.152 -12.678  17.111  0.00  0.00    -0.284 N 
ATOM      9  N   UNL     1      -7.595 -12.175  19.556  0.00  0.00    -0.283 N 
ATOM     11  C   UNL     1     -11.051 -11.622  18.045  0.00  0.00    +0.105 C 
ATOM     12  C   UNL     1      -9.517 -11.680  18.100  0.00  0.00    +0.183 C 
ATOM     13  C   UNL     1     -11.443 -13.015  17.550  0.00  0.00    +0.043 C 
ATOM     14  C   UNL     1     -10.319 -13.378  16.593  0.00  0.00    +0.111 C 
ATOM     15  C   UNL     1      -8.968 -12.192  19.418  0.00  0.00    +0.240 C 
ATOM     16  C   UNL     1      -7.895 -12.854  16.572  0.00  0.00    +0.249 C 
ATOM     17  C   UNL     1      -6.759 -12.124  17.193  0.00  0.00    +0.059 A 
ATOM     18  C   UNL     1      -6.616 -11.910  18.574  0.00  0.00    +0.046 A 
ATOM     20  C   UNL     1      -5.701 -11.789  16.328  0.00  0.00    +0.023 A 
ATOM     21  C   UNL     1      -5.389 -11.426  19.061  0.00  0.00    +0.024 A 
ATOM     22  C   UNL     1      -4.509 -11.266  16.826  0.00  0.00    -0.017 A 
ATOM     23  C   UNL     1      -4.348 -11.096  18.195  0.00  0.00    +0.010 A 
ATOM     35  H   UNL     1      -7.252 -12.288  20.507  0.00  0.00    +0.155 HD
ENDROOT
BRANCH  11   8
ATOM      6  O   UNL     1     -10.842  -8.766  18.398  0.00  0.00    -0.253 OA
ATOM      8  N   UNL     1     -11.497 -10.597  17.130  0.00  0.00    -0.294 N 
ATOM     10  N   UNL     1     -11.869  -8.472  16.338  0.00  0.00    -0.297 N 
ATOM     19  C   UNL     1     -11.355  -9.235  17.383  0.00  0.00    +0.300 C 
ATOM     34  H   UNL     1     -11.877 -10.881  16.232  0.00  0.00    +0.151 HD
ATOM     36  H   UNL     1     -12.205  -8.952  15.508  0.00  0.00    +0.150 HD
BRANCH  10  24
ATOM     24  C   UNL     1     -11.851  -7.028  16.341  0.00  0.00    +0.068 C 
ATOM     26  C   UNL     1     -13.104  -6.482  15.672  0.00  0.00    +0.027 C 
ATOM     27  C   UNL     1     -10.590  -6.508  15.661  0.00  0.00    +0.027 C 
ENDBRANCH  10  24
ENDBRANCH  11   8
BRANCH  22  25
ATOM     25  C   UNL     1      -3.434 -10.923  15.920  0.00  0.00    -0.017 A 
ATOM     28  C   UNL     1      -3.673 -10.852  14.548  0.00  0.00    +0.021 A 
ATOM     29  C   UNL     1      -2.158 -10.662  16.420  0.00  0.00    +0.008 A 
ATOM     30  C   UNL     1      -2.636 -10.522  13.676  0.00  0.00    +0.055 A 
ATOM     31  C   UNL     1      -1.121 -10.331  15.548  0.00  0.00    +0.001 A 
ATOM     32  C   UNL     1      -1.360 -10.261  14.176  0.00  0.00    +0.012 A 
BRANCH  30  33
ATOM      1  F   UNL     1      -1.963  -9.705  11.530  0.00  0.00    -0.166 F 
ATOM      2  F   UNL     1      -2.897 -11.662  11.589  0.00  0.00    -0.166 F 
ATOM      3  F   UNL     1      -4.096  -9.877  11.913  0.00  0.00    -0.166 F 
ATOM     33  C   UNL     1      -2.890 -10.444  12.207  0.00  0.00    +0.417 C 
ENDBRANCH  30  33
ENDBRANCH  22  25
TORSDOF 4
ENDMDL
MODEL 7
REMARK VINA RESULT:      -7.2     23.170     24.623
REMARK  Name = 11941480
REMARK  6 active torsions:
REMARK  status: ('A' for Active; 'I' for Inactive)
REMARK    1  A    between atoms: N_8  and  C_11
REMARK    2  A    between atoms: N_10  and  C_24
REMARK    3  A    between atoms: C_22  and  C_25
REMARK    4  A    between atoms: C_24  and  C_26
REMARK    5  A    between atoms: C_24  and  C_27
REMARK    6  A    between atoms: C_30  and  C_33
REMARK                            x       y       z     vdW  Elec       q    Type
REMARK                         _______ _______ _______ _____ _____    ______ ____
ROOT
ATOM      4  O   UNL     1      -6.328  -9.426   5.422  0.00  0.00    -0.273 OA
ATOM      5  O   UNL     1      -6.614 -13.062   9.225  0.00  0.00    -0.270 OA
ATOM      7  N   UNL     1      -6.221 -12.256   7.107  0.00  0.00    -0.284 N 
ATOM      9  N   UNL     1      -5.359  -9.468   7.483  0.00  0.00    -0.283 N 
ATOM     11  C   UNL     1      -5.803 -12.121   4.783  0.00  0.00    +0.105 C 
ATOM     12  C   UNL     1      -5.408 -11.534   6.145  0.00  0.00    +0.183 C 
ATOM     13  C   UNL     1      -7.233 -12.614   5.008  0.00  0.00    +0.043 C 
ATOM     14  C   UNL     1      -7.218 -13.091   6.452  0.00  0.00    +0.111 C 
ATOM     15  C   UNL     1      -5.776 -10.072   6.315  0.00  0.00    +0.240 C 
ATOM     16  C   UNL     1      -6.002 -12.311   8.466  0.00  0.00    +0.249 C 
ATOM     17  C   UNL     1      -4.989 -11.391   9.049  0.00  0.00    +0.059 A 
ATOM     18  C   UNL     1      -4.786 -10.067   8.626  0.00  0.00    +0.046 A 
ATOM     20  C   UNL     1      -4.330 -11.859  10.201  0.00  0.00    +0.023 A 
ATOM     21  C   UNL     1      -3.978  -9.223   9.408  0.00  0.00    +0.024 A 
ATOM     22  C   UNL     1      -3.494 -11.020  10.936  0.00  0.00    -0.017 A 
ATOM     23  C   UNL     1      -3.328  -9.697  10.547  0.00  0.00    +0.010 A 
ATOM     35  H   UNL     1      -5.396  -8.452   7.486  0.00  0.00    +0.155 HD
ENDROOT
BRANCH  11   8
ATOM      6  O   UNL     1      -3.122 -11.917   3.736  0.00  0.00    -0.253 OA
ATOM      8  N   UNL     1      -4.927 -13.209   4.415  0.00  0.00    -0.294 N 
ATOM     10  N   UNL     1      -3.019 -14.233   3.644  0.00  0.00    -0.297 N 
ATOM     19  C   UNL     1      -3.642 -13.018   3.915  0.00  0.00    +0.300 C 
ATOM     34  H   UNL     1      -5.238 -14.161   4.585  0.00  0.00    +0.151 HD
ATOM     36  H   UNL     1      -3.502 -15.090   3.896  0.00  0.00    +0.150 HD
BRANCH  10  24
ATOM     24  C   UNL     1      -1.678 -14.325   3.116  0.00  0.00    +0.068 C 
ATOM     26  C   UNL     1      -1.611 -15.383   2.024  0.00  0.00    +0.027 C 
ATOM     27  C   UNL     1      -0.683 -14.619   4.232  0.00  0.00    +0.027 C 
ENDBRANCH  10  24
ENDBRANCH  11   8
BRANCH  22  25
ATOM     25  C   UNL     1      -2.821 -11.520  12.116  0.00  0.00    -0.017 A 
ATOM     28  C   UNL     1      -2.380 -10.633  13.096  0.00  0.00    +0.021 A 
ATOM     29  C   UNL     1      -2.613 -12.891  12.271  0.00  0.00    +0.008 A 
ATOM     30  C   UNL     1      -1.732 -11.115  14.233  0.00  0.00    +0.055 A 
ATOM     31  C   UNL     1      -1.965 -13.374  13.408  0.00  0.00    +0.001 A 
ATOM     32  C   UNL     1      -1.525 -12.486  14.389  0.00  0.00    +0.012 A 
BRANCH  30  33
ATOM      1  F   UNL     1      -0.122 -10.573  15.918  0.00  0.00    -0.166 F 
ATOM      2  F   UNL     1      -0.979  -8.919  14.807  0.00  0.00    -0.166 F 
ATOM      3  F   UNL     1      -2.183  -9.980  16.273  0.00  0.00    -0.166 F 
ATOM     33  C   UNL     1      -1.262 -10.167  15.285  0.00  0.00    +0.417 C 
ENDBRANCH  30  33
ENDBRANCH  22  25
TORSDOF 4
ENDMDL
MODEL 8
REMARK VINA RESULT:      -7.1     25.099     28.421
REMARK  Name = 11941480
REMARK  6 active torsions:
REMARK  status: ('A' for Active; 'I' for Inactive)
REMARK    1  A    between atoms: N_8  and  C_11
REMARK    2  A    between atoms: N_10  and  C_24
REMARK    3  A    between atoms: C_22  and  C_25
REMARK    4  A    between atoms: C_24  and  C_26
REMARK    5  A    between atoms: C_24  and  C_27
REMARK    6  A    between atoms: C_30  and  C_33
REMARK                            x       y       z     vdW  Elec       q    Type
REMARK                         _______ _______ _______ _____ _____    ______ ____
ROOT
ATOM      4  O   UNL     1      -0.707 -10.851  15.589  0.00  0.00    -0.273 OA
ATOM      5  O   UNL     1      -5.832  -9.838  14.899  0.00  0.00    -0.270 OA
ATOM      7  N   UNL     1      -3.803 -10.827  14.459  0.00  0.00    -0.284 N 
ATOM      9  N   UNL     1      -2.440 -10.996  17.061  0.00  0.00    -0.283 N 
ATOM     11  C   UNL     1      -2.056 -12.030  13.412  0.00  0.00    +0.105 C 
ATOM     12  C   UNL     1      -2.763 -11.795  14.755  0.00  0.00    +0.183 C 
ATOM     13  C   UNL     1      -2.292 -10.724  12.652  0.00  0.00    +0.043 C 
ATOM     14  C   UNL     1      -3.679 -10.296  13.108  0.00  0.00    +0.111 C 
ATOM     15  C   UNL     1      -1.885 -11.143  15.806  0.00  0.00    +0.240 C 
ATOM     16  C   UNL     1      -4.890 -10.543  15.258  0.00  0.00    +0.249 C 
ATOM     17  C   UNL     1      -4.908 -11.100  16.636  0.00  0.00    +0.059 A 
ATOM     18  C   UNL     1      -3.777 -11.210  17.461  0.00  0.00    +0.046 A 
ATOM     20  C   UNL     1      -6.182 -11.366  17.171  0.00  0.00    +0.023 A 
ATOM     21  C   UNL     1      -3.957 -11.519  18.821  0.00  0.00    +0.024 A 
ATOM     22  C   UNL     1      -6.336 -11.719  18.510  0.00  0.00    -0.017 A 
ATOM     23  C   UNL     1      -5.223 -11.783  19.340  0.00  0.00    +0.010 A 
ATOM     35  H   UNL     1      -1.781 -10.785  17.807  0.00  0.00    +0.155 HD
ENDROOT
BRANCH  11   8
ATOM      6  O   UNL     1      -1.052 -14.733  13.336  0.00  0.00    -0.253 OA
ATOM      8  N   UNL     1      -2.635 -13.153  12.713  0.00  0.00    -0.294 N 
ATOM     10  N   UNL     1      -2.837 -15.321  11.976  0.00  0.00    -0.297 N 
ATOM     19  C   UNL     1      -2.079 -14.430  12.731  0.00  0.00    +0.300 C 
ATOM     34  H   UNL     1      -3.521 -13.024  12.235  0.00  0.00    +0.151 HD
ATOM     36  H   UNL     1      -3.711 -14.993  11.575  0.00  0.00    +0.150 HD
BRANCH  10  24
ATOM     24  C   UNL     1      -2.488 -16.714  11.824  0.00  0.00    +0.068 C 
ATOM     26  C   UNL     1      -2.477 -17.408  13.179  0.00  0.00    +0.027 C 
ATOM     27  C   UNL     1      -1.144 -16.855  11.121  0.00  0.00    +0.027 C 
ENDBRANCH  10  24
ENDBRANCH  11   8
BRANCH  22  25
ATOM     25  C   UNL     1      -7.654 -11.994  19.041  0.00  0.00    -0.017 A 
ATOM     28  C   UNL     1      -8.619 -10.987  19.070  0.00  0.00    +0.021 A 
ATOM     29  C   UNL     1      -7.960 -13.267  19.523  0.00  0.00    +0.008 A 
ATOM     30  C   UNL     1      -9.889 -11.253  19.581  0.00  0.00    +0.055 A 
ATOM     31  C   UNL     1      -9.230 -13.533  20.034  0.00  0.00    +0.001 A 
ATOM     32  C   UNL     1     -10.195 -12.526  20.063  0.00  0.00    +0.012 A 
BRANCH  30  33
ATOM      1  F   UNL     1     -12.184 -10.624  19.339  0.00  0.00    -0.166 F 
ATOM      2  F   UNL     1     -11.020  -9.548  20.819  0.00  0.00    -0.166 F 
ATOM      3  F   UNL     1     -10.679  -9.190  18.702  0.00  0.00    -0.166 F 
ATOM     33  C   UNL     1     -10.923 -10.178  19.611  0.00  0.00    +0.417 C 
ENDBRANCH  30  33
ENDBRANCH  22  25
TORSDOF 4
ENDMDL
MODEL 9
REMARK VINA RESULT:      -7.1      1.567      2.136
REMARK  Name = 11941480
REMARK  6 active torsions:
REMARK  status: ('A' for Active; 'I' for Inactive)
REMARK    1  A    between atoms: N_8  and  C_11
REMARK    2  A    between atoms: N_10  and  C_24
REMARK    3  A    between atoms: C_22  and  C_25
REMARK    4  A    between atoms: C_24  and  C_26
REMARK    5  A    between atoms: C_24  and  C_27
REMARK    6  A    between atoms: C_30  and  C_33
REMARK                            x       y       z     vdW  Elec       q    Type
REMARK                         _______ _______ _______ _____ _____    ______ ____
ROOT
ATOM      4  O   UNL     1      13.910   6.159  -2.405  0.00  0.00    -0.273 OA
ATOM      5  O   UNL     1      12.886   3.460   2.004  0.00  0.00    -0.270 OA
ATOM      7  N   UNL     1      14.155   4.700   0.540  0.00  0.00    -0.284 N 
ATOM      9  N   UNL     1      12.241   6.428  -0.877  0.00  0.00    -0.283 N 
ATOM     11  C   UNL     1      15.978   5.761  -0.531  0.00  0.00    +0.105 C 
ATOM     12  C   UNL     1      14.523   5.959  -0.082  0.00  0.00    +0.183 C 
ATOM     13  C   UNL     1      16.084   4.250  -0.738  0.00  0.00    +0.043 C 
ATOM     14  C   UNL     1      15.177   3.682   0.342  0.00  0.00    +0.111 C 
ATOM     15  C   UNL     1      13.546   6.150  -1.226  0.00  0.00    +0.240 C 
ATOM     16  C   UNL     1      13.072   4.497   1.368  0.00  0.00    +0.249 C 
ATOM     17  C   UNL     1      12.062   5.583   1.476  0.00  0.00    +0.059 A 
ATOM     18  C   UNL     1      11.646   6.388   0.403  0.00  0.00    +0.046 A 
ATOM     20  C   UNL     1      11.384   5.667   2.706  0.00  0.00    +0.023 A 
ATOM     21  C   UNL     1      10.517   7.208   0.569  0.00  0.00    +0.024 A 
ATOM     22  C   UNL     1      10.296   6.522   2.866  0.00  0.00    -0.017 A 
ATOM     23  C   UNL     1       9.853   7.285   1.792  0.00  0.00    +0.010 A 
ATOM     35  H   UNL     1      11.655   6.785  -1.628  0.00  0.00    +0.155 HD
ENDROOT
BRANCH  11   8
ATOM      6  O   UNL     1      17.353   8.296  -0.440  0.00  0.00    -0.253 OA
ATOM      8  N   UNL     1      16.899   6.216   0.485  0.00  0.00    -0.294 N 
ATOM     10  N   UNL     1      18.355   7.641   1.547  0.00  0.00    -0.297 N 
ATOM     19  C   UNL     1      17.520   7.462   0.448  0.00  0.00    +0.300 C 
ATOM     34  H   UNL     1      17.056   5.626   1.297  0.00  0.00    +0.151 HD
ATOM     36  H   UNL     1      18.369   6.924   2.266  0.00  0.00    +0.150 HD
BRANCH  10  24
ATOM     24  C   UNL     1      19.123   8.847   1.759  0.00  0.00    +0.068 C 
ATOM     26  C   UNL     1      20.596   8.593   1.471  0.00  0.00    +0.027 C 
ATOM     27  C   UNL     1      18.919   9.369   3.175  0.00  0.00    +0.027 C 
ENDBRANCH  10  24
ENDBRANCH  11   8
BRANCH  22  25
ATOM     25  C   UNL     1       9.613   6.598   4.141  0.00  0.00    -0.017 A 
ATOM     28  C   UNL     1      10.060   5.833   5.218  0.00  0.00    +0.021 A 
ATOM     29  C   UNL     1       8.509   7.438   4.291  0.00  0.00    +0.008 A 
ATOM     30  C   UNL     1       9.402   5.907   6.445  0.00  0.00    +0.055 A 
ATOM     31  C   UNL     1       7.852   7.512   5.519  0.00  0.00    +0.001 A 
ATOM     32  C   UNL     1       8.298   6.747   6.596  0.00  0.00    +0.012 A 
BRANCH  30  33
ATOM      1  F   UNL     1      11.134   5.424   8.024  0.00  0.00    -0.166 F 
ATOM      2  F   UNL     1       9.088   5.197   8.707  0.00  0.00    -0.166 F 
ATOM      3  F   UNL     1       9.932   3.758   7.313  0.00  0.00    -0.166 F 
ATOM     33  C   UNL     1       9.880   5.091   7.599  0.00  0.00    +0.417 C 
ENDBRANCH  30  33
ENDBRANCH  22  25
TORSDOF 4
ENDMDL
MODEL 10
REMARK VINA RESULT:      -7.0     24.140     26.436
REMARK  Name = 11941480
REMARK  6 active torsions:
REMARK  status: ('A' for Active; 'I' for Inactive)
REMARK    1  A    between atoms: N_8  and  C_11
REMARK    2  A    between atoms: N_10  and  C_24
REMARK    3  A    between atoms: C_22  and  C_25
REMARK    4  A    between atoms: C_24  and  C_26
REMARK    5  A    between atoms: C_24  and  C_27
REMARK    6  A    between atoms: C_30  and  C_33
REMARK                            x       y       z     vdW  Elec       q    Type
REMARK                         _______ _______ _______ _____ _____    ______ ____
ROOT
ATOM      4  O   UNL     1      -9.948 -10.062   7.744  0.00  0.00    -0.273 OA
ATOM      5  O   UNL     1      -5.532  -8.059   9.807  0.00  0.00    -0.270 OA
ATOM      7  N   UNL     1      -7.699  -8.029   9.037  0.00  0.00    -0.284 N 
ATOM      9  N   UNL     1      -8.748 -10.727   9.563  0.00  0.00    -0.283 N 
ATOM     11  C   UNL     1      -9.821  -7.299   8.289  0.00  0.00    +0.105 C 
ATOM     12  C   UNL     1      -9.113  -8.322   9.189  0.00  0.00    +0.183 C 
ATOM     13  C   UNL     1      -8.774  -6.980   7.221  0.00  0.00    +0.043 C 
ATOM     14  C   UNL     1      -7.460  -7.055   7.982  0.00  0.00    +0.111 C 
ATOM     15  C   UNL     1      -9.283  -9.760   8.738  0.00  0.00    +0.240 C 
ATOM     16  C   UNL     1      -6.693  -8.460   9.875  0.00  0.00    +0.249 C 
ATOM     17  C   UNL     1      -7.028  -9.486  10.898  0.00  0.00    +0.059 A 
ATOM     18  C   UNL     1      -7.909 -10.559  10.686  0.00  0.00    +0.046 A 
ATOM     20  C   UNL     1      -6.267  -9.439  12.082  0.00  0.00    +0.023 A 
ATOM     21  C   UNL     1      -7.957 -11.595  11.635  0.00  0.00    +0.024 A 
ATOM     22  C   UNL     1      -6.365 -10.452  13.034  0.00  0.00    -0.017 A 
ATOM     23  C   UNL     1      -7.200 -11.538  12.805  0.00  0.00    +0.010 A 
ATOM     35  H   UNL     1      -9.067 -11.677   9.385  0.00  0.00    +0.155 HD
ENDROOT
BRANCH  11   8
ATOM      6  O   UNL     1     -12.318  -6.797   9.645  0.00  0.00    -0.253 OA
ATOM      8  N   UNL     1     -10.183  -6.117   9.036  0.00  0.00    -0.294 N 
ATOM     10  N   UNL     1     -11.502  -4.729  10.308  0.00  0.00    -0.297 N 
ATOM     19  C   UNL     1     -11.418  -5.959   9.661  0.00  0.00    +0.300 C 
ATOM     34  H   UNL     1      -9.485  -5.390   9.164  0.00  0.00    +0.151 HD
ATOM     36  H   UNL     1     -10.678  -4.136  10.328  0.00  0.00    +0.150 HD
BRANCH  10  24
ATOM     24  C   UNL     1     -12.675  -4.307  11.037  0.00  0.00    +0.068 C 
ATOM     26  C   UNL     1     -13.627  -3.554  10.118  0.00  0.00    +0.027 C 
ATOM     27  C   UNL     1     -12.280  -3.457  12.239  0.00  0.00    +0.027 C 
ENDBRANCH  10  24
ENDBRANCH  11   8
BRANCH  22  25
ATOM     25  C   UNL     1      -5.578 -10.385  14.247  0.00  0.00    -0.017 A 
ATOM     28  C   UNL     1      -4.201 -10.603  14.199  0.00  0.00    +0.021 A 
ATOM     29  C   UNL     1      -6.197 -10.100  15.465  0.00  0.00    +0.008 A 
ATOM     30  C   UNL     1      -3.444 -10.538  15.368  0.00  0.00    +0.055 A 
ATOM     31  C   UNL     1      -5.440 -10.035  16.634  0.00  0.00    +0.001 A 
ATOM     32  C   UNL     1      -4.063 -10.253  16.586  0.00  0.00    +0.012 A 
BRANCH  30  33
ATOM      1  F   UNL     1      -1.368 -10.722  16.543  0.00  0.00    -0.166 F 
ATOM      2  F   UNL     1      -1.627 -11.984  14.798  0.00  0.00    -0.166 F 
ATOM      3  F   UNL     1      -1.320  -9.845  14.554  0.00  0.00    -0.166 F 
ATOM     33  C   UNL     1      -1.971 -10.769  15.319  0.00  0.00    +0.417 C 
ENDBRANCH  30  33
ENDBRANCH  22  25
TORSDOF 4
ENDMDL
