MODEL 1
REMARK VINA RESULT:      -7.0      0.000      0.000
REMARK  Name = 26742464
REMARK  8 active torsions:
REMARK  status: ('A' for Active; 'I' for Inactive)
REMARK    1  A    between atoms: N_5  and  C_16
REMARK    2  A    between atoms: N_8  and  C_25
REMARK    3  A    between atoms: C_10  and  C_17
REMARK    4  A    between atoms: C_11  and  C_16
REMARK    5  A    between atoms: C_19  and  C_22
REMARK    6  A    between atoms: C_20  and  C_23
REMARK    7  A    between atoms: C_32  and  C_33
REMARK    8  A    between atoms: C_33  and  C_34
REMARK                            x       y       z     vdW  Elec       q    Type
REMARK                         _______ _______ _______ _____ _____    ______ ____
ROOT
ATOM      4  N   UNL     1      -6.006 -10.436   9.299  0.00  0.00    -0.297 NA
ATOM      9  C   UNL     1      -4.007  -9.139  10.350  0.00  0.00    +0.002 C 
ATOM     10  C   UNL     1      -3.890 -10.657  10.656  0.00  0.00    +0.055 C 
ATOM     11  C   UNL     1      -6.508  -9.274  10.079  0.00  0.00    +0.074 C 
ATOM     12  C   UNL     1      -5.362  -8.616  10.876  0.00  0.00    +0.024 C 
ATOM     13  C   UNL     1      -4.030  -8.993   8.814  0.00  0.00    +0.019 C 
ATOM     14  C   UNL     1      -5.208 -11.330  10.176  0.00  0.00    +0.094 C 
ATOM     15  C   UNL     1      -5.114  -9.919   8.234  0.00  0.00    +0.085 C 
ENDROOT
BRANCH  10  17
ATOM      6  N   UNL     1      -2.617 -10.297  12.713  0.00  0.00    -0.237 NA
ATOM      7  N   UNL     1      -2.778 -11.787  14.601  0.00  0.00    -0.229 NA
ATOM     17  C   UNL     1      -3.506 -11.080  12.066  0.00  0.00    +0.050 A 
ATOM     18  C   UNL     1      -4.067 -12.216  12.613  0.00  0.00    +0.055 A 
ATOM     19  C   UNL     1      -3.662 -12.524  13.897  0.00  0.00    +0.110 A 
ATOM     20  C   UNL     1      -2.302 -10.703  13.958  0.00  0.00    +0.127 A 
ATOM     23  C   UNL     1      -1.323  -9.862  14.706  0.00  0.00    +0.088 C 
BRANCH  19  22
ATOM      2  O   UNL     1      -4.403 -14.767  13.802  0.00  0.00    -0.461 OA
ATOM     22  C   UNL     1      -4.168 -13.682  14.585  0.00  0.00    +0.153 A 
ATOM     24  C   UNL     1      -4.480 -13.955  15.896  0.00  0.00    +0.051 A 
ATOM     26  C   UNL     1      -4.936 -15.294  15.920  0.00  0.00    +0.042 A 
ATOM     27  C   UNL     1      -4.870 -15.745  14.622  0.00  0.00    +0.196 A 
ENDBRANCH  19  22
ENDBRANCH  10  17
BRANCH  11  16
ATOM     16  C   UNL     1      -7.690  -9.642  10.978  0.00  0.00    +0.124 C 
BRANCH  16   5
ATOM      1  O   UNL     1      -6.864 -11.296  13.165  0.00  0.00    -0.253 OA
ATOM      5  N   UNL     1      -7.457  -9.223  12.325  0.00  0.00    -0.298 N 
ATOM      8  N   UNL     1      -6.904  -9.406  14.558  0.00  0.00    -0.269 N 
ATOM     21  C   UNL     1      -7.052 -10.096  13.351  0.00  0.00    +0.304 C 
ATOM     35  H   UNL     1      -7.598  -8.244  12.555  0.00  0.00    +0.150 HD
ATOM     36  H   UNL     1      -7.100  -8.409  14.541  0.00  0.00    +0.156 HD
BRANCH   8  25
ATOM     25  C   UNL     1      -6.513  -9.928  15.814  0.00  0.00    +0.035 A 
ATOM     28  C   UNL     1      -7.481 -10.375  16.715  0.00  0.00    +0.024 A 
ATOM     29  C   UNL     1      -5.161  -9.998  16.150  0.00  0.00    +0.024 A 
ATOM     30  C   UNL     1      -7.095 -10.890  17.952  0.00  0.00    +0.013 A 
ATOM     31  C   UNL     1      -4.776 -10.513  17.387  0.00  0.00    +0.013 A 
ATOM     32  C   UNL     1      -5.744 -10.960  18.288  0.00  0.00    +0.017 A 
BRANCH  32  33
ATOM      3  O   UNL     1      -6.036 -11.327  20.600  0.00  0.00    -0.292 OA
ATOM     33  C   UNL     1      -5.342 -11.497  19.579  0.00  0.00    +0.160 C 
ATOM     34  C   UNL     1      -4.046 -12.291  19.710  0.00  0.00    +0.091 C 
ENDBRANCH  32  33
ENDBRANCH   8  25
ENDBRANCH  16   5
ENDBRANCH  11  16
TORSDOF 6
ENDMDL
MODEL 2
REMARK VINA RESULT:      -6.8     26.978     30.251
REMARK  Name = 26742464
REMARK  8 active torsions:
REMARK  status: ('A' for Active; 'I' for Inactive)
REMARK    1  A    between atoms: N_5  and  C_16
REMARK    2  A    between atoms: N_8  and  C_25
REMARK    3  A    between atoms: C_10  and  C_17
REMARK    4  A    between atoms: C_11  and  C_16
REMARK    5  A    between atoms: C_19  and  C_22
REMARK    6  A    between atoms: C_20  and  C_23
REMARK    7  A    between atoms: C_32  and  C_33
REMARK    8  A    between atoms: C_33  and  C_34
REMARK                            x       y       z     vdW  Elec       q    Type
REMARK                         _______ _______ _______ _____ _____    ______ ____
ROOT
ATOM      4  N   UNL     1      11.286   7.439  20.640  0.00  0.00    -0.297 NA
ATOM      9  C   UNL     1      12.100   9.408  22.138  0.00  0.00    +0.002 C 
ATOM     10  C   UNL     1      11.680   9.929  20.737  0.00  0.00    +0.055 C 
ATOM     11  C   UNL     1      12.598   7.103  21.253  0.00  0.00    +0.074 C 
ATOM     12  C   UNL     1      13.193   8.330  21.975  0.00  0.00    +0.024 C 
ATOM     13  C   UNL     1      10.863   8.711  22.744  0.00  0.00    +0.019 C 
ATOM     14  C   UNL     1      11.402   8.687  19.844  0.00  0.00    +0.094 C 
ATOM     15  C   UNL     1      10.319   7.681  21.738  0.00  0.00    +0.085 C 
ENDROOT
BRANCH  10  17
ATOM      6  N   UNL     1      12.746  12.130  20.675  0.00  0.00    -0.237 NA
ATOM      7  N   UNL     1      14.181  12.811  18.862  0.00  0.00    -0.229 NA
ATOM     17  C   UNL     1      12.579  10.946  20.048  0.00  0.00    +0.050 A 
ATOM     18  C   UNL     1      13.171  10.626  18.844  0.00  0.00    +0.055 A 
ATOM     19  C   UNL     1      13.970  11.607  18.292  0.00  0.00    +0.110 A 
ATOM     20  C   UNL     1      13.548  13.003  20.036  0.00  0.00    +0.127 A 
ATOM     23  C   UNL     1      13.759  14.323  20.697  0.00  0.00    +0.088 C 
BRANCH  19  22
ATOM      2  O   UNL     1      14.141  10.414  16.257  0.00  0.00    -0.461 OA
ATOM     22  C   UNL     1      14.647  11.405  17.038  0.00  0.00    +0.153 A 
ATOM     24  C   UNL     1      15.724  12.002  16.425  0.00  0.00    +0.051 A 
ATOM     26  C   UNL     1      15.891  11.335  15.188  0.00  0.00    +0.042 A 
ATOM     27  C   UNL     1      14.903  10.378  15.132  0.00  0.00    +0.196 A 
ENDBRANCH  19  22
ENDBRANCH  10  17
BRANCH  11  16
ATOM     16  C   UNL     1      13.578   6.505  20.242  0.00  0.00    +0.124 C 
BRANCH  16   5
ATOM      1  O   UNL     1      16.087   7.648  19.467  0.00  0.00    -0.253 OA
ATOM      5  N   UNL     1      14.851   6.261  20.846  0.00  0.00    -0.298 N 
ATOM      8  N   UNL     1      17.127   6.434  21.188  0.00  0.00    -0.269 N 
ATOM     21  C   UNL     1      16.046   6.861  20.410  0.00  0.00    +0.304 C 
ATOM     35  H   UNL     1      14.895   5.616  21.630  0.00  0.00    +0.150 HD
ATOM     36  H   UNL     1      16.920   5.776  21.934  0.00  0.00    +0.156 HD
BRANCH   8  25
ATOM     25  C   UNL     1      18.486   6.808  21.064  0.00  0.00    +0.035 A 
ATOM     28  C   UNL     1      18.896   8.085  21.451  0.00  0.00    +0.024 A 
ATOM     29  C   UNL     1      19.415   5.900  20.556  0.00  0.00    +0.024 A 
ATOM     30  C   UNL     1      20.235   8.453  21.330  0.00  0.00    +0.013 A 
ATOM     31  C   UNL     1      20.755   6.269  20.435  0.00  0.00    +0.013 A 
ATOM     32  C   UNL     1      21.165   7.545  20.822  0.00  0.00    +0.017 A 
BRANCH  32  33
ATOM      3  O   UNL     1      23.043   8.287  19.602  0.00  0.00    -0.292 OA
ATOM     33  C   UNL     1      22.562   7.929  20.696  0.00  0.00    +0.160 C 
ATOM     34  C   UNL     1      23.480   7.901  21.913  0.00  0.00    +0.091 C 
ENDBRANCH  32  33
ENDBRANCH   8  25
ENDBRANCH  16   5
ENDBRANCH  11  16
TORSDOF 6
ENDMDL
MODEL 3
REMARK VINA RESULT:      -6.7      2.453      7.216
REMARK  Name = 26742464
REMARK  8 active torsions:
REMARK  status: ('A' for Active; 'I' for Inactive)
REMARK    1  A    between atoms: N_5  and  C_16
REMARK    2  A    between atoms: N_8  and  C_25
REMARK    3  A    between atoms: C_10  and  C_17
REMARK    4  A    between atoms: C_11  and  C_16
REMARK    5  A    between atoms: C_19  and  C_22
REMARK    6  A    between atoms: C_20  and  C_23
REMARK    7  A    between atoms: C_32  and  C_33
REMARK    8  A    between atoms: C_33  and  C_34
REMARK                            x       y       z     vdW  Elec       q    Type
REMARK                         _______ _______ _______ _____ _____    ______ ____
ROOT
ATOM      4  N   UNL     1      -6.521 -10.298  17.305  0.00  0.00    -0.297 NA
ATOM      9  C   UNL     1      -4.604 -12.060  17.285  0.00  0.00    +0.002 C 
ATOM     10  C   UNL     1      -4.230 -10.841  16.398  0.00  0.00    +0.055 C 
ATOM     11  C   UNL     1      -7.072 -11.646  17.007  0.00  0.00    +0.074 C 
ATOM     12  C   UNL     1      -5.934 -12.664  16.787  0.00  0.00    +0.024 C 
ATOM     13  C   UNL     1      -4.857 -11.517  18.707  0.00  0.00    +0.019 C 
ATOM     14  C   UNL     1      -5.491  -9.937  16.298  0.00  0.00    +0.094 C 
ATOM     15  C   UNL     1      -5.867 -10.358  18.634  0.00  0.00    +0.085 C 
ENDROOT
BRANCH  10  17
ATOM      6  N   UNL     1      -2.689 -12.100  14.976  0.00  0.00    -0.237 NA
ATOM      7  N   UNL     1      -2.436 -11.630  12.625  0.00  0.00    -0.229 NA
ATOM     17  C   UNL     1      -3.600 -11.106  15.038  0.00  0.00    +0.050 A 
ATOM     18  C   UNL     1      -3.976 -10.341  13.953  0.00  0.00    +0.055 A 
ATOM     19  C   UNL     1      -3.354 -10.651  12.760  0.00  0.00    +0.110 A 
ATOM     20  C   UNL     1      -2.155 -12.305  13.757  0.00  0.00    +0.127 A 
ATOM     23  C   UNL     1      -1.144 -13.396  13.646  0.00  0.00    +0.088 C 
BRANCH  19  22
ATOM      2  O   UNL     1      -4.823  -9.240  11.558  0.00  0.00    -0.461 OA
ATOM     22  C   UNL     1      -3.652  -9.931  11.550  0.00  0.00    +0.153 A 
ATOM     24  C   UNL     1      -3.006  -9.774  10.346  0.00  0.00    +0.051 A 
ATOM     26  C   UNL     1      -3.833  -8.933   9.564  0.00  0.00    +0.042 A 
ATOM     27  C   UNL     1      -4.925  -8.635  10.346  0.00  0.00    +0.196 A 
ENDBRANCH  19  22
ENDBRANCH  10  17
BRANCH  11  16
ATOM     16  C   UNL     1      -8.056 -11.627  15.835  0.00  0.00    +0.124 C 
BRANCH  16   5
ATOM      1  O   UNL     1      -7.200 -10.610  13.298  0.00  0.00    -0.253 OA
ATOM      5  N   UNL     1      -7.554 -12.390  14.734  0.00  0.00    -0.298 N 
ATOM      8  N   UNL     1      -6.707 -12.806  12.628  0.00  0.00    -0.269 N 
ATOM     21  C   UNL     1      -7.151 -11.819  13.513  0.00  0.00    +0.304 C 
ATOM     35  H   UNL     1      -7.490 -13.398  14.837  0.00  0.00    +0.150 HD
ATOM     36  H   UNL     1      -6.732 -13.765  12.964  0.00  0.00    +0.156 HD
BRANCH   8  25
ATOM     25  C   UNL     1      -6.225 -12.635  11.309  0.00  0.00    +0.035 A 
ATOM     28  C   UNL     1      -5.037 -13.253  10.916  0.00  0.00    +0.024 A 
ATOM     29  C   UNL     1      -6.936 -11.849  10.402  0.00  0.00    +0.024 A 
ATOM     30  C   UNL     1      -4.561 -13.085   9.616  0.00  0.00    +0.013 A 
ATOM     31  C   UNL     1      -6.460 -11.681   9.102  0.00  0.00    +0.013 A 
ATOM     32  C   UNL     1      -5.272 -12.300   8.709  0.00  0.00    +0.017 A 
BRANCH  32  33
ATOM      3  O   UNL     1      -3.992 -12.944   6.835  0.00  0.00    -0.292 OA
ATOM     33  C   UNL     1      -4.776 -12.125   7.353  0.00  0.00    +0.160 C 
ATOM     34  C   UNL     1      -5.212 -10.920   6.525  0.00  0.00    +0.091 C 
ENDBRANCH  32  33
ENDBRANCH   8  25
ENDBRANCH  16   5
ENDBRANCH  11  16
TORSDOF 6
ENDMDL
MODEL 4
REMARK VINA RESULT:      -6.7      3.941      7.203
REMARK  Name = 26742464
REMARK  8 active torsions:
REMARK  status: ('A' for Active; 'I' for Inactive)
REMARK    1  A    between atoms: N_5  and  C_16
REMARK    2  A    between atoms: N_8  and  C_25
REMARK    3  A    between atoms: C_10  and  C_17
REMARK    4  A    between atoms: C_11  and  C_16
REMARK    5  A    between atoms: C_19  and  C_22
REMARK    6  A    between atoms: C_20  and  C_23
REMARK    7  A    between atoms: C_32  and  C_33
REMARK    8  A    between atoms: C_33  and  C_34
REMARK                            x       y       z     vdW  Elec       q    Type
REMARK                         _______ _______ _______ _____ _____    ______ ____
ROOT
ATOM      4  N   UNL     1      -6.677 -10.317  17.264  0.00  0.00    -0.297 NA
ATOM      9  C   UNL     1      -4.665 -11.969  17.310  0.00  0.00    +0.002 C 
ATOM     10  C   UNL     1      -4.354 -10.761  16.385  0.00  0.00    +0.055 C 
ATOM     11  C   UNL     1      -7.151 -11.702  17.008  0.00  0.00    +0.074 C 
ATOM     12  C   UNL     1      -5.957 -12.662  16.827  0.00  0.00    +0.024 C 
ATOM     13  C   UNL     1      -4.956 -11.394  18.712  0.00  0.00    +0.019 C 
ATOM     14  C   UNL     1      -5.663  -9.932  16.250  0.00  0.00    +0.094 C 
ATOM     15  C   UNL     1      -6.028 -10.297  18.597  0.00  0.00    +0.085 C 
ENDROOT
BRANCH  10  17
ATOM      6  N   UNL     1      -2.767 -12.007  15.003  0.00  0.00    -0.237 NA
ATOM      7  N   UNL     1      -2.499 -11.572  12.647  0.00  0.00    -0.229 NA
ATOM     17  C   UNL     1      -3.703 -11.035  15.037  0.00  0.00    +0.050 A 
ATOM     18  C   UNL     1      -4.084 -10.298  13.934  0.00  0.00    +0.055 A 
ATOM     19  C   UNL     1      -3.442 -10.614  12.754  0.00  0.00    +0.110 A 
ATOM     20  C   UNL     1      -2.214 -12.221  13.793  0.00  0.00    +0.127 A 
ATOM     23  C   UNL     1      -1.177 -13.289  13.714  0.00  0.00    +0.088 C 
BRANCH  19  22
ATOM      2  O   UNL     1      -5.035  -9.527  11.386  0.00  0.00    -0.461 OA
ATOM     22  C   UNL     1      -3.743  -9.923  11.528  0.00  0.00    +0.153 A 
ATOM     24  C   UNL     1      -3.002  -9.557  10.429  0.00  0.00    +0.051 A 
ATOM     26  C   UNL     1      -3.896  -8.894   9.555  0.00  0.00    +0.042 A 
ATOM     27  C   UNL     1      -5.121  -8.901  10.183  0.00  0.00    +0.196 A 
ENDBRANCH  19  22
ENDBRANCH  10  17
BRANCH  11  16
ATOM     16  C   UNL     1      -8.127 -11.777  15.832  0.00  0.00    +0.124 C 
BRANCH  16   5
ATOM      1  O   UNL     1      -8.808  -9.505  14.227  0.00  0.00    -0.253 OA
ATOM      5  N   UNL     1      -9.234 -10.893  16.029  0.00  0.00    -0.298 N 
ATOM      8  N   UNL     1     -10.648  -9.113  15.632  0.00  0.00    -0.269 N 
ATOM     21  C   UNL     1      -9.506  -9.792  15.196  0.00  0.00    +0.304 C 
ATOM     35  H   UNL     1      -9.853 -11.065  16.815  0.00  0.00    +0.150 HD
ATOM     36  H   UNL     1     -11.112  -9.483  16.457  0.00  0.00    +0.156 HD
BRANCH   8  25
ATOM     25  C   UNL     1     -11.242  -7.962  15.063  0.00  0.00    +0.035 A 
ATOM     28  C   UNL     1     -11.161  -6.736  15.726  0.00  0.00    +0.024 A 
ATOM     29  C   UNL     1     -11.907  -8.051  13.841  0.00  0.00    +0.024 A 
ATOM     30  C   UNL     1     -11.746  -5.601  15.165  0.00  0.00    +0.013 A 
ATOM     31  C   UNL     1     -12.492  -6.917  13.280  0.00  0.00    +0.013 A 
ATOM     32  C   UNL     1     -12.412  -5.691  13.943  0.00  0.00    +0.017 A 
BRANCH  32  33
ATOM      3  O   UNL     1     -12.332  -3.547  12.962  0.00  0.00    -0.292 OA
ATOM     33  C   UNL     1     -13.022  -4.507  13.358  0.00  0.00    +0.160 C 
ATOM     34  C   UNL     1     -14.537  -4.415  13.214  0.00  0.00    +0.091 C 
ENDBRANCH  32  33
ENDBRANCH   8  25
ENDBRANCH  16   5
ENDBRANCH  11  16
TORSDOF 6
ENDMDL
MODEL 5
REMARK VINA RESULT:      -6.6     23.835     27.397
REMARK  Name = 26742464
REMARK  8 active torsions:
REMARK  status: ('A' for Active; 'I' for Inactive)
REMARK    1  A    between atoms: N_5  and  C_16
REMARK    2  A    between atoms: N_8  and  C_25
REMARK    3  A    between atoms: C_10  and  C_17
REMARK    4  A    between atoms: C_11  and  C_16
REMARK    5  A    between atoms: C_19  and  C_22
REMARK    6  A    between atoms: C_20  and  C_23
REMARK    7  A    between atoms: C_32  and  C_33
REMARK    8  A    between atoms: C_33  and  C_34
REMARK                            x       y       z     vdW  Elec       q    Type
REMARK                         _______ _______ _______ _____ _____    ______ ____
ROOT
ATOM      4  N   UNL     1      14.820   9.374   6.139  0.00  0.00    -0.297 NA
ATOM      9  C   UNL     1      12.695  10.200   4.880  0.00  0.00    +0.002 C 
ATOM     10  C   UNL     1      12.299   9.463   6.189  0.00  0.00    +0.055 C 
ATOM     11  C   UNL     1      14.880   8.959   4.713  0.00  0.00    +0.074 C 
ATOM     12  C   UNL     1      13.544   9.257   4.001  0.00  0.00    +0.024 C 
ATOM     13  C   UNL     1      13.603  11.379   5.289  0.00  0.00    +0.019 C 
ATOM     14  C   UNL     1      13.593   8.830   6.774  0.00  0.00    +0.094 C 
ATOM     15  C   UNL     1      14.744  10.854   6.179  0.00  0.00    +0.085 C 
ENDROOT
BRANCH  10  17
ATOM      6  N   UNL     1      10.308   8.573   5.081  0.00  0.00    -0.237 NA
ATOM      7  N   UNL     1       9.053   6.725   5.987  0.00  0.00    -0.229 NA
ATOM     17  C   UNL     1      11.144   8.474   6.137  0.00  0.00    +0.050 A 
ATOM     18  C   UNL     1      11.002   7.540   7.142  0.00  0.00    +0.055 A 
ATOM     19  C   UNL     1       9.927   6.683   7.014  0.00  0.00    +0.110 A 
ATOM     20  C   UNL     1       9.300   7.680   5.070  0.00  0.00    +0.127 A 
ATOM     23  C   UNL     1       8.355   7.757   3.918  0.00  0.00    +0.088 C 
BRANCH  19  22
ATOM      2  O   UNL     1       9.014   6.082   9.111  0.00  0.00    -0.461 OA
ATOM     22  C   UNL     1       9.661   5.661   7.992  0.00  0.00    +0.153 A 
ATOM     24  C   UNL     1       9.919   4.312   8.062  0.00  0.00    +0.051 A 
ATOM     26  C   UNL     1       9.397   3.877   9.303  0.00  0.00    +0.042 A 
ATOM     27  C   UNL     1       8.856   4.990   9.903  0.00  0.00    +0.196 A 
ENDBRANCH  19  22
ENDBRANCH  10  17
BRANCH  11  16
ATOM     16  C   UNL     1      15.301   7.497   4.547  0.00  0.00    +0.124 C 
BRANCH  16   5
ATOM      1  O   UNL     1      15.090   6.446   1.892  0.00  0.00    -0.253 OA
ATOM      5  N   UNL     1      14.227   6.712   4.022  0.00  0.00    -0.298 N 
ATOM      8  N   UNL     1      13.023   5.496   2.474  0.00  0.00    -0.269 N 
ATOM     21  C   UNL     1      14.192   6.228   2.701  0.00  0.00    +0.304 C 
ATOM     35  H   UNL     1      13.445   6.497   4.634  0.00  0.00    +0.150 HD
ATOM     36  H   UNL     1      12.379   5.411   3.256  0.00  0.00    +0.156 HD
BRANCH   8  25
ATOM     25  C   UNL     1      12.622   4.852   1.280  0.00  0.00    +0.035 A 
ATOM     28  C   UNL     1      13.362   3.778   0.784  0.00  0.00    +0.024 A 
ATOM     29  C   UNL     1      11.486   5.290   0.599  0.00  0.00    +0.024 A 
ATOM     30  C   UNL     1      12.966   3.143  -0.392  0.00  0.00    +0.013 A 
ATOM     31  C   UNL     1      11.090   4.655  -0.577  0.00  0.00    +0.013 A 
ATOM     32  C   UNL     1      11.830   3.581  -1.073  0.00  0.00    +0.017 A 
BRANCH  32  33
ATOM      3  O   UNL     1      10.226   2.610  -2.505  0.00  0.00    -0.292 OA
ATOM     33  C   UNL     1      11.417   2.918  -2.301  0.00  0.00    +0.160 C 
ATOM     34  C   UNL     1      12.444   2.584  -3.377  0.00  0.00    +0.091 C 
ENDBRANCH  32  33
ENDBRANCH   8  25
ENDBRANCH  16   5
ENDBRANCH  11  16
TORSDOF 6
ENDMDL
MODEL 6
REMARK VINA RESULT:      -6.5      4.207      8.304
REMARK  Name = 26742464
REMARK  8 active torsions:
REMARK  status: ('A' for Active; 'I' for Inactive)
REMARK    1  A    between atoms: N_5  and  C_16
REMARK    2  A    between atoms: N_8  and  C_25
REMARK    3  A    between atoms: C_10  and  C_17
REMARK    4  A    between atoms: C_11  and  C_16
REMARK    5  A    between atoms: C_19  and  C_22
REMARK    6  A    between atoms: C_20  and  C_23
REMARK    7  A    between atoms: C_32  and  C_33
REMARK    8  A    between atoms: C_33  and  C_34
REMARK                            x       y       z     vdW  Elec       q    Type
REMARK                         _______ _______ _______ _____ _____    ______ ____
ROOT
ATOM      4  N   UNL     1     -12.826 -12.102  19.449  0.00  0.00    -0.297 NA
ATOM      9  C   UNL     1     -12.538  -9.514  19.492  0.00  0.00    +0.002 C 
ATOM     10  C   UNL     1     -12.578 -10.032  18.028  0.00  0.00    +0.055 C 
ATOM     11  C   UNL     1     -11.720 -11.728  20.370  0.00  0.00    +0.074 C 
ATOM     12  C   UNL     1     -11.398 -10.223  20.253  0.00  0.00    +0.024 C 
ATOM     13  C   UNL     1     -13.864  -9.946  20.154  0.00  0.00    +0.019 C 
ATOM     14  C   UNL     1     -12.547 -11.586  18.085  0.00  0.00    +0.094 C 
ATOM     15  C   UNL     1     -14.066 -11.457  19.943  0.00  0.00    +0.085 C 
ENDROOT
BRANCH  10  17
ATOM      6  N   UNL     1     -11.615  -8.140  16.813  0.00  0.00    -0.237 NA
ATOM      7  N   UNL     1      -9.780  -8.404  15.272  0.00  0.00    -0.229 NA
ATOM     17  C   UNL     1     -11.568  -9.470  17.038  0.00  0.00    +0.050 A 
ATOM     18  C   UNL     1     -10.669 -10.320  16.427  0.00  0.00    +0.055 A 
ATOM     19  C   UNL     1      -9.790  -9.725  15.544  0.00  0.00    +0.110 A 
ATOM     20  C   UNL     1     -10.706  -7.681  15.932  0.00  0.00    +0.127 A 
ATOM     23  C   UNL     1     -10.725  -6.215  15.658  0.00  0.00    +0.088 C 
BRANCH  19  22
ATOM      2  O   UNL     1      -8.733 -11.809  15.179  0.00  0.00    -0.461 OA
ATOM     22  C   UNL     1      -8.801 -10.495  14.837  0.00  0.00    +0.153 A 
ATOM     24  C   UNL     1      -7.876 -10.200  13.863  0.00  0.00    +0.051 A 
ATOM     26  C   UNL     1      -7.196 -11.411  13.589  0.00  0.00    +0.042 A 
ATOM     27  C   UNL     1      -7.754 -12.360  14.415  0.00  0.00    +0.196 A 
ENDBRANCH  19  22
ENDBRANCH  10  17
BRANCH  11  16
ATOM     16  C   UNL     1     -10.475 -12.595  20.169  0.00  0.00    +0.124 C 
BRANCH  16   5
ATOM      1  O   UNL     1      -8.388 -12.959  18.242  0.00  0.00    -0.253 OA
ATOM      5  N   UNL     1      -9.308 -11.784  20.010  0.00  0.00    -0.298 N 
ATOM      8  N   UNL     1      -7.301 -11.073  19.120  0.00  0.00    -0.269 N 
ATOM     21  C   UNL     1      -8.321 -12.025  19.037  0.00  0.00    +0.304 C 
ATOM     35  H   UNL     1      -9.182 -10.995  20.637  0.00  0.00    +0.150 HD
ATOM     36  H   UNL     1      -7.398 -10.362  19.840  0.00  0.00    +0.156 HD
BRANCH   8  25
ATOM     25  C   UNL     1      -6.138 -10.976  18.320  0.00  0.00    +0.035 A 
ATOM     28  C   UNL     1      -6.167 -10.239  17.135  0.00  0.00    +0.024 A 
ATOM     29  C   UNL     1      -4.963 -11.614  18.716  0.00  0.00    +0.024 A 
ATOM     30  C   UNL     1      -5.021 -10.142  16.347  0.00  0.00    +0.013 A 
ATOM     31  C   UNL     1      -3.817 -11.517  17.928  0.00  0.00    +0.013 A 
ATOM     32  C   UNL     1      -3.846 -10.781  16.743  0.00  0.00    +0.017 A 
BRANCH  32  33
ATOM      3  O   UNL     1      -1.510 -10.684  16.426  0.00  0.00    -0.292 OA
ATOM     33  C   UNL     1      -2.650 -10.680  15.921  0.00  0.00    +0.160 C 
ATOM     34  C   UNL     1      -2.768 -10.565  14.405  0.00  0.00    +0.091 C 
ENDBRANCH  32  33
ENDBRANCH   8  25
ENDBRANCH  16   5
ENDBRANCH  11  16
TORSDOF 6
ENDMDL
MODEL 7
REMARK VINA RESULT:      -6.4     28.363     30.724
REMARK  Name = 26742464
REMARK  8 active torsions:
REMARK  status: ('A' for Active; 'I' for Inactive)
REMARK    1  A    between atoms: N_5  and  C_16
REMARK    2  A    between atoms: N_8  and  C_25
REMARK    3  A    between atoms: C_10  and  C_17
REMARK    4  A    between atoms: C_11  and  C_16
REMARK    5  A    between atoms: C_19  and  C_22
REMARK    6  A    between atoms: C_20  and  C_23
REMARK    7  A    between atoms: C_32  and  C_33
REMARK    8  A    between atoms: C_33  and  C_34
REMARK                            x       y       z     vdW  Elec       q    Type
REMARK                         _______ _______ _______ _____ _____    ______ ____
ROOT
ATOM      4  N   UNL     1      -5.391  14.702  33.180  0.00  0.00    -0.297 NA
ATOM      9  C   UNL     1      -6.010  12.654  31.695  0.00  0.00    +0.002 C 
ATOM     10  C   UNL     1      -7.167  12.981  32.680  0.00  0.00    +0.055 C 
ATOM     11  C   UNL     1      -4.286  13.708  33.199  0.00  0.00    +0.074 C 
ATOM     12  C   UNL     1      -4.715  12.402  32.496  0.00  0.00    +0.024 C 
ATOM     13  C   UNL     1      -5.778  13.920  30.844  0.00  0.00    +0.019 C 
ATOM     14  C   UNL     1      -6.648  14.073  33.658  0.00  0.00    +0.094 C 
ATOM     15  C   UNL     1      -5.594  15.131  31.776  0.00  0.00    +0.085 C 
ENDROOT
BRANCH  10  17
ATOM      6  N   UNL     1      -7.290  11.444  34.579  0.00  0.00    -0.237 NA
ATOM      7  N   UNL     1      -9.007   9.761  34.759  0.00  0.00    -0.229 NA
ATOM     17  C   UNL     1      -7.841  11.827  33.407  0.00  0.00    +0.050 A 
ATOM     18  C   UNL     1      -8.958  11.234  32.855  0.00  0.00    +0.055 A 
ATOM     19  C   UNL     1      -9.504  10.196  33.582  0.00  0.00    +0.110 A 
ATOM     20  C   UNL     1      -7.915  10.421  35.192  0.00  0.00    +0.127 A 
ATOM     23  C   UNL     1      -7.337   9.970  36.491  0.00  0.00    +0.088 C 
BRANCH  19  22
ATOM      2  O   UNL     1     -11.594   9.206  34.076  0.00  0.00    -0.461 OA
ATOM     22  C   UNL     1     -10.670   9.489  33.121  0.00  0.00    +0.153 A 
ATOM     24  C   UNL     1     -11.080   9.017  31.896  0.00  0.00    +0.051 A 
ATOM     26  C   UNL     1     -12.337   8.404  32.113  0.00  0.00    +0.042 A 
ATOM     27  C   UNL     1     -12.607   8.546  33.455  0.00  0.00    +0.196 A 
ENDBRANCH  19  22
ENDBRANCH  10  17
BRANCH  11  16
ATOM     16  C   UNL     1      -3.757  13.449  34.611  0.00  0.00    +0.124 C 
BRANCH  16   5
ATOM      1  O   UNL     1      -2.694  12.138  36.925  0.00  0.00    -0.253 OA
ATOM      5  N   UNL     1      -3.969  12.088  34.995  0.00  0.00    -0.298 N 
ATOM      8  N   UNL     1      -3.791  10.170  36.266  0.00  0.00    -0.269 N 
ATOM     21  C   UNL     1      -3.412  11.510  36.150  0.00  0.00    +0.304 C 
ATOM     35  H   UNL     1      -4.549  11.505  34.398  0.00  0.00    +0.150 HD
ATOM     36  H   UNL     1      -4.392   9.801  35.534  0.00  0.00    +0.156 HD
BRANCH   8  25
ATOM     25  C   UNL     1      -3.438   9.253  37.284  0.00  0.00    +0.035 A 
ATOM     28  C   UNL     1      -4.270   9.087  38.392  0.00  0.00    +0.024 A 
ATOM     29  C   UNL     1      -2.259   8.516  37.180  0.00  0.00    +0.024 A 
ATOM     30  C   UNL     1      -3.923   8.183  39.395  0.00  0.00    +0.013 A 
ATOM     31  C   UNL     1      -1.911   7.611  38.183  0.00  0.00    +0.013 A 
ATOM     32  C   UNL     1      -2.744   7.445  39.291  0.00  0.00    +0.017 A 
BRANCH  32  33
ATOM      3  O   UNL     1      -2.455   6.808  41.544  0.00  0.00    -0.292 OA
ATOM     33  C   UNL     1      -2.381   6.502  40.337  0.00  0.00    +0.160 C 
ATOM     34  C   UNL     1      -1.897   5.102  39.975  0.00  0.00    +0.091 C 
ENDBRANCH  32  33
ENDBRANCH   8  25
ENDBRANCH  16   5
ENDBRANCH  11  16
TORSDOF 6
ENDMDL
MODEL 8
REMARK VINA RESULT:      -6.2      3.928      8.235
REMARK  Name = 26742464
REMARK  8 active torsions:
REMARK  status: ('A' for Active; 'I' for Inactive)
REMARK    1  A    between atoms: N_5  and  C_16
REMARK    2  A    between atoms: N_8  and  C_25
REMARK    3  A    between atoms: C_10  and  C_17
REMARK    4  A    between atoms: C_11  and  C_16
REMARK    5  A    between atoms: C_19  and  C_22
REMARK    6  A    between atoms: C_20  and  C_23
REMARK    7  A    between atoms: C_32  and  C_33
REMARK    8  A    between atoms: C_33  and  C_34
REMARK                            x       y       z     vdW  Elec       q    Type
REMARK                         _______ _______ _______ _____ _____    ______ ____
ROOT
ATOM      4  N   UNL     1      -5.849 -11.574  10.961  0.00  0.00    -0.297 NA
ATOM      9  C   UNL     1      -3.328 -11.800  11.574  0.00  0.00    +0.002 C 
ATOM     10  C   UNL     1      -4.219 -12.131  12.803  0.00  0.00    +0.055 C 
ATOM     11  C   UNL     1      -5.111 -10.356  10.534  0.00  0.00    +0.074 C 
ATOM     12  C   UNL     1      -3.664 -10.380  11.069  0.00  0.00    +0.024 C 
ATOM     13  C   UNL     1      -3.729 -12.785  10.455  0.00  0.00    +0.019 C 
ATOM     14  C   UNL     1      -5.685 -11.782  12.422  0.00  0.00    +0.094 C 
ATOM     15  C   UNL     1      -5.254 -12.736  10.259  0.00  0.00    +0.085 C 
ENDROOT
BRANCH  10  17
ATOM      6  N   UNL     1      -2.546 -11.132  14.282  0.00  0.00    -0.237 NA
ATOM      7  N   UNL     1      -3.048 -10.517  16.558  0.00  0.00    -0.229 NA
ATOM     17  C   UNL     1      -3.821 -11.557  14.155  0.00  0.00    +0.050 A 
ATOM     18  C   UNL     1      -4.754 -11.496  15.170  0.00  0.00    +0.055 A 
ATOM     19  C   UNL     1      -4.307 -10.961  16.361  0.00  0.00    +0.110 A 
ATOM     20  C   UNL     1      -2.232 -10.631  15.492  0.00  0.00    +0.127 A 
ATOM     23  C   UNL     1      -0.832 -10.149  15.671  0.00  0.00    +0.088 C 
BRANCH  19  22
ATOM      2  O   UNL     1      -6.342 -10.178  17.276  0.00  0.00    -0.461 OA
ATOM     22  C   UNL     1      -5.176 -10.839  17.502  0.00  0.00    +0.153 A 
ATOM     24  C   UNL     1      -5.099 -11.250  18.812  0.00  0.00    +0.051 A 
ATOM     26  C   UNL     1      -6.294 -10.813  19.431  0.00  0.00    +0.042 A 
ATOM     27  C   UNL     1      -7.017 -10.167  18.456  0.00  0.00    +0.196 A 
ENDBRANCH  19  22
ENDBRANCH  10  17
BRANCH  11  16
ATOM     16  C   UNL     1      -5.840  -9.067  10.918  0.00  0.00    +0.124 C 
BRANCH  16   5
ATOM      1  O   UNL     1      -7.883  -9.533   8.966  0.00  0.00    -0.253 OA
ATOM      5  N   UNL     1      -6.115  -8.271   9.762  0.00  0.00    -0.298 N 
ATOM      8  N   UNL     1      -7.170  -7.613   7.818  0.00  0.00    -0.269 N 
ATOM     21  C   UNL     1      -7.140  -8.563   8.843  0.00  0.00    +0.304 C 
ATOM     35  H   UNL     1      -5.536  -7.454   9.593  0.00  0.00    +0.150 HD
ATOM     36  H   UNL     1      -6.480  -6.868   7.866  0.00  0.00    +0.156 HD
BRANCH   8  25
ATOM     25  C   UNL     1      -8.049  -7.559   6.711  0.00  0.00    +0.035 A 
ATOM     28  C   UNL     1      -7.653  -8.084   5.480  0.00  0.00    +0.024 A 
ATOM     29  C   UNL     1      -9.312  -6.983   6.851  0.00  0.00    +0.024 A 
ATOM     30  C   UNL     1      -8.520  -8.032   4.389  0.00  0.00    +0.013 A 
ATOM     31  C   UNL     1     -10.179  -6.931   5.760  0.00  0.00    +0.013 A 
ATOM     32  C   UNL     1      -9.783  -7.455   4.529  0.00  0.00    +0.017 A 
BRANCH  32  33
ATOM      3  O   UNL     1     -11.590  -6.544   3.317  0.00  0.00    -0.292 OA
ATOM     33  C   UNL     1     -10.687  -7.401   3.391  0.00  0.00    +0.160 C 
ATOM     34  C   UNL     1     -10.548  -8.403   2.250  0.00  0.00    +0.091 C 
ENDBRANCH  32  33
ENDBRANCH   8  25
ENDBRANCH  16   5
ENDBRANCH  11  16
TORSDOF 6
ENDMDL
MODEL 9
REMARK VINA RESULT:      -6.2      2.857      8.288
REMARK  Name = 26742464
REMARK  8 active torsions:
REMARK  status: ('A' for Active; 'I' for Inactive)
REMARK    1  A    between atoms: N_5  and  C_16
REMARK    2  A    between atoms: N_8  and  C_25
REMARK    3  A    between atoms: C_10  and  C_17
REMARK    4  A    between atoms: C_11  and  C_16
REMARK    5  A    between atoms: C_19  and  C_22
REMARK    6  A    between atoms: C_20  and  C_23
REMARK    7  A    between atoms: C_32  and  C_33
REMARK    8  A    between atoms: C_33  and  C_34
REMARK                            x       y       z     vdW  Elec       q    Type
REMARK                         _______ _______ _______ _____ _____    ______ ____
ROOT
ATOM      4  N   UNL     1      -4.738 -12.472  17.303  0.00  0.00    -0.297 NA
ATOM      9  C   UNL     1      -6.022 -10.308  17.974  0.00  0.00    +0.002 C 
ATOM     10  C   UNL     1      -6.971 -11.300  17.247  0.00  0.00    +0.055 C 
ATOM     11  C   UNL     1      -3.980 -11.272  16.858  0.00  0.00    +0.074 C 
ATOM     12  C   UNL     1      -4.818  -9.992  17.061  0.00  0.00    +0.024 C 
ATOM     13  C   UNL     1      -5.471 -11.046  19.213  0.00  0.00    +0.019 C 
ATOM     14  C   UNL     1      -6.096 -12.465  16.704  0.00  0.00    +0.094 C 
ATOM     15  C   UNL     1      -4.882 -12.399  18.776  0.00  0.00    +0.085 C 
ENDROOT
BRANCH  10  17
ATOM      6  N   UNL     1      -7.978 -11.418  15.021  0.00  0.00    -0.237 NA
ATOM      7  N   UNL     1      -9.598  -9.804  14.257  0.00  0.00    -0.229 NA
ATOM     17  C   UNL     1      -7.917 -10.747  16.191  0.00  0.00    +0.050 A 
ATOM     18  C   UNL     1      -8.655  -9.614  16.464  0.00  0.00    +0.055 A 
ATOM     19  C   UNL     1      -9.487  -9.184  15.450  0.00  0.00    +0.110 A 
ATOM     20  C   UNL     1      -8.826 -10.899  14.113  0.00  0.00    +0.127 A 
ATOM     23  C   UNL     1      -8.923 -11.613  12.807  0.00  0.00    +0.088 C 
BRANCH  19  22
ATOM      2  O   UNL     1     -11.110  -7.724  14.541  0.00  0.00    -0.461 OA
ATOM     22  C   UNL     1     -10.312  -8.014  15.602  0.00  0.00    +0.153 A 
ATOM     24  C   UNL     1     -10.485  -7.089  16.605  0.00  0.00    +0.051 A 
ATOM     26  C   UNL     1     -11.453  -6.172  16.130  0.00  0.00    +0.042 A 
ATOM     27  C   UNL     1     -11.802  -6.602  14.870  0.00  0.00    +0.196 A 
ENDBRANCH  19  22
ENDBRANCH  10  17
BRANCH  11  16
ATOM     16  C   UNL     1      -3.475 -11.401  15.420  0.00  0.00    +0.124 C 
BRANCH  16   5
ATOM      1  O   UNL     1      -4.315 -11.775  12.708  0.00  0.00    -0.253 OA
ATOM      5  N   UNL     1      -4.087 -10.425  14.573  0.00  0.00    -0.298 N 
ATOM      8  N   UNL     1      -5.044  -9.543  12.667  0.00  0.00    -0.269 N 
ATOM     21  C   UNL     1      -4.475 -10.682  13.245  0.00  0.00    +0.304 C 
ATOM     35  H   UNL     1      -4.246  -9.495  14.949  0.00  0.00    +0.150 HD
ATOM     36  H   UNL     1      -5.101  -8.714  13.253  0.00  0.00    +0.156 HD
BRANCH   8  25
ATOM     25  C   UNL     1      -5.553  -9.399  11.355  0.00  0.00    +0.035 A 
ATOM     28  C   UNL     1      -6.917  -9.178  11.158  0.00  0.00    +0.024 A 
ATOM     29  C   UNL     1      -4.693  -9.477  10.260  0.00  0.00    +0.024 A 
ATOM     30  C   UNL     1      -7.420  -9.035   9.865  0.00  0.00    +0.013 A 
ATOM     31  C   UNL     1      -5.196  -9.334   8.967  0.00  0.00    +0.013 A 
ATOM     32  C   UNL     1      -6.560  -9.113   8.770  0.00  0.00    +0.017 A 
BRANCH  32  33
ATOM      3  O   UNL     1      -8.154  -8.363   7.201  0.00  0.00    -0.292 OA
ATOM     33  C   UNL     1      -7.084  -8.964   7.421  0.00  0.00    +0.160 C 
ATOM     34  C   UNL     1      -6.325  -9.547   6.233  0.00  0.00    +0.091 C 
ENDBRANCH  32  33
ENDBRANCH   8  25
ENDBRANCH  16   5
ENDBRANCH  11  16
TORSDOF 6
ENDMDL
MODEL 10
REMARK VINA RESULT:      -6.2     24.508     27.231
REMARK  Name = 26742464
REMARK  8 active torsions:
REMARK  status: ('A' for Active; 'I' for Inactive)
REMARK    1  A    between atoms: N_5  and  C_16
REMARK    2  A    between atoms: N_8  and  C_25
REMARK    3  A    between atoms: C_10  and  C_17
REMARK    4  A    between atoms: C_11  and  C_16
REMARK    5  A    between atoms: C_19  and  C_22
REMARK    6  A    between atoms: C_20  and  C_23
REMARK    7  A    between atoms: C_32  and  C_33
REMARK    8  A    between atoms: C_33  and  C_34
REMARK                            x       y       z     vdW  Elec       q    Type
REMARK                         _______ _______ _______ _____ _____    ______ ____
ROOT
ATOM      4  N   UNL     1      10.467   6.515   6.375  0.00  0.00    -0.297 NA
ATOM      9  C   UNL     1       9.024   8.625   6.874  0.00  0.00    +0.002 C 
ATOM     10  C   UNL     1       8.411   7.812   5.701  0.00  0.00    +0.055 C 
ATOM     11  C   UNL     1      11.334   7.720   6.437  0.00  0.00    +0.074 C 
ATOM     12  C   UNL     1      10.480   9.003   6.525  0.00  0.00    +0.024 C 
ATOM     13  C   UNL     1       9.080   7.678   8.091  0.00  0.00    +0.019 C 
ATOM     14  C   UNL     1       9.424   6.692   5.332  0.00  0.00    +0.094 C 
ATOM     15  C   UNL     1       9.789   6.374   7.686  0.00  0.00    +0.085 C 
ENDROOT
BRANCH  10  17
ATOM      6  N   UNL     1       6.982   9.520   4.688  0.00  0.00    -0.237 NA
ATOM      7  N   UNL     1       7.001   9.971   2.320  0.00  0.00    -0.229 NA
ATOM     17  C   UNL     1       7.920   8.573   4.477  0.00  0.00    +0.050 A 
ATOM     18  C   UNL     1       8.440   8.272   3.235  0.00  0.00    +0.055 A 
ATOM     19  C   UNL     1       7.938   9.011   2.182  0.00  0.00    +0.110 A 
ATOM     20  C   UNL     1       6.573  10.171   3.582  0.00  0.00    +0.127 A 
ATOM     23  C   UNL     1       5.538  11.227   3.774  0.00  0.00    +0.088 C 
BRANCH  19  22
ATOM      2  O   UNL     1       7.666   9.425  -0.130  0.00  0.00    -0.461 OA
ATOM     22  C   UNL     1       8.393   8.799   0.833  0.00  0.00    +0.153 A 
ATOM     24  C   UNL     1       9.426   8.085   0.273  0.00  0.00    +0.051 A 
ATOM     26  C   UNL     1       9.328   8.286  -1.125  0.00  0.00    +0.042 A 
ATOM     27  C   UNL     1       8.243   9.108  -1.319  0.00  0.00    +0.196 A 
ENDBRANCH  19  22
ENDBRANCH  10  17
BRANCH  11  16
ATOM     16  C   UNL     1      12.334   7.780   5.280  0.00  0.00    +0.124 C 
BRANCH  16   5
ATOM      1  O   UNL     1      11.854   7.317   2.495  0.00  0.00    -0.253 OA
ATOM      5  N   UNL     1      12.403   6.525   4.599  0.00  0.00    -0.298 N 
ATOM      8  N   UNL     1      12.294   5.036   2.838  0.00  0.00    -0.269 N 
ATOM     21  C   UNL     1      12.153   6.373   3.222  0.00  0.00    +0.304 C 
ATOM     35  H   UNL     1      12.640   5.697   5.138  0.00  0.00    +0.150 HD
ATOM     36  H   UNL     1      12.547   4.376   3.569  0.00  0.00    +0.156 HD
BRANCH   8  25
ATOM     25  C   UNL     1      12.125   4.483   1.547  0.00  0.00    +0.035 A 
ATOM     28  C   UNL     1      13.143   3.714   0.980  0.00  0.00    +0.024 A 
ATOM     29  C   UNL     1      10.942   4.703   0.842  0.00  0.00    +0.024 A 
ATOM     30  C   UNL     1      12.977   3.168  -0.292  0.00  0.00    +0.013 A 
ATOM     31  C   UNL     1      10.777   4.157  -0.430  0.00  0.00    +0.013 A 
ATOM     32  C   UNL     1      11.795   3.389  -0.997  0.00  0.00    +0.017 A 
BRANCH  32  33
ATOM      3  O   UNL     1      10.605   2.161  -2.623  0.00  0.00    -0.292 OA
ATOM     33  C   UNL     1      11.621   2.818  -2.324  0.00  0.00    +0.160 C 
ATOM     34  C   UNL     1      12.693   3.015  -3.391  0.00  0.00    +0.091 C 
ENDBRANCH  32  33
ENDBRANCH   8  25
ENDBRANCH  16   5
ENDBRANCH  11  16
TORSDOF 6
ENDMDL
