MODEL 1
REMARK VINA RESULT:      -6.7      0.000      0.000
REMARK  Name = 75536550
REMARK  7 active torsions:
REMARK  status: ('A' for Active; 'I' for Inactive)
REMARK    1  A    between atoms: O_3  and  C_11
REMARK    2  A    between atoms: N_5  and  C_13
REMARK    3  A    between atoms: N_6  and  C_12
REMARK    4  A    between atoms: N_6  and  C_16
REMARK    5  A    between atoms: C_7  and  C_15
REMARK    6  A    between atoms: C_10  and  C_13
REMARK    7  A    between atoms: C_16  and  C_17
REMARK                            x       y       z     vdW  Elec       q    Type
REMARK                         _______ _______ _______ _____ _____    ______ ____
ROOT
ATOM      2  O   UNL     1      10.609   8.449  19.856  0.00  0.00    -0.371 OA
ATOM     10  C   UNL     1      10.998   7.613  20.959  0.00  0.00    +0.165 C 
ATOM     11  C   UNL     1      12.475   7.305  20.754  0.00  0.00    +0.164 C 
ATOM     12  C   UNL     1      12.549   7.224  19.241  0.00  0.00    +0.111 C 
ATOM     14  C   UNL     1      11.615   8.352  18.833  0.00  0.00    +0.181 C 
ENDROOT
BRANCH  11   3
ATOM      3  O   UNL     1      12.855   6.099  21.385  0.00  0.00    -0.388 OA
ATOM     25  H   UNL     1      13.087   6.296  22.308  0.00  0.00    +0.210 HD
ENDBRANCH  11   3
BRANCH  12   6
ATOM      6  N   UNL     1      13.895   7.384  18.713  0.00  0.00    -0.305 NA
ATOM     24  H   UNL     1      13.850   7.923  17.847  0.00  0.00    +0.123 HD
BRANCH   6  16
ATOM     16  C   UNL     1      14.750   8.088  19.662  0.00  0.00    +0.119 C 
BRANCH  16  17
ATOM      1  F   UNL     1      16.653   8.871  21.610  0.00  0.00    -0.205 F 
ATOM     17  C   UNL     1      16.074   7.394  19.843  0.00  0.00    +0.002 A 
ATOM     18  C   UNL     1      16.966   7.832  20.822  0.00  0.00    +0.128 A 
ATOM     19  C   UNL     1      16.409   6.313  19.028  0.00  0.00    +0.008 A 
ATOM     20  C   UNL     1      18.192   7.188  20.987  0.00  0.00    +0.038 A 
ATOM     21  C   UNL     1      17.635   5.669  19.194  0.00  0.00    +0.000 A 
ATOM     22  C   UNL     1      18.527   6.106  20.173  0.00  0.00    +0.003 A 
ENDBRANCH  16  17
ENDBRANCH   6  16
ENDBRANCH  12   6
BRANCH  10  13
ATOM     13  C   UNL     1      10.708   8.325  22.269  0.00  0.00    +0.138 C 
BRANCH  13   5
ATOM      4  O   UNL     1      11.269  11.150  21.872  0.00  0.00    -0.276 OA
ATOM      5  N   UNL     1      11.852   9.062  22.725  0.00  0.00    -0.313 N 
ATOM     15  C   UNL     1      12.035  10.417  22.487  0.00  0.00    +0.216 C 
ATOM     23  H   UNL     1      12.552   8.561  23.265  0.00  0.00    +0.149 HD
BRANCH  15   7
ATOM      7  C   UNL     1      13.294  10.979  23.057  0.00  0.00    +0.075 C 
ATOM      8  C   UNL     1      13.206  11.820  24.286  0.00  0.00    +0.013 C 
ATOM      9  C   UNL     1      13.524  12.451  22.963  0.00  0.00    +0.013 C 
ENDBRANCH  15   7
ENDBRANCH  13   5
ENDBRANCH  10  13
TORSDOF 7
ENDMDL
MODEL 2
REMARK VINA RESULT:      -6.3     16.084     17.842
REMARK  Name = 75536550
REMARK  7 active torsions:
REMARK  status: ('A' for Active; 'I' for Inactive)
REMARK    1  A    between atoms: O_3  and  C_11
REMARK    2  A    between atoms: N_5  and  C_13
REMARK    3  A    between atoms: N_6  and  C_12
REMARK    4  A    between atoms: N_6  and  C_16
REMARK    5  A    between atoms: C_7  and  C_15
REMARK    6  A    between atoms: C_10  and  C_13
REMARK    7  A    between atoms: C_16  and  C_17
REMARK                            x       y       z     vdW  Elec       q    Type
REMARK                         _______ _______ _______ _____ _____    ______ ____
ROOT
ATOM      2  O   UNL     1       9.435   7.004   3.204  0.00  0.00    -0.371 OA
ATOM     10  C   UNL     1       9.280   6.053   4.272  0.00  0.00    +0.165 C 
ATOM     11  C   UNL     1      10.592   5.284   4.344  0.00  0.00    +0.164 C 
ATOM     12  C   UNL     1      10.980   5.229   2.878  0.00  0.00    +0.111 C 
ATOM     14  C   UNL     1      10.565   6.613   2.405  0.00  0.00    +0.181 C 
ENDROOT
BRANCH  11   3
ATOM      3  O   UNL     1      10.421   4.001   4.912  0.00  0.00    -0.388 OA
ATOM     25  H   UNL     1      11.132   3.424   4.585  0.00  0.00    +0.210 HD
ENDBRANCH  11   3
BRANCH  12   6
ATOM      6  N   UNL     1      12.390   4.956   2.657  0.00  0.00    -0.305 NA
ATOM     24  H   UNL     1      12.852   4.838   3.560  0.00  0.00    +0.123 HD
BRANCH   6  16
ATOM     16  C   UNL     1      12.572   3.739   1.873  0.00  0.00    +0.119 C 
BRANCH  16  17
ATOM      1  F   UNL     1      15.331   3.356   2.392  0.00  0.00    -0.205 F 
ATOM     17  C   UNL     1      13.637   3.905   0.821  0.00  0.00    +0.002 A 
ATOM     18  C   UNL     1      14.978   3.702   1.145  0.00  0.00    +0.128 A 
ATOM     19  C   UNL     1      13.280   4.265  -0.478  0.00  0.00    +0.008 A 
ATOM     20  C   UNL     1      15.963   3.856   0.169  0.00  0.00    +0.038 A 
ATOM     21  C   UNL     1      14.265   4.419  -1.454  0.00  0.00    +0.000 A 
ATOM     22  C   UNL     1      15.606   4.215  -1.130  0.00  0.00    +0.003 A 
ENDBRANCH  16  17
ENDBRANCH   6  16
ENDBRANCH  12   6
BRANCH  10  13
ATOM     13  C   UNL     1       8.938   6.780   5.560  0.00  0.00    +0.138 C 
BRANCH  13   5
ATOM      4  O   UNL     1       8.607   7.489   8.361  0.00  0.00    -0.276 OA
ATOM      5  N   UNL     1       9.415   6.061   6.707  0.00  0.00    -0.313 N 
ATOM     15  C   UNL     1       9.208   6.478   8.014  0.00  0.00    +0.216 C 
ATOM     23  H   UNL     1       9.917   5.193   6.545  0.00  0.00    +0.149 HD
BRANCH  15   7
ATOM      7  C   UNL     1       9.789   5.575   9.050  0.00  0.00    +0.075 C 
ATOM      8  C   UNL     1       9.593   4.103   8.902  0.00  0.00    +0.013 C 
ATOM      9  C   UNL     1       8.861   4.857   9.971  0.00  0.00    +0.013 C 
ENDBRANCH  15   7
ENDBRANCH  13   5
ENDBRANCH  10  13
TORSDOF 7
ENDMDL
MODEL 3
REMARK VINA RESULT:      -6.0     25.677     27.752
REMARK  Name = 75536550
REMARK  7 active torsions:
REMARK  status: ('A' for Active; 'I' for Inactive)
REMARK    1  A    between atoms: O_3  and  C_11
REMARK    2  A    between atoms: N_5  and  C_13
REMARK    3  A    between atoms: N_6  and  C_12
REMARK    4  A    between atoms: N_6  and  C_16
REMARK    5  A    between atoms: C_7  and  C_15
REMARK    6  A    between atoms: C_10  and  C_13
REMARK    7  A    between atoms: C_16  and  C_17
REMARK                            x       y       z     vdW  Elec       q    Type
REMARK                         _______ _______ _______ _____ _____    ______ ____
ROOT
ATOM      2  O   UNL     1      -1.680 -10.637  13.096  0.00  0.00    -0.371 OA
ATOM     10  C   UNL     1      -1.948 -12.049  13.034  0.00  0.00    +0.165 C 
ATOM     11  C   UNL     1      -2.591 -12.414  14.365  0.00  0.00    +0.164 C 
ATOM     12  C   UNL     1      -1.858 -11.480  15.310  0.00  0.00    +0.111 C 
ATOM     14  C   UNL     1      -1.761 -10.218  14.470  0.00  0.00    +0.181 C 
ENDROOT
BRANCH  11   3
ATOM      3  O   UNL     1      -2.400 -13.777  14.686  0.00  0.00    -0.388 OA
ATOM     25  H   UNL     1      -3.246 -14.139  15.000  0.00  0.00    +0.210 HD
ENDBRANCH  11   3
BRANCH  12   6
ATOM      6  N   UNL     1      -2.548 -11.268  16.572  0.00  0.00    -0.305 NA
ATOM     24  H   UNL     1      -1.911 -10.812  17.227  0.00  0.00    +0.123 HD
BRANCH   6  16
ATOM     16  C   UNL     1      -3.723 -10.423  16.393  0.00  0.00    +0.119 C 
BRANCH  16  17
ATOM      1  F   UNL     1      -6.300  -9.246  16.355  0.00  0.00    -0.205 F 
ATOM     17  C   UNL     1      -4.743 -10.645  17.477  0.00  0.00    +0.002 A 
ATOM     18  C   UNL     1      -5.995 -10.034  17.396  0.00  0.00    +0.128 A 
ATOM     19  C   UNL     1      -4.435 -11.462  18.564  0.00  0.00    +0.008 A 
ATOM     20  C   UNL     1      -6.939 -10.241  18.402  0.00  0.00    +0.038 A 
ATOM     21  C   UNL     1      -5.379 -11.669  19.570  0.00  0.00    +0.000 A 
ATOM     22  C   UNL     1      -6.631 -11.059  19.489  0.00  0.00    +0.003 A 
ENDBRANCH  16  17
ENDBRANCH   6  16
ENDBRANCH  12   6
BRANCH  10  13
ATOM     13  C   UNL     1      -2.832 -12.351  11.837  0.00  0.00    +0.138 C 
BRANCH  13   5
ATOM      4  O   UNL     1      -5.174 -10.723  11.272  0.00  0.00    -0.276 OA
ATOM      5  N   UNL     1      -2.920 -11.221  10.956  0.00  0.00    -0.313 N 
ATOM     15  C   UNL     1      -4.088 -10.501  10.749  0.00  0.00    +0.216 C 
ATOM     23  H   UNL     1      -2.075 -10.929  10.475  0.00  0.00    +0.149 HD
BRANCH  15   7
ATOM      7  C   UNL     1      -3.951  -9.363   9.794  0.00  0.00    +0.075 C 
ATOM      8  C   UNL     1      -5.081  -8.396   9.671  0.00  0.00    +0.013 C 
ATOM      9  C   UNL     1      -4.793  -9.361   8.561  0.00  0.00    +0.013 C 
ENDBRANCH  15   7
ENDBRANCH  13   5
ENDBRANCH  10  13
TORSDOF 7
ENDMDL
MODEL 4
REMARK VINA RESULT:      -5.8     27.630     29.298
REMARK  Name = 75536550
REMARK  7 active torsions:
REMARK  status: ('A' for Active; 'I' for Inactive)
REMARK    1  A    between atoms: O_3  and  C_11
REMARK    2  A    between atoms: N_5  and  C_13
REMARK    3  A    between atoms: N_6  and  C_12
REMARK    4  A    between atoms: N_6  and  C_16
REMARK    5  A    between atoms: C_7  and  C_15
REMARK    6  A    between atoms: C_10  and  C_13
REMARK    7  A    between atoms: C_16  and  C_17
REMARK                            x       y       z     vdW  Elec       q    Type
REMARK                         _______ _______ _______ _____ _____    ______ ____
ROOT
ATOM      2  O   UNL     1      -9.302 -13.009  17.907  0.00  0.00    -0.371 OA
ATOM     10  C   UNL     1     -10.076 -12.018  18.605  0.00  0.00    +0.165 C 
ATOM     11  C   UNL     1      -9.072 -11.148  19.350  0.00  0.00    +0.164 C 
ATOM     12  C   UNL     1      -8.016 -12.173  19.721  0.00  0.00    +0.111 C 
ATOM     14  C   UNL     1      -7.978 -13.033  18.469  0.00  0.00    +0.181 C 
ENDROOT
BRANCH  11   3
ATOM      3  O   UNL     1      -9.650 -10.525  20.479  0.00  0.00    -0.388 OA
ATOM     25  H   UNL     1     -10.185  -9.773  20.173  0.00  0.00    +0.210 HD
ENDBRANCH  11   3
BRANCH  12   6
ATOM      6  N   UNL     1      -6.725 -11.589  20.046  0.00  0.00    -0.305 NA
ATOM     24  H   UNL     1      -5.986 -12.224  19.740  0.00  0.00    +0.123 HD
BRANCH   6  16
ATOM     16  C   UNL     1      -6.548 -10.303  19.381  0.00  0.00    +0.119 C 
BRANCH  16  17
ATOM      1  F   UNL     1      -7.323  -9.130  16.920  0.00  0.00    -0.205 F 
ATOM     17  C   UNL     1      -5.739 -10.433  18.118  0.00  0.00    +0.002 A 
ATOM     18  C   UNL     1      -6.179  -9.831  16.939  0.00  0.00    +0.128 A 
ATOM     19  C   UNL     1      -4.548 -11.159  18.127  0.00  0.00    +0.008 A 
ATOM     20  C   UNL     1      -5.428  -9.952  15.770  0.00  0.00    +0.038 A 
ATOM     21  C   UNL     1      -3.797 -11.281  16.958  0.00  0.00    +0.000 A 
ATOM     22  C   UNL     1      -4.237 -10.677  15.780  0.00  0.00    +0.003 A 
ENDBRANCH  16  17
ENDBRANCH   6  16
ENDBRANCH  12   6
BRANCH  10  13
ATOM     13  C   UNL     1     -10.926 -11.241  17.616  0.00  0.00    +0.138 C 
BRANCH  13   5
ATOM      4  O   UNL     1     -12.473  -8.800  17.296  0.00  0.00    -0.276 OA
ATOM      5  N   UNL     1     -10.428  -9.908  17.434  0.00  0.00    -0.313 N 
ATOM     15  C   UNL     1     -11.247  -8.797  17.290  0.00  0.00    +0.216 C 
ATOM     23  H   UNL     1      -9.421  -9.777  17.428  0.00  0.00    +0.149 HD
BRANCH  15   7
ATOM      7  C   UNL     1     -10.514  -7.509  17.116  0.00  0.00    +0.075 C 
ATOM      8  C   UNL     1     -11.212  -6.379  16.433  0.00  0.00    +0.013 C 
ATOM      9  C   UNL     1     -10.099  -7.105  15.740  0.00  0.00    +0.013 C 
ENDBRANCH  15   7
ENDBRANCH  13   5
ENDBRANCH  10  13
TORSDOF 7
ENDMDL
MODEL 5
REMARK VINA RESULT:      -5.8     27.452     29.474
REMARK  Name = 75536550
REMARK  7 active torsions:
REMARK  status: ('A' for Active; 'I' for Inactive)
REMARK    1  A    between atoms: O_3  and  C_11
REMARK    2  A    between atoms: N_5  and  C_13
REMARK    3  A    between atoms: N_6  and  C_12
REMARK    4  A    between atoms: N_6  and  C_16
REMARK    5  A    between atoms: C_7  and  C_15
REMARK    6  A    between atoms: C_10  and  C_13
REMARK    7  A    between atoms: C_16  and  C_17
REMARK                            x       y       z     vdW  Elec       q    Type
REMARK                         _______ _______ _______ _____ _____    ______ ____
ROOT
ATOM      2  O   UNL     1     -11.987  -9.410  15.980  0.00  0.00    -0.371 OA
ATOM     10  C   UNL     1     -12.070  -7.983  15.821  0.00  0.00    +0.165 C 
ATOM     11  C   UNL     1     -10.741  -7.427  16.316  0.00  0.00    +0.164 C 
ATOM     12  C   UNL     1     -10.427  -8.386  17.450  0.00  0.00    +0.111 C 
ATOM     14  C   UNL     1     -10.892  -9.709  16.863  0.00  0.00    +0.181 C 
ENDROOT
BRANCH  11   3
ATOM      3  O   UNL     1     -10.859  -6.087  16.751  0.00  0.00    -0.388 OA
ATOM     25  H   UNL     1     -10.881  -5.513  15.967  0.00  0.00    +0.210 HD
ENDBRANCH  11   3
BRANCH  12   6
ATOM      6  N   UNL     1      -9.025  -8.398  17.833  0.00  0.00    -0.305 NA
ATOM     24  H   UNL     1      -8.926  -8.894  18.720  0.00  0.00    +0.123 HD
BRANCH   6  16
ATOM     16  C   UNL     1      -8.212  -9.070  16.825  0.00  0.00    +0.119 C 
BRANCH  16  17
ATOM      1  F   UNL     1      -5.718  -9.369  15.514  0.00  0.00    -0.205 F 
ATOM     17  C   UNL     1      -7.042  -9.791  17.440  0.00  0.00    +0.002 A 
ATOM     18  C   UNL     1      -5.842  -9.903  16.738  0.00  0.00    +0.128 A 
ATOM     19  C   UNL     1      -7.160 -10.349  18.712  0.00  0.00    +0.008 A 
ATOM     20  C   UNL     1      -4.759 -10.572  17.309  0.00  0.00    +0.038 A 
ATOM     21  C   UNL     1      -6.078 -11.018  19.283  0.00  0.00    +0.000 A 
ATOM     22  C   UNL     1      -4.877 -11.129  18.582  0.00  0.00    +0.003 A 
ENDBRANCH  16  17
ENDBRANCH   6  16
ENDBRANCH  12   6
BRANCH  10  13
ATOM     13  C   UNL     1     -12.359  -7.644  14.370  0.00  0.00    +0.138 C 
BRANCH  13   5
ATOM      4  O   UNL     1     -12.594  -6.223  11.844  0.00  0.00    -0.276 OA
ATOM      5  N   UNL     1     -12.413  -6.225  14.166  0.00  0.00    -0.313 N 
ATOM     15  C   UNL     1     -12.526  -5.633  12.916  0.00  0.00    +0.216 C 
ATOM     23  H   UNL     1     -12.381  -5.628  14.988  0.00  0.00    +0.149 HD
BRANCH  15   7
ATOM      7  C   UNL     1     -12.566  -4.142  12.940  0.00  0.00    +0.075 C 
ATOM      8  C   UNL     1     -13.601  -3.444  12.122  0.00  0.00    +0.013 C 
ATOM      9  C   UNL     1     -12.160  -3.399  11.711  0.00  0.00    +0.013 C 
ENDBRANCH  15   7
ENDBRANCH  13   5
ENDBRANCH  10  13
TORSDOF 7
ENDMDL
MODEL 6
REMARK VINA RESULT:      -5.6     26.155     28.220
REMARK  Name = 75536550
REMARK  7 active torsions:
REMARK  status: ('A' for Active; 'I' for Inactive)
REMARK    1  A    between atoms: O_3  and  C_11
REMARK    2  A    between atoms: N_5  and  C_13
REMARK    3  A    between atoms: N_6  and  C_12
REMARK    4  A    between atoms: N_6  and  C_16
REMARK    5  A    between atoms: C_7  and  C_15
REMARK    6  A    between atoms: C_10  and  C_13
REMARK    7  A    between atoms: C_16  and  C_17
REMARK                            x       y       z     vdW  Elec       q    Type
REMARK                         _______ _______ _______ _____ _____    ______ ____
ROOT
ATOM      2  O   UNL     1      -7.690 -12.823  18.114  0.00  0.00    -0.371 OA
ATOM     10  C   UNL     1      -7.697 -12.202  19.411  0.00  0.00    +0.165 C 
ATOM     11  C   UNL     1      -6.380 -11.445  19.522  0.00  0.00    +0.164 C 
ATOM     12  C   UNL     1      -5.449 -12.365  18.755  0.00  0.00    +0.111 C 
ATOM     14  C   UNL     1      -6.343 -12.811  17.610  0.00  0.00    +0.181 C 
ENDROOT
BRANCH  11   3
ATOM      3  O   UNL     1      -5.986 -11.268  20.868  0.00  0.00    -0.388 OA
ATOM     25  H   UNL     1      -6.162 -12.095  21.349  0.00  0.00    +0.210 HD
ENDBRANCH  11   3
BRANCH  12   6
ATOM      6  N   UNL     1      -4.230 -11.716  18.301  0.00  0.00    -0.305 NA
ATOM     24  H   UNL     1      -3.657 -12.396  17.800  0.00  0.00    +0.123 HD
BRANCH   6  16
ATOM     16  C   UNL     1      -4.530 -10.602  17.408  0.00  0.00    +0.119 C 
BRANCH  16  17
ATOM      1  F   UNL     1      -5.577 -10.626  14.775  0.00  0.00    -0.205 F 
ATOM     17  C   UNL     1      -3.661 -10.621  16.178  0.00  0.00    +0.002 A 
ATOM     18  C   UNL     1      -4.243 -10.633  14.910  0.00  0.00    +0.128 A 
ATOM     19  C   UNL     1      -2.273 -10.628  16.309  0.00  0.00    +0.008 A 
ATOM     20  C   UNL     1      -3.436 -10.651  13.773  0.00  0.00    +0.038 A 
ATOM     21  C   UNL     1      -1.467 -10.646  15.171  0.00  0.00    +0.000 A 
ATOM     22  C   UNL     1      -2.048 -10.657  13.903  0.00  0.00    +0.003 A 
ENDBRANCH  16  17
ENDBRANCH   6  16
ENDBRANCH  12   6
BRANCH  10  13
ATOM     13  C   UNL     1      -8.917 -11.307  19.544  0.00  0.00    +0.138 C 
BRANCH  13   5
ATOM      4  O   UNL     1     -11.073  -9.702  18.435  0.00  0.00    -0.276 OA
ATOM      5  N   UNL     1      -8.803 -10.142  18.714  0.00  0.00    -0.313 N 
ATOM     15  C   UNL     1      -9.895  -9.436  18.229  0.00  0.00    +0.216 C 
ATOM     23  H   UNL     1      -7.869  -9.813  18.487  0.00  0.00    +0.149 HD
BRANCH  15   7
ATOM      7  C   UNL     1      -9.542  -8.256  17.388  0.00  0.00    +0.075 C 
ATOM      8  C   UNL     1     -10.648  -7.416  16.841  0.00  0.00    +0.013 C 
ATOM      9  C   UNL     1      -9.855  -8.302  15.929  0.00  0.00    +0.013 C 
ENDBRANCH  15   7
ENDBRANCH  13   5
ENDBRANCH  10  13
TORSDOF 7
ENDMDL
MODEL 7
REMARK VINA RESULT:      -5.5     29.094     31.268
REMARK  Name = 75536550
REMARK  7 active torsions:
REMARK  status: ('A' for Active; 'I' for Inactive)
REMARK    1  A    between atoms: O_3  and  C_11
REMARK    2  A    between atoms: N_5  and  C_13
REMARK    3  A    between atoms: N_6  and  C_12
REMARK    4  A    between atoms: N_6  and  C_16
REMARK    5  A    between atoms: C_7  and  C_15
REMARK    6  A    between atoms: C_10  and  C_13
REMARK    7  A    between atoms: C_16  and  C_17
REMARK                            x       y       z     vdW  Elec       q    Type
REMARK                         _______ _______ _______ _____ _____    ______ ____
ROOT
ATOM      2  O   UNL     1      -7.832  -7.984  39.244  0.00  0.00    -0.371 OA
ATOM     10  C   UNL     1      -8.160  -6.916  40.148  0.00  0.00    +0.165 C 
ATOM     11  C   UNL     1      -6.962  -5.977  40.144  0.00  0.00    +0.164 C 
ATOM     12  C   UNL     1      -5.819  -6.963  39.984  0.00  0.00    +0.111 C 
ATOM     14  C   UNL     1      -6.415  -7.957  39.000  0.00  0.00    +0.181 C 
ENDROOT
BRANCH  11   3
ATOM      3  O   UNL     1      -6.874  -5.229  41.341  0.00  0.00    -0.388 OA
ATOM     25  H   UNL     1      -5.985  -5.353  41.715  0.00  0.00    +0.210 HD
ENDBRANCH  11   3
BRANCH  12   6
ATOM      6  N   UNL     1      -4.589  -6.357  39.502  0.00  0.00    -0.305 NA
ATOM     24  H   UNL     1      -4.701  -5.342  39.488  0.00  0.00    +0.123 HD
BRANCH   6  16
ATOM     16  C   UNL     1      -3.464  -6.695  40.366  0.00  0.00    +0.119 C 
BRANCH  16  17
ATOM      1  F   UNL     1      -4.384  -5.761  42.878  0.00  0.00    -0.205 F 
ATOM     17  C   UNL     1      -2.896  -5.478  41.048  0.00  0.00    +0.002 A 
ATOM     18  C   UNL     1      -3.397  -5.072  42.285  0.00  0.00    +0.128 A 
ATOM     19  C   UNL     1      -1.870  -4.756  40.441  0.00  0.00    +0.008 A 
ATOM     20  C   UNL     1      -2.870  -3.945  42.915  0.00  0.00    +0.038 A 
ATOM     21  C   UNL     1      -1.344  -3.629  41.071  0.00  0.00    +0.000 A 
ATOM     22  C   UNL     1      -1.843  -3.223  42.308  0.00  0.00    +0.003 A 
ENDBRANCH  16  17
ENDBRANCH   6  16
ENDBRANCH  12   6
BRANCH  10  13
ATOM     13  C   UNL     1      -9.449  -6.247  39.705  0.00  0.00    +0.138 C 
BRANCH  13   5
ATOM      4  O   UNL     1     -11.160  -4.197  38.552  0.00  0.00    -0.276 OA
ATOM      5  N   UNL     1      -9.420  -4.836  39.964  0.00  0.00    -0.313 N 
ATOM     15  C   UNL     1     -10.281  -3.928  39.364  0.00  0.00    +0.216 C 
ATOM     23  H   UNL     1      -8.740  -4.493  40.636  0.00  0.00    +0.149 HD
BRANCH  15   7
ATOM      7  C   UNL     1     -10.074  -2.511  39.782  0.00  0.00    +0.075 C 
ATOM      8  C   UNL     1      -8.835  -1.810  39.334  0.00  0.00    +0.013 C 
ATOM      9  C   UNL     1      -8.996  -2.210  40.770  0.00  0.00    +0.013 C 
ENDBRANCH  15   7
ENDBRANCH  13   5
ENDBRANCH  10  13
TORSDOF 7
ENDMDL
MODEL 8
REMARK VINA RESULT:      -5.5     13.640     15.239
REMARK  Name = 75536550
REMARK  7 active torsions:
REMARK  status: ('A' for Active; 'I' for Inactive)
REMARK    1  A    between atoms: O_3  and  C_11
REMARK    2  A    between atoms: N_5  and  C_13
REMARK    3  A    between atoms: N_6  and  C_12
REMARK    4  A    between atoms: N_6  and  C_16
REMARK    5  A    between atoms: C_7  and  C_15
REMARK    6  A    between atoms: C_10  and  C_13
REMARK    7  A    between atoms: C_16  and  C_17
REMARK                            x       y       z     vdW  Elec       q    Type
REMARK                         _______ _______ _______ _____ _____    ______ ____
ROOT
ATOM      2  O   UNL     1      13.146   8.471   4.659  0.00  0.00    -0.371 OA
ATOM     10  C   UNL     1      12.708   7.520   5.644  0.00  0.00    +0.165 C 
ATOM     11  C   UNL     1      13.829   7.432   6.671  0.00  0.00    +0.164 C 
ATOM     12  C   UNL     1      15.050   7.608   5.788  0.00  0.00    +0.111 C 
ATOM     14  C   UNL     1      14.563   8.665   4.809  0.00  0.00    +0.181 C 
ENDROOT
BRANCH  11   3
ATOM      3  O   UNL     1      13.822   6.194   7.354  0.00  0.00    -0.388 OA
ATOM     25  H   UNL     1      13.345   5.547   6.808  0.00  0.00    +0.210 HD
ENDBRANCH  11   3
BRANCH  12   6
ATOM      6  N   UNL     1      16.242   8.015   6.513  0.00  0.00    -0.305 NA
ATOM     24  H   UNL     1      16.792   7.186   6.740  0.00  0.00    +0.123 HD
BRANCH   6  16
ATOM     16  C   UNL     1      17.060   8.919   5.713  0.00  0.00    +0.119 C 
BRANCH  16  17
ATOM      1  F   UNL     1      18.171   7.885   3.321  0.00  0.00    -0.205 F 
ATOM     17  C   UNL     1      18.484   8.441   5.609  0.00  0.00    +0.002 A 
ATOM     18  C   UNL     1      18.967   7.942   4.399  0.00  0.00    +0.128 A 
ATOM     19  C   UNL     1      19.319   8.497   6.723  0.00  0.00    +0.008 A 
ATOM     20  C   UNL     1      20.286   7.499   4.304  0.00  0.00    +0.038 A 
ATOM     21  C   UNL     1      20.639   8.055   6.628  0.00  0.00    +0.000 A 
ATOM     22  C   UNL     1      21.122   7.556   5.419  0.00  0.00    +0.003 A 
ENDBRANCH  16  17
ENDBRANCH   6  16
ENDBRANCH  12   6
BRANCH  10  13
ATOM     13  C   UNL     1      11.384   7.968   6.237  0.00  0.00    +0.138 C 
BRANCH  13   5
ATOM      4  O   UNL     1       8.607   7.567   7.000  0.00  0.00    -0.276 OA
ATOM      5  N   UNL     1      10.859   6.987   7.142  0.00  0.00    -0.313 N 
ATOM     15  C   UNL     1       9.510   6.869   7.448  0.00  0.00    +0.216 C 
ATOM     23  H   UNL     1      11.514   6.337   7.566  0.00  0.00    +0.149 HD
BRANCH  15   7
ATOM      7  C   UNL     1       9.188   5.777   8.411  0.00  0.00    +0.075 C 
ATOM      8  C   UNL     1      10.257   5.313   9.345  0.00  0.00    +0.013 C 
ATOM      9  C   UNL     1       9.819   4.439   8.208  0.00  0.00    +0.013 C 
ENDBRANCH  15   7
ENDBRANCH  13   5
ENDBRANCH  10  13
TORSDOF 7
ENDMDL
MODEL 9
REMARK VINA RESULT:      -5.4     16.102     18.025
REMARK  Name = 75536550
REMARK  7 active torsions:
REMARK  status: ('A' for Active; 'I' for Inactive)
REMARK    1  A    between atoms: O_3  and  C_11
REMARK    2  A    between atoms: N_5  and  C_13
REMARK    3  A    between atoms: N_6  and  C_12
REMARK    4  A    between atoms: N_6  and  C_16
REMARK    5  A    between atoms: C_7  and  C_15
REMARK    6  A    between atoms: C_10  and  C_13
REMARK    7  A    between atoms: C_16  and  C_17
REMARK                            x       y       z     vdW  Elec       q    Type
REMARK                         _______ _______ _______ _____ _____    ______ ____
ROOT
ATOM      2  O   UNL     1      12.422   8.195   4.598  0.00  0.00    -0.371 OA
ATOM     10  C   UNL     1      11.214   7.727   5.222  0.00  0.00    +0.165 C 
ATOM     11  C   UNL     1      11.078   6.262   4.829  0.00  0.00    +0.164 C 
ATOM     12  C   UNL     1      11.646   6.282   3.422  0.00  0.00    +0.111 C 
ATOM     14  C   UNL     1      12.804   7.254   3.579  0.00  0.00    +0.181 C 
ENDROOT
BRANCH  11   3
ATOM      3  O   UNL     1       9.733   5.828   4.870  0.00  0.00    -0.388 OA
ATOM     25  H   UNL     1       9.725   4.856   4.865  0.00  0.00    +0.210 HD
ENDBRANCH  11   3
BRANCH  12   6
ATOM      6  N   UNL     1      12.065   4.975   2.943  0.00  0.00    -0.305 NA
ATOM     24  H   UNL     1      12.187   4.351   3.742  0.00  0.00    +0.123 HD
BRANCH   6  16
ATOM     16  C   UNL     1      11.069   4.402   2.045  0.00  0.00    +0.119 C 
BRANCH  16  17
ATOM      1  F   UNL     1       9.636   4.940  -0.340  0.00  0.00    -0.205 F 
ATOM     17  C   UNL     1      11.633   4.148   0.672  0.00  0.00    +0.002 A 
ATOM     18  C   UNL     1      10.873   4.435  -0.461  0.00  0.00    +0.128 A 
ATOM     19  C   UNL     1      12.918   3.623   0.535  0.00  0.00    +0.008 A 
ATOM     20  C   UNL     1      11.397   4.199  -1.732  0.00  0.00    +0.038 A 
ATOM     21  C   UNL     1      13.443   3.387  -0.735  0.00  0.00    +0.000 A 
ATOM     22  C   UNL     1      12.683   3.675  -1.869  0.00  0.00    +0.003 A 
ENDBRANCH  16  17
ENDBRANCH   6  16
ENDBRANCH  12   6
BRANCH  10  13
ATOM     13  C   UNL     1      11.296   7.941   6.723  0.00  0.00    +0.138 C 
BRANCH  13   5
ATOM      4  O   UNL     1      11.703   5.617   8.422  0.00  0.00    -0.276 OA
ATOM      5  N   UNL     1      10.297   7.177   7.414  0.00  0.00    -0.313 N 
ATOM     15  C   UNL     1      10.587   6.077   8.207  0.00  0.00    +0.216 C 
ATOM     23  H   UNL     1       9.330   7.474   7.325  0.00  0.00    +0.149 HD
BRANCH  15   7
ATOM      7  C   UNL     1       9.394   5.435   8.833  0.00  0.00    +0.075 C 
ATOM      8  C   UNL     1       9.560   4.757  10.153  0.00  0.00    +0.013 C 
ATOM      9  C   UNL     1       9.346   3.945   8.911  0.00  0.00    +0.013 C 
ENDBRANCH  15   7
ENDBRANCH  13   5
ENDBRANCH  10  13
TORSDOF 7
ENDMDL
MODEL 10
REMARK VINA RESULT:      -5.4     14.198     15.385
REMARK  Name = 75536550
REMARK  7 active torsions:
REMARK  status: ('A' for Active; 'I' for Inactive)
REMARK    1  A    between atoms: O_3  and  C_11
REMARK    2  A    between atoms: N_5  and  C_13
REMARK    3  A    between atoms: N_6  and  C_12
REMARK    4  A    between atoms: N_6  and  C_16
REMARK    5  A    between atoms: C_7  and  C_15
REMARK    6  A    between atoms: C_10  and  C_13
REMARK    7  A    between atoms: C_16  and  C_17
REMARK                            x       y       z     vdW  Elec       q    Type
REMARK                         _______ _______ _______ _____ _____    ______ ____
ROOT
ATOM      2  O   UNL     1      13.347   9.825   5.755  0.00  0.00    -0.371 OA
ATOM     10  C   UNL     1      12.910   8.487   6.047  0.00  0.00    +0.165 C 
ATOM     11  C   UNL     1      14.129   7.756   6.594  0.00  0.00    +0.164 C 
ATOM     12  C   UNL     1      15.241   8.391   5.779  0.00  0.00    +0.111 C 
ATOM     14  C   UNL     1      14.785   9.840   5.726  0.00  0.00    +0.181 C 
ENDROOT
BRANCH  11   3
ATOM      3  O   UNL     1      14.038   6.359   6.399  0.00  0.00    -0.388 OA
ATOM     25  H   UNL     1      14.915   5.970   6.557  0.00  0.00    +0.210 HD
ENDBRANCH  11   3
BRANCH  12   6
ATOM      6  N   UNL     1      16.560   8.234   6.368  0.00  0.00    -0.305 NA
ATOM     24  H   UNL     1      16.875   7.273   6.228  0.00  0.00    +0.123 HD
BRANCH   6  16
ATOM     16  C   UNL     1      17.522   9.140   5.751  0.00  0.00    +0.119 C 
BRANCH  16  17
ATOM      1  F   UNL     1      19.567   8.971   7.706  0.00  0.00    -0.205 F 
ATOM     17  C   UNL     1      18.845   8.465   5.500  0.00  0.00    +0.002 A 
ATOM     18  C   UNL     1      19.809   8.419   6.508  0.00  0.00    +0.128 A 
ATOM     19  C   UNL     1      19.106   7.888   4.258  0.00  0.00    +0.008 A 
ATOM     20  C   UNL     1      21.034   7.794   6.273  0.00  0.00    +0.038 A 
ATOM     21  C   UNL     1      20.331   7.263   4.024  0.00  0.00    +0.000 A 
ATOM     22  C   UNL     1      21.294   7.216   5.031  0.00  0.00    +0.003 A 
ENDBRANCH  16  17
ENDBRANCH   6  16
ENDBRANCH  12   6
BRANCH  10  13
ATOM     13  C   UNL     1      11.747   8.529   7.022  0.00  0.00    +0.138 C 
BRANCH  13   5
ATOM      4  O   UNL     1      11.573   5.846   8.131  0.00  0.00    -0.276 OA
ATOM      5  N   UNL     1      10.775   7.518   6.718  0.00  0.00    -0.313 N 
ATOM     15  C   UNL     1      10.771   6.258   7.301  0.00  0.00    +0.216 C 
ATOM     23  H   UNL     1      10.045   7.750   6.051  0.00  0.00    +0.149 HD
BRANCH  15   7
ATOM      7  C   UNL     1       9.666   5.368   6.839  0.00  0.00    +0.075 C 
ATOM      8  C   UNL     1       9.769   4.751   5.484  0.00  0.00    +0.013 C 
ATOM      9  C   UNL     1       8.778   5.847   5.739  0.00  0.00    +0.013 C 
ENDBRANCH  15   7
ENDBRANCH  13   5
ENDBRANCH  10  13
TORSDOF 7
ENDMDL
