MODEL 1
REMARK VINA RESULT:      -7.1      0.000      0.000
REMARK  Name = 45783978
REMARK  14 active torsions:
REMARK  status: ('A' for Active; 'I' for Inactive)
REMARK    1  A    between atoms: N_2  and  C_14
REMARK    2  A    between atoms: N_2  and  C_20
REMARK    3  A    between atoms: N_6  and  C_32
REMARK    4  A    between atoms: N_6  and  C_33
REMARK    5  A    between atoms: N_6  and  C_34
REMARK    6  A    between atoms: C_7  and  C_11
REMARK    7  A    between atoms: C_8  and  C_14
REMARK    8  A    between atoms: C_10  and  C_15
REMARK    9  A    between atoms: C_11  and  C_16
REMARK   10  A    between atoms: C_11  and  C_17
REMARK   11  A    between atoms: C_12  and  C_18
REMARK   12  A    between atoms: C_15  and  C_19
REMARK   13  A    between atoms: C_20  and  C_21
REMARK   14  A    between atoms: C_22  and  C_25
REMARK                            x       y       z     vdW  Elec       q    Type
REMARK                         _______ _______ _______ _____ _____    ______ ____
ROOT
ATOM      7  C   UNL     1     -15.659   3.526  29.555  0.00  0.00    +0.000 C 
ATOM      8  C   UNL     1     -15.680   2.066  30.066  0.00  0.00    +0.029 C 
ATOM      9  C   UNL     1     -15.545   3.557  28.025  0.00  0.00    +0.012 C 
ATOM     10  C   UNL     1     -16.672   2.780  27.310  0.00  0.00    +0.024 C 
ATOM     12  C   UNL     1     -17.037   1.482  28.015  0.00  0.00    -0.073 C 
ATOM     13  C   UNL     1     -16.574   1.177  29.240  0.00  0.00    -0.023 C 
ATOM     18  C   UNL     1     -17.996   0.559  27.315  0.00  0.00    +0.039 C 
ENDROOT
BRANCH   7  11
ATOM     11  C   UNL     1     -16.890   4.305  30.037  0.00  0.00    -0.013 C 
ATOM     16  C   UNL     1     -16.704   5.799  29.790  0.00  0.00    +0.007 C 
ATOM     17  C   UNL     1     -17.151   4.028  31.514  0.00  0.00    +0.007 C 
ENDBRANCH   7  11
BRANCH   8  14
ATOM     14  C   UNL     1     -14.272   1.462  30.112  0.00  0.00    +0.089 C 
BRANCH  14   2
ATOM      2  N   UNL     1     -13.366   2.329  30.845  0.00  0.00    -0.311 NA
ATOM     35  H   UNL     1     -13.521   3.293  30.550  0.00  0.00    +0.122 HD
BRANCH   2  20
ATOM     20  C   UNL     1     -13.592   2.229  32.282  0.00  0.00    +0.117 C 
BRANCH  20  21
ATOM      5  N   UNL     1     -14.783   4.838  34.754  0.00  0.00    -0.263 NA
ATOM     21  C   UNL     1     -13.895   3.570  32.896  0.00  0.00    -0.016 A 
ATOM     23  C   UNL     1     -13.593   4.750  32.226  0.00  0.00    +0.008 A 
ATOM     24  C   UNL     1     -14.483   3.667  34.147  0.00  0.00    +0.115 A 
ATOM     26  C   UNL     1     -13.886   5.973  32.817  0.00  0.00    +0.020 A 
ATOM     29  C   UNL     1     -14.475   5.964  34.071  0.00  0.00    +0.111 A 
ENDBRANCH  20  21
ENDBRANCH   2  20
ENDBRANCH  14   2
ENDBRANCH   8  14
BRANCH  10  15
ATOM     15  C   UNL     1     -16.270   2.571  25.846  0.00  0.00    +0.105 C 
BRANCH  15  19
ATOM      1  O   UNL     1     -15.309   4.210  24.314  0.00  0.00    -0.420 OA
ATOM      3  N   UNL     1     -17.395   4.683  24.971  0.00  0.00    -0.112 NA
ATOM      4  N   UNL     1     -16.979   5.686  24.114  0.00  0.00    -0.107 NA
ATOM     19  C   UNL     1     -16.389   3.845  25.057  0.00  0.00    +0.218 A 
ATOM     22  C   UNL     1     -15.757   5.368  23.755  0.00  0.00    +0.248 A 
BRANCH  22  25
ATOM     25  C   UNL     1     -14.838   6.041  22.884  0.00  0.00    +0.039 A 
ATOM     27  C   UNL     1     -13.808   5.327  22.271  0.00  0.00    +0.015 A 
ATOM     28  C   UNL     1     -14.974   7.409  22.649  0.00  0.00    +0.015 A 
ATOM     30  C   UNL     1     -12.915   5.982  21.423  0.00  0.00    +0.024 A 
ATOM     31  C   UNL     1     -14.081   8.063  21.801  0.00  0.00    +0.024 A 
ATOM     32  C   UNL     1     -13.050   7.349  21.188  0.00  0.00    +0.029 A 
BRANCH  32   6
ATOM      6  N   UNL     1     -12.147   8.011  20.332  0.00  0.00    -0.336 N 
ATOM     33  C   UNL     1     -11.411   7.270  19.326  0.00  0.00    +0.129 C 
ATOM     34  C   UNL     1     -11.935   9.440  20.450  0.00  0.00    +0.129 C 
ENDBRANCH  32   6
ENDBRANCH  22  25
ENDBRANCH  15  19
ENDBRANCH  10  15
TORSDOF 9
ENDMDL
MODEL 2
REMARK VINA RESULT:      -6.8      1.436      2.168
REMARK  Name = 45783978
REMARK  14 active torsions:
REMARK  status: ('A' for Active; 'I' for Inactive)
REMARK    1  A    between atoms: N_2  and  C_14
REMARK    2  A    between atoms: N_2  and  C_20
REMARK    3  A    between atoms: N_6  and  C_32
REMARK    4  A    between atoms: N_6  and  C_33
REMARK    5  A    between atoms: N_6  and  C_34
REMARK    6  A    between atoms: C_7  and  C_11
REMARK    7  A    between atoms: C_8  and  C_14
REMARK    8  A    between atoms: C_10  and  C_15
REMARK    9  A    between atoms: C_11  and  C_16
REMARK   10  A    between atoms: C_11  and  C_17
REMARK   11  A    between atoms: C_12  and  C_18
REMARK   12  A    between atoms: C_15  and  C_19
REMARK   13  A    between atoms: C_20  and  C_21
REMARK   14  A    between atoms: C_22  and  C_25
REMARK                            x       y       z     vdW  Elec       q    Type
REMARK                         _______ _______ _______ _____ _____    ______ ____
ROOT
ATOM      7  C   UNL     1     -16.443   2.983  28.484  0.00  0.00    +0.000 C 
ATOM      8  C   UNL     1     -16.906   1.507  28.487  0.00  0.00    +0.029 C 
ATOM      9  C   UNL     1     -15.753   3.327  27.157  0.00  0.00    +0.012 C 
ATOM     10  C   UNL     1     -16.639   3.065  25.920  0.00  0.00    +0.024 C 
ATOM     12  C   UNL     1     -17.461   1.790  26.037  0.00  0.00    -0.073 C 
ATOM     13  C   UNL     1     -17.558   1.103  27.189  0.00  0.00    -0.023 C 
ATOM     18  C   UNL     1     -18.225   1.343  24.821  0.00  0.00    +0.039 C 
ENDROOT
BRANCH   7  11
ATOM     11  C   UNL     1     -17.612   3.937  28.765  0.00  0.00    -0.013 C 
ATOM     16  C   UNL     1     -17.149   5.387  28.672  0.00  0.00    +0.007 C 
ATOM     17  C   UNL     1     -18.216   3.649  30.136  0.00  0.00    +0.007 C 
ENDBRANCH   7  11
BRANCH   8  14
ATOM     14  C   UNL     1     -15.748   0.551  28.789  0.00  0.00    +0.089 C 
BRANCH  14   2
ATOM      2  N   UNL     1     -15.846   0.038  30.144  0.00  0.00    -0.311 NA
ATOM     35  H   UNL     1     -16.173  -0.928  30.108  0.00  0.00    +0.122 HD
BRANCH   2  20
ATOM     20  C   UNL     1     -14.551   0.077  30.814  0.00  0.00    +0.117 C 
BRANCH  20  21
ATOM      5  N   UNL     1     -14.686   2.572  33.659  0.00  0.00    -0.263 NA
ATOM     21  C   UNL     1     -14.364   1.349  31.598  0.00  0.00    -0.016 A 
ATOM     23  C   UNL     1     -13.727   2.450  31.035  0.00  0.00    +0.008 A 
ATOM     24  C   UNL     1     -14.821   1.460  32.902  0.00  0.00    +0.115 A 
ATOM     26  C   UNL     1     -13.570   3.611  31.783  0.00  0.00    +0.020 A 
ATOM     29  C   UNL     1     -14.063   3.622  33.078  0.00  0.00    +0.111 A 
ENDBRANCH  20  21
ENDBRANCH   2  20
ENDBRANCH  14   2
ENDBRANCH   8  14
BRANCH  10  15
ATOM     15  C   UNL     1     -15.753   3.091  24.669  0.00  0.00    +0.105 C 
BRANCH  15  19
ATOM      1  O   UNL     1     -14.672   4.728  23.216  0.00  0.00    -0.420 OA
ATOM      3  N   UNL     1     -16.535   5.471  24.207  0.00  0.00    -0.112 NA
ATOM      4  N   UNL     1     -16.032   6.492  23.422  0.00  0.00    -0.107 NA
ATOM     19  C   UNL     1     -15.709   4.463  24.056  0.00  0.00    +0.218 A 
ATOM     22  C   UNL     1     -14.945   6.013  22.862  0.00  0.00    +0.248 A 
BRANCH  22  25
ATOM     25  C   UNL     1     -14.019   6.624  21.954  0.00  0.00    +0.039 A 
ATOM     27  C   UNL     1     -14.317   7.860  21.379  0.00  0.00    +0.015 A 
ATOM     28  C   UNL     1     -12.819   5.983  21.644  0.00  0.00    +0.015 A 
ATOM     30  C   UNL     1     -13.416   8.454  20.496  0.00  0.00    +0.024 A 
ATOM     31  C   UNL     1     -11.919   6.577  20.761  0.00  0.00    +0.024 A 
ATOM     32  C   UNL     1     -12.217   7.813  20.186  0.00  0.00    +0.029 A 
BRANCH  32   6
ATOM      6  N   UNL     1     -11.307   8.413  19.293  0.00  0.00    -0.336 N 
ATOM     33  C   UNL     1     -10.557   9.589  19.688  0.00  0.00    +0.129 C 
ATOM     34  C   UNL     1     -11.112   7.866  17.965  0.00  0.00    +0.129 C 
ENDBRANCH  32   6
ENDBRANCH  22  25
ENDBRANCH  15  19
ENDBRANCH  10  15
TORSDOF 9
ENDMDL
MODEL 3
REMARK VINA RESULT:      -6.7     27.778     32.219
REMARK  Name = 45783978
REMARK  14 active torsions:
REMARK  status: ('A' for Active; 'I' for Inactive)
REMARK    1  A    between atoms: N_2  and  C_14
REMARK    2  A    between atoms: N_2  and  C_20
REMARK    3  A    between atoms: N_6  and  C_32
REMARK    4  A    between atoms: N_6  and  C_33
REMARK    5  A    between atoms: N_6  and  C_34
REMARK    6  A    between atoms: C_7  and  C_11
REMARK    7  A    between atoms: C_8  and  C_14
REMARK    8  A    between atoms: C_10  and  C_15
REMARK    9  A    between atoms: C_11  and  C_16
REMARK   10  A    between atoms: C_11  and  C_17
REMARK   11  A    between atoms: C_12  and  C_18
REMARK   12  A    between atoms: C_15  and  C_19
REMARK   13  A    between atoms: C_20  and  C_21
REMARK   14  A    between atoms: C_22  and  C_25
REMARK                            x       y       z     vdW  Elec       q    Type
REMARK                         _______ _______ _______ _____ _____    ______ ____
ROOT
ATOM      7  C   UNL     1      13.217  11.743  23.746  0.00  0.00    +0.000 C 
ATOM      8  C   UNL     1      11.842  11.701  23.038  0.00  0.00    +0.029 C 
ATOM      9  C   UNL     1      14.181  10.735  23.104  0.00  0.00    +0.012 C 
ATOM     10  C   UNL     1      14.376  10.953  21.588  0.00  0.00    +0.024 C 
ATOM     12  C   UNL     1      13.088  11.330  20.871  0.00  0.00    -0.073 C 
ATOM     13  C   UNL     1      11.964  11.649  21.537  0.00  0.00    -0.023 C 
ATOM     18  C   UNL     1      13.124  11.394  19.369  0.00  0.00    +0.039 C 
ENDROOT
BRANCH   7  11
ATOM     11  C   UNL     1      13.808  13.159  23.737  0.00  0.00    -0.013 C 
ATOM     16  C   UNL     1      15.020  13.235  24.660  0.00  0.00    +0.007 C 
ATOM     17  C   UNL     1      12.750  14.179  24.147  0.00  0.00    +0.007 C 
ENDBRANCH   7  11
BRANCH   8  14
ATOM     14  C   UNL     1      10.995  10.517  23.517  0.00  0.00    +0.089 C 
BRANCH  14   2
ATOM      2  N   UNL     1      10.379   9.838  22.390  0.00  0.00    -0.311 NA
ATOM     35  H   UNL     1      10.715  10.262  21.526  0.00  0.00    +0.122 HD
BRANCH   2  20
ATOM     20  C   UNL     1      10.715   8.418  22.386  0.00  0.00    +0.117 C 
BRANCH  20  21
ATOM      5  N   UNL     1      11.511   8.115  18.697  0.00  0.00    -0.263 NA
ATOM     21  C   UNL     1      11.402   8.009  21.110  0.00  0.00    -0.016 A 
ATOM     23  C   UNL     1      12.519   7.181  21.132  0.00  0.00    +0.008 A 
ATOM     24  C   UNL     1      10.941   8.445  19.878  0.00  0.00    +0.115 A 
ATOM     26  C   UNL     1      13.131   6.819  19.938  0.00  0.00    +0.020 A 
ATOM     29  C   UNL     1      12.594   7.308  18.758  0.00  0.00    +0.111 A 
ENDBRANCH  20  21
ENDBRANCH   2  20
ENDBRANCH  14   2
ENDBRANCH   8  14
BRANCH  10  15
ATOM     15  C   UNL     1      15.047   9.708  20.996  0.00  0.00    +0.105 C 
BRANCH  15  19
ATOM      1  O   UNL     1      17.095   8.441  21.390  0.00  0.00    -0.420 OA
ATOM      3  N   UNL     1      17.345  10.659  21.548  0.00  0.00    -0.112 NA
ATOM      4  N   UNL     1      18.573  10.072  21.792  0.00  0.00    -0.107 NA
ATOM     19  C   UNL     1      16.514   9.669  21.318  0.00  0.00    +0.218 A 
ATOM     22  C   UNL     1      18.380   8.778  21.689  0.00  0.00    +0.248 A 
BRANCH  22  25
ATOM     25  C   UNL     1      19.295   7.685  21.842  0.00  0.00    +0.039 A 
ATOM     27  C   UNL     1      19.471   6.771  20.802  0.00  0.00    +0.015 A 
ATOM     28  C   UNL     1      20.010   7.534  23.031  0.00  0.00    +0.015 A 
ATOM     30  C   UNL     1      20.362   5.709  20.951  0.00  0.00    +0.024 A 
ATOM     31  C   UNL     1      20.900   6.471  23.179  0.00  0.00    +0.024 A 
ATOM     32  C   UNL     1      21.076   5.558  22.139  0.00  0.00    +0.029 A 
BRANCH  32   6
ATOM      6  N   UNL     1      21.976   4.483  22.290  0.00  0.00    -0.336 N 
ATOM     33  C   UNL     1      21.901   3.333  21.410  0.00  0.00    +0.129 C 
ATOM     34  C   UNL     1      22.985   4.510  23.330  0.00  0.00    +0.129 C 
ENDBRANCH  32   6
ENDBRANCH  22  25
ENDBRANCH  15  19
ENDBRANCH  10  15
TORSDOF 9
ENDMDL
MODEL 4
REMARK VINA RESULT:      -6.7     18.709     22.131
REMARK  Name = 45783978
REMARK  14 active torsions:
REMARK  status: ('A' for Active; 'I' for Inactive)
REMARK    1  A    between atoms: N_2  and  C_14
REMARK    2  A    between atoms: N_2  and  C_20
REMARK    3  A    between atoms: N_6  and  C_32
REMARK    4  A    between atoms: N_6  and  C_33
REMARK    5  A    between atoms: N_6  and  C_34
REMARK    6  A    between atoms: C_7  and  C_11
REMARK    7  A    between atoms: C_8  and  C_14
REMARK    8  A    between atoms: C_10  and  C_15
REMARK    9  A    between atoms: C_11  and  C_16
REMARK   10  A    between atoms: C_11  and  C_17
REMARK   11  A    between atoms: C_12  and  C_18
REMARK   12  A    between atoms: C_15  and  C_19
REMARK   13  A    between atoms: C_20  and  C_21
REMARK   14  A    between atoms: C_22  and  C_25
REMARK                            x       y       z     vdW  Elec       q    Type
REMARK                         _______ _______ _______ _____ _____    ______ ____
ROOT
ATOM      7  C   UNL     1      -4.258 -10.451  15.196  0.00  0.00    +0.000 C 
ATOM      8  C   UNL     1      -5.438 -11.329  14.715  0.00  0.00    +0.029 C 
ATOM      9  C   UNL     1      -4.281 -10.315  16.725  0.00  0.00    +0.012 C 
ATOM     10  C   UNL     1      -4.246 -11.671  17.462  0.00  0.00    +0.024 C 
ATOM     12  C   UNL     1      -5.095 -12.737  16.786  0.00  0.00    -0.073 C 
ATOM     13  C   UNL     1      -5.628 -12.560  15.563  0.00  0.00    -0.023 C 
ATOM     18  C   UNL     1      -5.276 -14.043  17.510  0.00  0.00    +0.039 C 
ENDROOT
BRANCH   7  11
ATOM     11  C   UNL     1      -2.913 -11.005  14.708  0.00  0.00    -0.013 C 
ATOM     16  C   UNL     1      -1.762 -10.342  15.458  0.00  0.00    +0.007 C 
ATOM     17  C   UNL     1      -2.768 -10.800  13.204  0.00  0.00    +0.007 C 
ENDBRANCH   7  11
BRANCH   8  14
ATOM     14  C   UNL     1      -6.750 -10.539  14.671  0.00  0.00    +0.089 C 
BRANCH  14   2
ATOM      2  N   UNL     1      -6.612  -9.360  13.834  0.00  0.00    -0.311 NA
ATOM     35  H   UNL     1      -5.625  -9.110  13.777  0.00  0.00    +0.122 HD
BRANCH   2  20
ATOM     20  C   UNL     1      -7.116  -9.611  12.488  0.00  0.00    +0.117 C 
BRANCH  20  21
ATOM      5  N   UNL     1      -4.720 -11.156   9.998  0.00  0.00    -0.263 NA
ATOM     21  C   UNL     1      -6.000  -9.745  11.487  0.00  0.00    -0.016 A 
ATOM     23  C   UNL     1      -5.230  -8.647  11.120  0.00  0.00    +0.008 A 
ATOM     24  C   UNL     1      -5.708 -10.967  10.901  0.00  0.00    +0.115 A 
ATOM     26  C   UNL     1      -4.205  -8.803  10.194  0.00  0.00    +0.020 A 
ATOM     29  C   UNL     1      -3.992 -10.066   9.667  0.00  0.00    +0.111 A 
ENDBRANCH  20  21
ENDBRANCH   2  20
ENDBRANCH  14   2
ENDBRANCH   8  14
BRANCH  10  15
ATOM     15  C   UNL     1      -4.632 -11.443  18.928  0.00  0.00    +0.105 C 
BRANCH  15  19
ATOM      1  O   UNL     1      -6.753 -10.406  18.308  0.00  0.00    -0.420 OA
ATOM      3  N   UNL     1      -6.928 -11.978  19.890  0.00  0.00    -0.112 NA
ATOM      4  N   UNL     1      -8.195 -11.481  19.640  0.00  0.00    -0.107 NA
ATOM     19  C   UNL     1      -6.121 -11.322  19.091  0.00  0.00    +0.218 A 
ATOM     22  C   UNL     1      -8.044 -10.566  18.710  0.00  0.00    +0.248 A 
BRANCH  22  25
ATOM     25  C   UNL     1      -9.010  -9.726  18.066  0.00  0.00    +0.039 A 
ATOM     27  C   UNL     1      -8.605  -8.821  17.084  0.00  0.00    +0.015 A 
ATOM     28  C   UNL     1     -10.357  -9.811  18.422  0.00  0.00    +0.015 A 
ATOM     30  C   UNL     1      -9.546  -8.005  16.458  0.00  0.00    +0.024 A 
ATOM     31  C   UNL     1     -11.297  -8.994  17.795  0.00  0.00    +0.024 A 
ATOM     32  C   UNL     1     -10.891  -8.090  16.813  0.00  0.00    +0.029 A 
BRANCH  32   6
ATOM      6  N   UNL     1     -11.842  -7.263  16.180  0.00  0.00    -0.336 N 
ATOM     33  C   UNL     1     -11.470  -5.943  15.710  0.00  0.00    +0.129 C 
ATOM     34  C   UNL     1     -13.205  -7.719  15.997  0.00  0.00    +0.129 C 
ENDBRANCH  32   6
ENDBRANCH  22  25
ENDBRANCH  15  19
ENDBRANCH  10  15
TORSDOF 9
ENDMDL
MODEL 5
REMARK VINA RESULT:      -6.5     20.057     23.338
REMARK  Name = 45783978
REMARK  14 active torsions:
REMARK  status: ('A' for Active; 'I' for Inactive)
REMARK    1  A    between atoms: N_2  and  C_14
REMARK    2  A    between atoms: N_2  and  C_20
REMARK    3  A    between atoms: N_6  and  C_32
REMARK    4  A    between atoms: N_6  and  C_33
REMARK    5  A    between atoms: N_6  and  C_34
REMARK    6  A    between atoms: C_7  and  C_11
REMARK    7  A    between atoms: C_8  and  C_14
REMARK    8  A    between atoms: C_10  and  C_15
REMARK    9  A    between atoms: C_11  and  C_16
REMARK   10  A    between atoms: C_11  and  C_17
REMARK   11  A    between atoms: C_12  and  C_18
REMARK   12  A    between atoms: C_15  and  C_19
REMARK   13  A    between atoms: C_20  and  C_21
REMARK   14  A    between atoms: C_22  and  C_25
REMARK                            x       y       z     vdW  Elec       q    Type
REMARK                         _______ _______ _______ _____ _____    ______ ____
ROOT
ATOM      7  C   UNL     1      -3.942 -11.969  12.040  0.00  0.00    +0.000 C 
ATOM      8  C   UNL     1      -3.045 -11.488  13.206  0.00  0.00    +0.029 C 
ATOM      9  C   UNL     1      -4.281 -10.798  11.107  0.00  0.00    +0.012 C 
ATOM     10  C   UNL     1      -3.034 -10.088  10.537  0.00  0.00    +0.024 C 
ATOM     12  C   UNL     1      -1.914  -9.942  11.557  0.00  0.00    -0.073 C 
ATOM     13  C   UNL     1      -1.944 -10.567  12.748  0.00  0.00    -0.023 C 
ATOM     18  C   UNL     1      -0.723  -9.112  11.165  0.00  0.00    +0.039 C 
ENDROOT
BRANCH   7  11
ATOM     11  C   UNL     1      -3.287 -13.122  11.269  0.00  0.00    -0.013 C 
ATOM     16  C   UNL     1      -4.208 -13.607  10.154  0.00  0.00    +0.007 C 
ATOM     17  C   UNL     1      -2.937 -14.265  12.217  0.00  0.00    +0.007 C 
ENDBRANCH   7  11
BRANCH   8  14
ATOM     14  C   UNL     1      -3.863 -10.793  14.300  0.00  0.00    +0.089 C 
BRANCH  14   2
ATOM      2  N   UNL     1      -3.858 -11.579  15.521  0.00  0.00    -0.311 NA
ATOM     35  H   UNL     1      -3.103 -12.262  15.471  0.00  0.00    +0.122 HD
BRANCH   2  20
ATOM     20  C   UNL     1      -3.654 -10.729  16.690  0.00  0.00    +0.117 C 
BRANCH  20  21
ATOM      5  N   UNL     1      -7.156 -10.143  18.005  0.00  0.00    -0.263 NA
ATOM     21  C   UNL     1      -4.847 -10.744  17.608  0.00  0.00    -0.016 A 
ATOM     23  C   UNL     1      -4.778 -11.337  18.864  0.00  0.00    +0.008 A 
ATOM     24  C   UNL     1      -6.048 -10.166  17.229  0.00  0.00    +0.115 A 
ATOM     26  C   UNL     1      -5.896 -11.334  19.690  0.00  0.00    +0.020 A 
ATOM     29  C   UNL     1      -7.050 -10.729  19.218  0.00  0.00    +0.111 A 
ENDBRANCH  20  21
ENDBRANCH   2  20
ENDBRANCH  14   2
ENDBRANCH   8  14
BRANCH  10  15
ATOM     15  C   UNL     1      -3.467  -8.748   9.931  0.00  0.00    +0.105 C 
BRANCH  15  19
ATOM      1  O   UNL     1      -5.769  -8.057   9.502  0.00  0.00    -0.420 OA
ATOM      3  N   UNL     1      -5.040  -9.698   8.167  0.00  0.00    -0.112 NA
ATOM      4  N   UNL     1      -6.347  -9.410   7.816  0.00  0.00    -0.107 NA
ATOM     19  C   UNL     1      -4.746  -8.885   9.154  0.00  0.00    +0.218 A 
ATOM     22  C   UNL     1      -6.731  -8.447   8.621  0.00  0.00    +0.248 A 
BRANCH  22  25
ATOM     25  C   UNL     1      -7.983  -7.756   8.715  0.00  0.00    +0.039 A 
ATOM     27  C   UNL     1      -8.112  -6.469   8.190  0.00  0.00    +0.015 A 
ATOM     28  C   UNL     1      -9.074  -8.369   9.332  0.00  0.00    +0.015 A 
ATOM     30  C   UNL     1      -9.330  -5.797   8.281  0.00  0.00    +0.024 A 
ATOM     31  C   UNL     1     -10.293  -7.697   9.422  0.00  0.00    +0.024 A 
ATOM     32  C   UNL     1     -10.421  -6.410   8.897  0.00  0.00    +0.029 A 
BRANCH  32   6
ATOM      6  N   UNL     1     -11.652  -5.731   8.990  0.00  0.00    -0.336 N 
ATOM     33  C   UNL     1     -11.778  -4.547   9.818  0.00  0.00    +0.129 C 
ATOM     34  C   UNL     1     -12.812  -6.210   8.264  0.00  0.00    +0.129 C 
ENDBRANCH  32   6
ENDBRANCH  22  25
ENDBRANCH  15  19
ENDBRANCH  10  15
TORSDOF 9
ENDMDL
MODEL 6
REMARK VINA RESULT:      -6.4     22.291     25.397
REMARK  Name = 45783978
REMARK  14 active torsions:
REMARK  status: ('A' for Active; 'I' for Inactive)
REMARK    1  A    between atoms: N_2  and  C_14
REMARK    2  A    between atoms: N_2  and  C_20
REMARK    3  A    between atoms: N_6  and  C_32
REMARK    4  A    between atoms: N_6  and  C_33
REMARK    5  A    between atoms: N_6  and  C_34
REMARK    6  A    between atoms: C_7  and  C_11
REMARK    7  A    between atoms: C_8  and  C_14
REMARK    8  A    between atoms: C_10  and  C_15
REMARK    9  A    between atoms: C_11  and  C_16
REMARK   10  A    between atoms: C_11  and  C_17
REMARK   11  A    between atoms: C_12  and  C_18
REMARK   12  A    between atoms: C_15  and  C_19
REMARK   13  A    between atoms: C_20  and  C_21
REMARK   14  A    between atoms: C_22  and  C_25
REMARK                            x       y       z     vdW  Elec       q    Type
REMARK                         _______ _______ _______ _____ _____    ______ ____
ROOT
ATOM      7  C   UNL     1      -3.862 -12.073  12.264  0.00  0.00    +0.000 C 
ATOM      8  C   UNL     1      -2.869 -11.538  13.323  0.00  0.00    +0.029 C 
ATOM      9  C   UNL     1      -4.373 -10.927  11.380  0.00  0.00    +0.012 C 
ATOM     10  C   UNL     1      -3.243 -10.145  10.676  0.00  0.00    +0.024 C 
ATOM     12  C   UNL     1      -2.026  -9.930  11.563  0.00  0.00    -0.073 C 
ATOM     13  C   UNL     1      -1.884 -10.553  12.747  0.00  0.00    -0.023 C 
ATOM     18  C   UNL     1      -0.938  -9.031  11.044  0.00  0.00    +0.039 C 
ENDROOT
BRANCH   7  11
ATOM     11  C   UNL     1      -3.230 -13.187  11.417  0.00  0.00    -0.013 C 
ATOM     16  C   UNL     1      -4.264 -13.784  10.468  0.00  0.00    +0.007 C 
ATOM     17  C   UNL     1      -2.635 -14.265  12.317  0.00  0.00    +0.007 C 
ENDBRANCH   7  11
BRANCH   8  14
ATOM     14  C   UNL     1      -3.598 -10.890  14.505  0.00  0.00    +0.089 C 
BRANCH  14   2
ATOM      2  N   UNL     1      -3.502 -11.727  15.688  0.00  0.00    -0.311 NA
ATOM     35  H   UNL     1      -2.690 -12.337  15.595  0.00  0.00    +0.122 HD
BRANCH   2  20
ATOM     20  C   UNL     1      -3.356 -10.918  16.893  0.00  0.00    +0.117 C 
BRANCH  20  21
ATOM      5  N   UNL     1      -6.913 -10.222  17.985  0.00  0.00    -0.263 NA
ATOM     21  C   UNL     1      -4.612 -10.917  17.723  0.00  0.00    -0.016 A 
ATOM     23  C   UNL     1      -4.661 -11.571  18.948  0.00  0.00    +0.008 A 
ATOM     24  C   UNL     1      -5.754 -10.263  17.289  0.00  0.00    +0.115 A 
ATOM     26  C   UNL     1      -5.835 -11.551  19.693  0.00  0.00    +0.020 A 
ATOM     29  C   UNL     1      -6.923 -10.869  19.172  0.00  0.00    +0.111 A 
ENDBRANCH  20  21
ENDBRANCH   2  20
ENDBRANCH  14   2
ENDBRANCH   8  14
BRANCH  10  15
ATOM     15  C   UNL     1      -3.821  -8.835  10.129  0.00  0.00    +0.105 C 
BRANCH  15  19
ATOM      1  O   UNL     1      -4.551  -9.842   8.029  0.00  0.00    -0.420 OA
ATOM      3  N   UNL     1      -6.147  -8.696   9.099  0.00  0.00    -0.112 NA
ATOM      4  N   UNL     1      -6.695  -9.208   7.937  0.00  0.00    -0.107 NA
ATOM     19  C   UNL     1      -4.896  -9.092   9.110  0.00  0.00    +0.218 A 
ATOM     22  C   UNL     1      -5.728  -9.869   7.345  0.00  0.00    +0.248 A 
BRANCH  22  25
ATOM     25  C   UNL     1      -5.720 -10.601   6.112  0.00  0.00    +0.039 A 
ATOM     27  C   UNL     1      -6.777 -10.464   5.212  0.00  0.00    +0.015 A 
ATOM     28  C   UNL     1      -4.655 -11.452   5.812  0.00  0.00    +0.015 A 
ATOM     30  C   UNL     1      -6.769 -11.175   4.012  0.00  0.00    +0.024 A 
ATOM     31  C   UNL     1      -4.647 -12.163   4.612  0.00  0.00    +0.024 A 
ATOM     32  C   UNL     1      -5.705 -12.025   3.713  0.00  0.00    +0.029 A 
BRANCH  32   6
ATOM      6  N   UNL     1      -5.697 -12.745   2.501  0.00  0.00    -0.336 N 
ATOM     33  C   UNL     1      -4.491 -13.411   2.049  0.00  0.00    +0.129 C 
ATOM     34  C   UNL     1      -6.894 -12.825   1.686  0.00  0.00    +0.129 C 
ENDBRANCH  32   6
ENDBRANCH  22  25
ENDBRANCH  15  19
ENDBRANCH  10  15
TORSDOF 9
ENDMDL
MODEL 7
REMARK VINA RESULT:      -6.3     20.050     23.473
REMARK  Name = 45783978
REMARK  14 active torsions:
REMARK  status: ('A' for Active; 'I' for Inactive)
REMARK    1  A    between atoms: N_2  and  C_14
REMARK    2  A    between atoms: N_2  and  C_20
REMARK    3  A    between atoms: N_6  and  C_32
REMARK    4  A    between atoms: N_6  and  C_33
REMARK    5  A    between atoms: N_6  and  C_34
REMARK    6  A    between atoms: C_7  and  C_11
REMARK    7  A    between atoms: C_8  and  C_14
REMARK    8  A    between atoms: C_10  and  C_15
REMARK    9  A    between atoms: C_11  and  C_16
REMARK   10  A    between atoms: C_11  and  C_17
REMARK   11  A    between atoms: C_12  and  C_18
REMARK   12  A    between atoms: C_15  and  C_19
REMARK   13  A    between atoms: C_20  and  C_21
REMARK   14  A    between atoms: C_22  and  C_25
REMARK                            x       y       z     vdW  Elec       q    Type
REMARK                         _______ _______ _______ _____ _____    ______ ____
ROOT
ATOM      7  C   UNL     1      -4.414 -10.404  11.776  0.00  0.00    +0.000 C 
ATOM      8  C   UNL     1      -5.415 -11.581  11.849  0.00  0.00    +0.029 C 
ATOM      9  C   UNL     1      -3.211 -10.666  12.693  0.00  0.00    +0.012 C 
ATOM     10  C   UNL     1      -2.475 -11.987  12.378  0.00  0.00    +0.024 C 
ATOM     12  C   UNL     1      -3.422 -13.125  12.029  0.00  0.00    -0.073 C 
ATOM     13  C   UNL     1      -4.734 -12.925  11.808  0.00  0.00    -0.023 C 
ATOM     18  C   UNL     1      -2.829 -14.499  11.876  0.00  0.00    +0.039 C 
ENDROOT
BRANCH   7  11
ATOM     11  C   UNL     1      -3.964 -10.141  10.332  0.00  0.00    -0.013 C 
ATOM     16  C   UNL     1      -2.788  -9.170  10.310  0.00  0.00    +0.007 C 
ATOM     17  C   UNL     1      -5.126  -9.603   9.503  0.00  0.00    +0.007 C 
ENDBRANCH   7  11
BRANCH   8  14
ATOM     14  C   UNL     1      -6.294 -11.499  13.101  0.00  0.00    +0.089 C 
BRANCH  14   2
ATOM      2  N   UNL     1      -6.751 -10.138  13.319  0.00  0.00    -0.311 NA
ATOM     35  H   UNL     1      -6.476  -9.566  12.521  0.00  0.00    +0.122 HD
BRANCH   2  20
ATOM     20  C   UNL     1      -8.202 -10.088  13.462  0.00  0.00    +0.117 C 
BRANCH  20  21
ATOM      5  N   UNL     1     -10.251  -8.213  16.035  0.00  0.00    -0.263 NA
ATOM     21  C   UNL     1      -8.616  -9.467  14.770  0.00  0.00    -0.016 A 
ATOM     23  C   UNL     1      -7.799  -9.550  15.892  0.00  0.00    +0.008 A 
ATOM     24  C   UNL     1      -9.821  -8.794  14.892  0.00  0.00    +0.115 A 
ATOM     26  C   UNL     1      -8.207  -8.964  17.085  0.00  0.00    +0.020 A 
ATOM     29  C   UNL     1      -9.430  -8.313  17.105  0.00  0.00    +0.111 A 
ENDBRANCH  20  21
ENDBRANCH   2  20
ENDBRANCH  14   2
ENDBRANCH   8  14
BRANCH  10  15
ATOM     15  C   UNL     1      -1.546 -12.321  13.549  0.00  0.00    +0.105 C 
BRANCH  15  19
ATOM      1  O   UNL     1      -3.271 -12.169  15.269  0.00  0.00    -0.420 OA
ATOM      3  N   UNL     1      -1.496 -10.857  15.633  0.00  0.00    -0.112 NA
ATOM      4  N   UNL     1      -2.385 -10.670  16.675  0.00  0.00    -0.107 NA
ATOM     19  C   UNL     1      -2.054 -11.738  14.838  0.00  0.00    +0.218 A 
ATOM     22  C   UNL     1      -3.406 -11.456  16.421  0.00  0.00    +0.248 A 
BRANCH  22  25
ATOM     25  C   UNL     1      -4.618 -11.674  17.155  0.00  0.00    +0.039 A 
ATOM     27  C   UNL     1      -4.840 -10.994  18.353  0.00  0.00    +0.015 A 
ATOM     28  C   UNL     1      -5.574 -12.568  16.674  0.00  0.00    +0.015 A 
ATOM     30  C   UNL     1      -6.019 -11.206  19.067  0.00  0.00    +0.024 A 
ATOM     31  C   UNL     1      -6.753 -12.780  17.388  0.00  0.00    +0.024 A 
ATOM     32  C   UNL     1      -6.976 -12.100  18.585  0.00  0.00    +0.029 A 
BRANCH  32   6
ATOM      6  N   UNL     1      -8.167 -12.315  19.307  0.00  0.00    -0.336 N 
ATOM     33  C   UNL     1      -8.590 -13.660  19.643  0.00  0.00    +0.129 C 
ATOM     34  C   UNL     1      -8.989 -11.194  19.719  0.00  0.00    +0.129 C 
ENDBRANCH  32   6
ENDBRANCH  22  25
ENDBRANCH  15  19
ENDBRANCH  10  15
TORSDOF 9
ENDMDL
MODEL 8
REMARK VINA RESULT:      -6.1      3.906      9.010
REMARK  Name = 45783978
REMARK  14 active torsions:
REMARK  status: ('A' for Active; 'I' for Inactive)
REMARK    1  A    between atoms: N_2  and  C_14
REMARK    2  A    between atoms: N_2  and  C_20
REMARK    3  A    between atoms: N_6  and  C_32
REMARK    4  A    between atoms: N_6  and  C_33
REMARK    5  A    between atoms: N_6  and  C_34
REMARK    6  A    between atoms: C_7  and  C_11
REMARK    7  A    between atoms: C_8  and  C_14
REMARK    8  A    between atoms: C_10  and  C_15
REMARK    9  A    between atoms: C_11  and  C_16
REMARK   10  A    between atoms: C_11  and  C_17
REMARK   11  A    between atoms: C_12  and  C_18
REMARK   12  A    between atoms: C_15  and  C_19
REMARK   13  A    between atoms: C_20  and  C_21
REMARK   14  A    between atoms: C_22  and  C_25
REMARK                            x       y       z     vdW  Elec       q    Type
REMARK                         _______ _______ _______ _____ _____    ______ ____
ROOT
ATOM      7  C   UNL     1     -14.956   2.993  31.795  0.00  0.00    +0.000 C 
ATOM      8  C   UNL     1     -15.979   3.197  30.653  0.00  0.00    +0.029 C 
ATOM      9  C   UNL     1     -14.973   4.193  32.752  0.00  0.00    +0.012 C 
ATOM     10  C   UNL     1     -16.366   4.476  33.355  0.00  0.00    +0.024 C 
ATOM     12  C   UNL     1     -17.496   4.291  32.354  0.00  0.00    -0.073 C 
ATOM     13  C   UNL     1     -17.301   3.729  31.148  0.00  0.00    -0.023 C 
ATOM     18  C   UNL     1     -18.877   4.709  32.780  0.00  0.00    +0.039 C 
ENDROOT
BRANCH   7  11
ATOM     11  C   UNL     1     -15.211   1.680  32.548  0.00  0.00    -0.013 C 
ATOM     16  C   UNL     1     -14.384   1.631  33.827  0.00  0.00    +0.007 C 
ATOM     17  C   UNL     1     -14.897   0.485  31.653  0.00  0.00    +0.007 C 
ENDBRANCH   7  11
BRANCH   8  14
ATOM     14  C   UNL     1     -15.436   4.130  29.566  0.00  0.00    +0.089 C 
BRANCH  14   2
ATOM      2  N   UNL     1     -15.059   3.375  28.384  0.00  0.00    -0.311 NA
ATOM     35  H   UNL     1     -14.294   2.745  28.625  0.00  0.00    +0.122 HD
BRANCH   2  20
ATOM     20  C   UNL     1     -16.181   2.591  27.882  0.00  0.00    +0.117 C 
BRANCH  20  21
ATOM      5  N   UNL     1     -16.805   1.766  24.240  0.00  0.00    -0.263 NA
ATOM     21  C   UNL     1     -16.369   2.765  26.399  0.00  0.00    -0.016 A 
ATOM     23  C   UNL     1     -16.288   4.022  25.809  0.00  0.00    +0.008 A 
ATOM     24  C   UNL     1     -16.628   1.679  25.578  0.00  0.00    +0.115 A 
ATOM     26  C   UNL     1     -16.464   4.151  24.436  0.00  0.00    +0.020 A 
ATOM     29  C   UNL     1     -16.718   3.003  23.703  0.00  0.00    +0.111 A 
ENDBRANCH  20  21
ENDBRANCH   2  20
ENDBRANCH  14   2
ENDBRANCH   8  14
BRANCH  10  15
ATOM     15  C   UNL     1     -16.352   5.873  33.988  0.00  0.00    +0.105 C 
BRANCH  15  19
ATOM      1  O   UNL     1     -14.337   7.232  33.766  0.00  0.00    -0.420 OA
ATOM      3  N   UNL     1     -15.714   7.342  32.007  0.00  0.00    -0.112 NA
ATOM      4  N   UNL     1     -14.625   8.153  31.747  0.00  0.00    -0.107 NA
ATOM     19  C   UNL     1     -15.503   6.826  33.194  0.00  0.00    +0.218 A 
ATOM     22  C   UNL     1     -13.847   8.058  32.801  0.00  0.00    +0.248 A 
BRANCH  22  25
ATOM     25  C   UNL     1     -12.586   8.678  33.087  0.00  0.00    +0.039 A 
ATOM     27  C   UNL     1     -11.661   8.882  32.063  0.00  0.00    +0.015 A 
ATOM     28  C   UNL     1     -12.284   9.077  34.389  0.00  0.00    +0.015 A 
ATOM     30  C   UNL     1     -10.435   9.486  32.341  0.00  0.00    +0.024 A 
ATOM     31  C   UNL     1     -11.058   9.680  34.667  0.00  0.00    +0.024 A 
ATOM     32  C   UNL     1     -10.133   9.884  33.643  0.00  0.00    +0.029 A 
BRANCH  32   6
ATOM      6  N   UNL     1      -8.893  10.494  33.924  0.00  0.00    -0.336 N 
ATOM     33  C   UNL     1      -8.132  10.105  35.095  0.00  0.00    +0.129 C 
ATOM     34  C   UNL     1      -8.365  11.522  33.049  0.00  0.00    +0.129 C 
ENDBRANCH  32   6
ENDBRANCH  22  25
ENDBRANCH  15  19
ENDBRANCH  10  15
TORSDOF 9
ENDMDL
MODEL 9
REMARK VINA RESULT:      -6.1      5.932     10.026
REMARK  Name = 45783978
REMARK  14 active torsions:
REMARK  status: ('A' for Active; 'I' for Inactive)
REMARK    1  A    between atoms: N_2  and  C_14
REMARK    2  A    between atoms: N_2  and  C_20
REMARK    3  A    between atoms: N_6  and  C_32
REMARK    4  A    between atoms: N_6  and  C_33
REMARK    5  A    between atoms: N_6  and  C_34
REMARK    6  A    between atoms: C_7  and  C_11
REMARK    7  A    between atoms: C_8  and  C_14
REMARK    8  A    between atoms: C_10  and  C_15
REMARK    9  A    between atoms: C_11  and  C_16
REMARK   10  A    between atoms: C_11  and  C_17
REMARK   11  A    between atoms: C_12  and  C_18
REMARK   12  A    between atoms: C_15  and  C_19
REMARK   13  A    between atoms: C_20  and  C_21
REMARK   14  A    between atoms: C_22  and  C_25
REMARK                            x       y       z     vdW  Elec       q    Type
REMARK                         _______ _______ _______ _____ _____    ______ ____
ROOT
ATOM      7  C   UNL     1     -10.798  10.359  31.607  0.00  0.00    +0.000 C 
ATOM      8  C   UNL     1     -10.295  11.244  32.772  0.00  0.00    +0.029 C 
ATOM      9  C   UNL     1     -11.439   9.074  32.147  0.00  0.00    +0.012 C 
ATOM     10  C   UNL     1     -12.600   9.335  33.132  0.00  0.00    +0.024 C 
ATOM     12  C   UNL     1     -12.331  10.500  34.073  0.00  0.00    -0.073 C 
ATOM     13  C   UNL     1     -11.289  11.334  33.902  0.00  0.00    -0.023 C 
ATOM     18  C   UNL     1     -13.313  10.733  35.188  0.00  0.00    +0.039 C 
ENDROOT
BRANCH   7  11
ATOM     11  C   UNL     1     -11.771  11.127  30.701  0.00  0.00    -0.013 C 
ATOM     16  C   UNL     1     -12.050  10.333  29.428  0.00  0.00    +0.007 C 
ATOM     17  C   UNL     1     -11.212  12.506  30.368  0.00  0.00    +0.007 C 
ENDBRANCH   7  11
BRANCH   8  14
ATOM     14  C   UNL     1      -8.952  10.750  33.319  0.00  0.00    +0.089 C 
BRANCH  14   2
ATOM      2  N   UNL     1      -8.909  10.878  34.765  0.00  0.00    -0.311 NA
ATOM     35  H   UNL     1      -9.864  10.902  35.123  0.00  0.00    +0.122 HD
BRANCH   2  20
ATOM     20  C   UNL     1      -8.202   9.755  35.371  0.00  0.00    +0.117 C 
BRANCH  20  21
ATOM      5  N   UNL     1      -9.023   8.707  38.915  0.00  0.00    -0.263 NA
ATOM     21  C   UNL     1      -8.953   9.188  36.546  0.00  0.00    -0.016 A 
ATOM     23  C   UNL     1     -10.219   8.637  36.388  0.00  0.00    +0.008 A 
ATOM     24  C   UNL     1      -8.404   9.200  37.818  0.00  0.00    +0.115 A 
ATOM     26  C   UNL     1     -10.888   8.120  37.492  0.00  0.00    +0.020 A 
ATOM     29  C   UNL     1     -10.253   8.178  38.723  0.00  0.00    +0.111 A 
ENDBRANCH  20  21
ENDBRANCH   2  20
ENDBRANCH  14   2
ENDBRANCH   8  14
BRANCH  10  15
ATOM     15  C   UNL     1     -12.918   8.031  33.872  0.00  0.00    +0.105 C 
BRANCH  15  19
ATOM      1  O   UNL     1     -13.575   5.899  32.881  0.00  0.00    -0.420 OA
ATOM      3  N   UNL     1     -15.083   7.532  32.625  0.00  0.00    -0.112 NA
ATOM      4  N   UNL     1     -15.581   6.392  32.021  0.00  0.00    -0.107 NA
ATOM     19  C   UNL     1     -13.912   7.197  33.113  0.00  0.00    +0.218 A 
ATOM     22  C   UNL     1     -14.668   5.465  32.195  0.00  0.00    +0.248 A 
BRANCH  22  25
ATOM     25  C   UNL     1     -14.645   4.092  31.782  0.00  0.00    +0.039 A 
ATOM     27  C   UNL     1     -13.572   3.274  32.137  0.00  0.00    +0.015 A 
ATOM     28  C   UNL     1     -15.695   3.575  31.022  0.00  0.00    +0.015 A 
ATOM     30  C   UNL     1     -13.550   1.939  31.734  0.00  0.00    +0.024 A 
ATOM     31  C   UNL     1     -15.672   2.240  30.620  0.00  0.00    +0.024 A 
ATOM     32  C   UNL     1     -14.599   1.422  30.976  0.00  0.00    +0.029 A 
BRANCH  32   6
ATOM      6  N   UNL     1     -14.576   0.072  30.568  0.00  0.00    -0.336 N 
ATOM     33  C   UNL     1     -13.540  -0.408  29.675  0.00  0.00    +0.129 C 
ATOM     34  C   UNL     1     -15.592  -0.852  31.032  0.00  0.00    +0.129 C 
ENDBRANCH  32   6
ENDBRANCH  22  25
ENDBRANCH  15  19
ENDBRANCH  10  15
TORSDOF 9
ENDMDL
MODEL 10
REMARK VINA RESULT:      -5.9     31.282     35.653
REMARK  Name = 45783978
REMARK  14 active torsions:
REMARK  status: ('A' for Active; 'I' for Inactive)
REMARK    1  A    between atoms: N_2  and  C_14
REMARK    2  A    between atoms: N_2  and  C_20
REMARK    3  A    between atoms: N_6  and  C_32
REMARK    4  A    between atoms: N_6  and  C_33
REMARK    5  A    between atoms: N_6  and  C_34
REMARK    6  A    between atoms: C_7  and  C_11
REMARK    7  A    between atoms: C_8  and  C_14
REMARK    8  A    between atoms: C_10  and  C_15
REMARK    9  A    between atoms: C_11  and  C_16
REMARK   10  A    between atoms: C_11  and  C_17
REMARK   11  A    between atoms: C_12  and  C_18
REMARK   12  A    between atoms: C_15  and  C_19
REMARK   13  A    between atoms: C_20  and  C_21
REMARK   14  A    between atoms: C_22  and  C_25
REMARK                            x       y       z     vdW  Elec       q    Type
REMARK                         _______ _______ _______ _____ _____    ______ ____
ROOT
ATOM      7  C   UNL     1       9.263   6.006   7.172  0.00  0.00    +0.000 C 
ATOM      8  C   UNL     1       9.985   7.306   7.599  0.00  0.00    +0.029 C 
ATOM      9  C   UNL     1       9.153   5.932   5.642  0.00  0.00    +0.012 C 
ATOM     10  C   UNL     1      10.518   6.021   4.925  0.00  0.00    +0.024 C 
ATOM     12  C   UNL     1      11.462   7.026   5.567  0.00  0.00    -0.073 C 
ATOM     13  C   UNL     1      11.200   7.597   6.757  0.00  0.00    -0.023 C 
ATOM     18  C   UNL     1      12.750   7.325   4.850  0.00  0.00    +0.039 C 
ENDROOT
BRANCH   7  11
ATOM     11  C   UNL     1       9.963   4.764   7.739  0.00  0.00    -0.013 C 
ATOM     16  C   UNL     1       9.792   3.579   6.794  0.00  0.00    +0.007 C 
ATOM     17  C   UNL     1       9.420   4.434   9.125  0.00  0.00    +0.007 C 
ENDBRANCH   7  11
BRANCH   8  14
ATOM     14  C   UNL     1       9.043   8.515   7.562  0.00  0.00    +0.089 C 
BRANCH  14   2
ATOM      2  N   UNL     1       9.727   9.681   7.032  0.00  0.00    -0.311 NA
ATOM     35  H   UNL     1      10.503   9.372   6.447  0.00  0.00    +0.122 HD
BRANCH   2  20
ATOM     20  C   UNL     1       8.824  10.500   6.231  0.00  0.00    +0.117 C 
BRANCH  20  21
ATOM      5  N   UNL     1       9.696   9.814   2.611  0.00  0.00    -0.263 NA
ATOM     21  C   UNL     1       8.719   9.997   4.816  0.00  0.00    -0.016 A 
ATOM     23  C   UNL     1       7.607   9.279   4.391  0.00  0.00    +0.008 A 
ATOM     24  C   UNL     1       9.728  10.236   3.896  0.00  0.00    +0.115 A 
ATOM     26  C   UNL     1       7.538   8.829   3.077  0.00  0.00    +0.020 A 
ATOM     29  C   UNL     1       8.599   9.120   2.234  0.00  0.00    +0.111 A 
ENDBRANCH  20  21
ENDBRANCH   2  20
ENDBRANCH  14   2
ENDBRANCH   8  14
BRANCH  10  15
ATOM     15  C   UNL     1      10.272   6.300   3.438  0.00  0.00    +0.105 C 
BRANCH  15  19
ATOM      1  O   UNL     1      10.626   5.302   1.238  0.00  0.00    -0.420 OA
ATOM      3  N   UNL     1      11.669   4.237   2.906  0.00  0.00    -0.112 NA
ATOM      4  N   UNL     1      11.954   3.570   1.729  0.00  0.00    -0.107 NA
ATOM     19  C   UNL     1      10.892   5.240   2.571  0.00  0.00    +0.218 A 
ATOM     22  C   UNL     1      11.324   4.227   0.782  0.00  0.00    +0.248 A 
BRANCH  22  25
ATOM     25  C   UNL     1      11.260   3.990  -0.631  0.00  0.00    +0.039 A 
ATOM     27  C   UNL     1      12.162   3.112  -1.233  0.00  0.00    +0.015 A 
ATOM     28  C   UNL     1      10.296   4.638  -1.404  0.00  0.00    +0.015 A 
ATOM     30  C   UNL     1      12.099   2.882  -2.607  0.00  0.00    +0.024 A 
ATOM     31  C   UNL     1      10.233   4.407  -2.777  0.00  0.00    +0.024 A 
ATOM     32  C   UNL     1      11.136   3.530  -3.380  0.00  0.00    +0.029 A 
BRANCH  32   6
ATOM      6  N   UNL     1      11.073   3.297  -4.769  0.00  0.00    -0.336 N 
ATOM     33  C   UNL     1       9.793   3.123  -5.427  0.00  0.00    +0.129 C 
ATOM     34  C   UNL     1      12.287   3.223  -5.556  0.00  0.00    +0.129 C 
ENDBRANCH  32   6
ENDBRANCH  22  25
ENDBRANCH  15  19
ENDBRANCH  10  15
TORSDOF 9
ENDMDL
