MODEL 1
REMARK VINA RESULT:      -6.8      0.000      0.000
REMARK  Name = 45784294
REMARK  5 active torsions:
REMARK  status: ('A' for Active; 'I' for Inactive)
REMARK    1  A    between atoms: O_1  and  C_21
REMARK    2  A    between atoms: O_1  and  C_23
REMARK    3  A    between atoms: N_2  and  C_6
REMARK    4  A    between atoms: N_3  and  C_16
REMARK    5  A    between atoms: C_7  and  C_15
REMARK                            x       y       z     vdW  Elec       q    Type
REMARK                         _______ _______ _______ _____ _____    ______ ____
ROOT
ATOM      2  N   UNL     1      12.944   7.097  20.567  0.00  0.00    -0.299 NA
ATOM      7  C   UNL     1      11.381   8.610  21.444  0.00  0.00    +0.070 C 
ATOM      8  C   UNL     1      12.684   7.873  21.782  0.00  0.00    +0.096 C 
ATOM      9  C   UNL     1      12.659   8.016  19.464  0.00  0.00    +0.085 C 
ATOM     10  C   UNL     1      11.362   8.683  19.907  0.00  0.00    +0.028 C 
ENDROOT
BRANCH   7  15
ATOM      4  N   UNL     1      11.161  10.025  23.506  0.00  0.00    -0.341 N 
ATOM      5  N   UNL     1      11.236  11.130  21.579  0.00  0.00    -0.232 NA
ATOM     15  C   UNL     1      11.260   9.944  22.144  0.00  0.00    +0.113 A 
ATOM     17  C   UNL     1      11.066  11.351  23.840  0.00  0.00    +0.070 A 
ATOM     18  C   UNL     1      11.114  12.020  22.621  0.00  0.00    +0.089 A 
ATOM     19  C   UNL     1      10.946  12.003  25.068  0.00  0.00    +0.073 A 
ATOM     20  C   UNL     1      11.039  13.423  22.606  0.00  0.00    +0.033 A 
ATOM     21  C   UNL     1      10.872  13.400  25.035  0.00  0.00    +0.122 A 
ATOM     22  C   UNL     1      10.918  14.099  23.827  0.00  0.00    +0.048 A 
ATOM     24  H   UNL     1      11.158   9.248  24.153  0.00  0.00    +0.167 HD
BRANCH  21   1
ATOM      1  O   UNL     1      10.753  14.090  26.206  0.00  0.00    -0.495 OA
ATOM     23  C   UNL     1      11.943  14.665  26.740  0.00  0.00    +0.277 C 
ENDBRANCH  21   1
ENDBRANCH   7  15
BRANCH   2   6
ATOM      3  N   UNL     1      17.182   7.063  20.261  0.00  0.00    -0.305 NA
ATOM      6  C   UNL     1      14.308   6.578  20.519  0.00  0.00    +0.059 C 
ATOM     11  C   UNL     1      14.967   6.889  19.171  0.00  0.00    +0.034 C 
ATOM     12  C   UNL     1      15.142   7.171  21.657  0.00  0.00    +0.034 C 
ATOM     13  C   UNL     1      16.431   6.443  19.160  0.00  0.00    +0.085 C 
ATOM     14  C   UNL     1      16.601   6.715  21.565  0.00  0.00    +0.085 C 
ATOM     16  C   UNL     1      18.589   6.666  20.206  0.00  0.00    +0.104 C 
ENDBRANCH   2   6
TORSDOF 3
ENDMDL
MODEL 2
REMARK VINA RESULT:      -6.7      3.103      8.367
REMARK  Name = 45784294
REMARK  5 active torsions:
REMARK  status: ('A' for Active; 'I' for Inactive)
REMARK    1  A    between atoms: O_1  and  C_21
REMARK    2  A    between atoms: O_1  and  C_23
REMARK    3  A    between atoms: N_2  and  C_6
REMARK    4  A    between atoms: N_3  and  C_16
REMARK    5  A    between atoms: C_7  and  C_15
REMARK                            x       y       z     vdW  Elec       q    Type
REMARK                         _______ _______ _______ _____ _____    ______ ____
ROOT
ATOM      2  N   UNL     1      11.800   9.980  21.527  0.00  0.00    -0.299 NA
ATOM      7  C   UNL     1      12.993   8.396  20.273  0.00  0.00    +0.070 C 
ATOM      8  C   UNL     1      13.072   9.830  20.817  0.00  0.00    +0.096 C 
ATOM      9  C   UNL     1      11.623   8.722  22.254  0.00  0.00    +0.085 C 
ATOM     10  C   UNL     1      12.017   7.675  21.219  0.00  0.00    +0.028 C 
ENDROOT
BRANCH   7  15
ATOM      4  N   UNL     1      15.336   7.958  21.062  0.00  0.00    -0.341 N 
ATOM      5  N   UNL     1      14.738   6.926  19.186  0.00  0.00    -0.232 NA
ATOM     15  C   UNL     1      14.348   7.741  20.141  0.00  0.00    +0.113 A 
ATOM     17  C   UNL     1      16.435   7.236  20.676  0.00  0.00    +0.070 A 
ATOM     18  C   UNL     1      16.038   6.602  19.502  0.00  0.00    +0.089 A 
ATOM     19  C   UNL     1      17.705   7.088  21.235  0.00  0.00    +0.073 A 
ATOM     20  C   UNL     1      16.948   5.766  18.832  0.00  0.00    +0.033 A 
ATOM     21  C   UNL     1      18.598   6.252  20.555  0.00  0.00    +0.122 A 
ATOM     22  C   UNL     1      18.229   5.602  19.375  0.00  0.00    +0.048 A 
ATOM     24  H   UNL     1      15.270   8.545  21.883  0.00  0.00    +0.167 HD
BRANCH  21   1
ATOM      1  O   UNL     1      19.855   6.071  21.056  0.00  0.00    -0.495 OA
ATOM     23  C   UNL     1      20.641   5.037  20.467  0.00  0.00    +0.277 C 
ENDBRANCH  21   1
ENDBRANCH   7  15
BRANCH   2   6
ATOM      3  N   UNL     1      10.298  13.242  23.797  0.00  0.00    -0.305 NA
ATOM      6  C   UNL     1      11.791  11.140  22.413  0.00  0.00    +0.059 C 
ATOM     11  C   UNL     1      11.263  12.381  21.688  0.00  0.00    +0.034 C 
ATOM     12  C   UNL     1      10.935  10.856  23.650  0.00  0.00    +0.034 C 
ATOM     13  C   UNL     1      11.149  13.570  22.644  0.00  0.00    +0.085 C 
ATOM     14  C   UNL     1      10.831  12.095  24.544  0.00  0.00    +0.085 C 
ATOM     16  C   UNL     1      10.158  14.404  24.676  0.00  0.00    +0.104 C 
ENDBRANCH   2   6
TORSDOF 3
ENDMDL
MODEL 3
REMARK VINA RESULT:      -6.6      3.459      8.416
REMARK  Name = 45784294
REMARK  5 active torsions:
REMARK  status: ('A' for Active; 'I' for Inactive)
REMARK    1  A    between atoms: O_1  and  C_21
REMARK    2  A    between atoms: O_1  and  C_23
REMARK    3  A    between atoms: N_2  and  C_6
REMARK    4  A    between atoms: N_3  and  C_16
REMARK    5  A    between atoms: C_7  and  C_15
REMARK                            x       y       z     vdW  Elec       q    Type
REMARK                         _______ _______ _______ _____ _____    ______ ____
ROOT
ATOM      2  N   UNL     1      12.035   8.700  20.081  0.00  0.00    -0.299 NA
ATOM      7  C   UNL     1      13.987   7.638  19.331  0.00  0.00    +0.070 C 
ATOM      8  C   UNL     1      13.478   8.931  19.983  0.00  0.00    +0.096 C 
ATOM      9  C   UNL     1      11.905   7.317  20.540  0.00  0.00    +0.085 C 
ATOM     10  C   UNL     1      12.930   6.579  19.688  0.00  0.00    +0.028 C 
ENDROOT
BRANCH   7  15
ATOM      4  N   UNL     1      16.092   6.286  19.118  0.00  0.00    -0.341 N 
ATOM      5  N   UNL     1      16.109   7.861  20.686  0.00  0.00    -0.232 NA
ATOM     15  C   UNL     1      15.399   7.288  19.740  0.00  0.00    +0.113 A 
ATOM     17  C   UNL     1      17.329   6.207  19.702  0.00  0.00    +0.070 A 
ATOM     18  C   UNL     1      17.315   7.199  20.678  0.00  0.00    +0.089 A 
ATOM     19  C   UNL     1      18.427   5.377  19.468  0.00  0.00    +0.073 A 
ATOM     20  C   UNL     1      18.455   7.389  21.478  0.00  0.00    +0.033 A 
ATOM     21  C   UNL     1      19.553   5.581  20.273  0.00  0.00    +0.122 A 
ATOM     22  C   UNL     1      19.569   6.568  21.260  0.00  0.00    +0.048 A 
ATOM     24  H   UNL     1      15.754   5.705  18.362  0.00  0.00    +0.167 HD
BRANCH  21   1
ATOM      1  O   UNL     1      20.655   4.798  20.089  0.00  0.00    -0.495 OA
ATOM     23  C   UNL     1      21.050   3.971  21.181  0.00  0.00    +0.277 C 
ENDBRANCH  21   1
ENDBRANCH   7  15
BRANCH   2   6
ATOM      3  N   UNL     1      11.515  11.446  23.282  0.00  0.00    -0.305 NA
ATOM      6  C   UNL     1      11.379   9.647  20.978  0.00  0.00    +0.059 C 
ATOM     11  C   UNL     1      11.380   9.131  22.420  0.00  0.00    +0.034 C 
ATOM     12  C   UNL     1      12.074  11.009  20.911  0.00  0.00    +0.034 C 
ATOM     13  C   UNL     1      10.792  10.170  23.376  0.00  0.00    +0.085 C 
ATOM     14  C   UNL     1      11.463  11.988  21.917  0.00  0.00    +0.085 C 
ATOM     16  C   UNL     1      10.973  12.413  24.237  0.00  0.00    +0.104 C 
ENDBRANCH   2   6
TORSDOF 3
ENDMDL
MODEL 4
REMARK VINA RESULT:      -6.4     27.207     29.038
REMARK  Name = 45784294
REMARK  5 active torsions:
REMARK  status: ('A' for Active; 'I' for Inactive)
REMARK    1  A    between atoms: O_1  and  C_21
REMARK    2  A    between atoms: O_1  and  C_23
REMARK    3  A    between atoms: N_2  and  C_6
REMARK    4  A    between atoms: N_3  and  C_16
REMARK    5  A    between atoms: C_7  and  C_15
REMARK                            x       y       z     vdW  Elec       q    Type
REMARK                         _______ _______ _______ _____ _____    ______ ____
ROOT
ATOM      2  N   UNL     1      -4.102 -11.089  17.472  0.00  0.00    -0.299 NA
ATOM      7  C   UNL     1      -5.889 -10.513  18.878  0.00  0.00    +0.070 C 
ATOM      8  C   UNL     1      -5.353 -10.329  17.451  0.00  0.00    +0.096 C 
ATOM      9  C   UNL     1      -4.422 -12.324  18.189  0.00  0.00    +0.085 C 
ATOM     10  C   UNL     1      -5.252 -11.826  19.366  0.00  0.00    +0.028 C 
ENDROOT
BRANCH   7  15
ATOM      4  N   UNL     1      -8.131  -9.718  18.079  0.00  0.00    -0.341 N 
ATOM      5  N   UNL     1      -8.160 -11.119  19.805  0.00  0.00    -0.232 NA
ATOM     15  C   UNL     1      -7.397 -10.474  18.951  0.00  0.00    +0.113 A 
ATOM     17  C   UNL     1      -9.455  -9.886  18.392  0.00  0.00    +0.070 A 
ATOM     18  C   UNL     1      -9.448 -10.763  19.472  0.00  0.00    +0.089 A 
ATOM     19  C   UNL     1     -10.624  -9.361  17.839  0.00  0.00    +0.073 A 
ATOM     20  C   UNL     1     -10.669 -11.152  20.049  0.00  0.00    +0.033 A 
ATOM     21  C   UNL     1     -11.831  -9.758  18.426  0.00  0.00    +0.122 A 
ATOM     22  C   UNL     1     -11.855 -10.637  19.510  0.00  0.00    +0.048 A 
ATOM     24  H   UNL     1      -7.766  -9.138  17.336  0.00  0.00    +0.167 HD
BRANCH  21   1
ATOM      1  O   UNL     1     -13.006  -9.276  17.926  0.00  0.00    -0.495 OA
ATOM     23  C   UNL     1     -12.967  -8.706  16.619  0.00  0.00    +0.277 C 
ENDBRANCH  21   1
ENDBRANCH   7  15
BRANCH   2   6
ATOM      3  N   UNL     1      -2.521 -10.321  13.603  0.00  0.00    -0.305 NA
ATOM      6  C   UNL     1      -3.583 -11.344  16.131  0.00  0.00    +0.059 C 
ATOM     11  C   UNL     1      -4.480 -10.709  15.064  0.00  0.00    +0.034 C 
ATOM     12  C   UNL     1      -2.157 -10.802  16.003  0.00  0.00    +0.034 C 
ATOM     13  C   UNL     1      -3.879 -10.880  13.668  0.00  0.00    +0.085 C 
ATOM     14  C   UNL     1      -1.631 -10.971  14.575  0.00  0.00    +0.085 C 
ATOM     16  C   UNL     1      -1.980 -10.448  12.250  0.00  0.00    +0.104 C 
ENDBRANCH   2   6
TORSDOF 3
ENDMDL
MODEL 5
REMARK VINA RESULT:      -6.3     26.916     29.187
REMARK  Name = 45784294
REMARK  5 active torsions:
REMARK  status: ('A' for Active; 'I' for Inactive)
REMARK    1  A    between atoms: O_1  and  C_21
REMARK    2  A    between atoms: O_1  and  C_23
REMARK    3  A    between atoms: N_2  and  C_6
REMARK    4  A    between atoms: N_3  and  C_16
REMARK    5  A    between atoms: C_7  and  C_15
REMARK                            x       y       z     vdW  Elec       q    Type
REMARK                         _______ _______ _______ _____ _____    ______ ____
ROOT
ATOM      2  N   UNL     1      -5.458 -12.047  17.410  0.00  0.00    -0.299 NA
ATOM      7  C   UNL     1      -3.788 -11.872  15.772  0.00  0.00    +0.070 C 
ATOM      8  C   UNL     1      -5.287 -12.147  15.959  0.00  0.00    +0.096 C 
ATOM      9  C   UNL     1      -4.676 -10.875  17.803  0.00  0.00    +0.085 C 
ATOM     10  C   UNL     1      -3.387 -11.046  17.007  0.00  0.00    +0.028 C 
ENDROOT
BRANCH   7  15
ATOM      4  N   UNL     1      -4.458 -10.900  13.557  0.00  0.00    -0.341 N 
ATOM      5  N   UNL     1      -2.278 -10.904  13.992  0.00  0.00    -0.232 NA
ATOM     15  C   UNL     1      -3.469 -11.224  14.445  0.00  0.00    +0.113 A 
ATOM     17  C   UNL     1      -3.864 -10.333  12.458  0.00  0.00    +0.070 A 
ATOM     18  C   UNL     1      -2.504 -10.348  12.753  0.00  0.00    +0.089 A 
ATOM     19  C   UNL     1      -4.385  -9.826  11.267  0.00  0.00    +0.073 A 
ATOM     20  C   UNL     1      -1.594  -9.829  11.816  0.00  0.00    +0.033 A 
ATOM     21  C   UNL     1      -3.465  -9.313  10.346  0.00  0.00    +0.122 A 
ATOM     22  C   UNL     1      -2.094  -9.314  10.614  0.00  0.00    +0.048 A 
ATOM     24  H   UNL     1      -5.450 -11.049  13.684  0.00  0.00    +0.167 HD
BRANCH  21   1
ATOM      1  O   UNL     1      -3.917  -8.804   9.164  0.00  0.00    -0.495 OA
ATOM     23  C   UNL     1      -5.002  -9.487   8.540  0.00  0.00    +0.277 C 
ENDBRANCH  21   1
ENDBRANCH   7  15
BRANCH   2   6
ATOM      3  N   UNL     1      -8.893 -10.897  19.631  0.00  0.00    -0.305 NA
ATOM      6  C   UNL     1      -6.861 -11.935  17.799  0.00  0.00    +0.059 C 
ATOM     11  C   UNL     1      -7.097 -12.539  19.187  0.00  0.00    +0.034 C 
ATOM     12  C   UNL     1      -7.298 -10.468  17.789  0.00  0.00    +0.034 C 
ATOM     13  C   UNL     1      -8.541 -12.324  19.642  0.00  0.00    +0.085 C 
ATOM     14  C   UNL     1      -8.738 -10.320  18.289  0.00  0.00    +0.085 C 
ATOM     16  C   UNL     1     -10.260 -10.704  20.116  0.00  0.00    +0.104 C 
ENDBRANCH   2   6
TORSDOF 3
ENDMDL
MODEL 6
REMARK VINA RESULT:      -6.2     27.262     28.373
REMARK  Name = 45784294
REMARK  5 active torsions:
REMARK  status: ('A' for Active; 'I' for Inactive)
REMARK    1  A    between atoms: O_1  and  C_21
REMARK    2  A    between atoms: O_1  and  C_23
REMARK    3  A    between atoms: N_2  and  C_6
REMARK    4  A    between atoms: N_3  and  C_16
REMARK    5  A    between atoms: C_7  and  C_15
REMARK                            x       y       z     vdW  Elec       q    Type
REMARK                         _______ _______ _______ _____ _____    ______ ____
ROOT
ATOM      2  N   UNL     1      -2.131 -11.091  12.469  0.00  0.00    -0.299 NA
ATOM      7  C   UNL     1      -2.528 -10.937  14.776  0.00  0.00    +0.070 C 
ATOM      8  C   UNL     1      -2.899 -10.297  13.431  0.00  0.00    +0.096 C 
ATOM      9  C   UNL     1      -2.291 -12.477  12.911  0.00  0.00    +0.085 C 
ATOM     10  C   UNL     1      -2.108 -12.374  14.420  0.00  0.00    +0.028 C 
ENDROOT
BRANCH   7  15
ATOM      4  N   UNL     1      -4.892 -10.432  15.452  0.00  0.00    -0.341 N 
ATOM      5  N   UNL     1      -3.540 -11.100  17.085  0.00  0.00    -0.232 NA
ATOM     15  C   UNL     1      -3.632 -10.834  15.802  0.00  0.00    +0.113 A 
ATOM     17  C   UNL     1      -5.663 -10.438  16.585  0.00  0.00    +0.070 A 
ATOM     18  C   UNL     1      -4.797 -10.857  17.591  0.00  0.00    +0.089 A 
ATOM     19  C   UNL     1      -7.003 -10.121  16.810  0.00  0.00    +0.073 A 
ATOM     20  C   UNL     1      -5.280 -10.974  18.906  0.00  0.00    +0.033 A 
ATOM     21  C   UNL     1      -7.466 -10.244  18.125  0.00  0.00    +0.122 A 
ATOM     22  C   UNL     1      -6.622 -10.662  19.155  0.00  0.00    +0.048 A 
ATOM     24  H   UNL     1      -5.202 -10.175  14.525  0.00  0.00    +0.167 HD
BRANCH  21   1
ATOM      1  O   UNL     1      -8.769  -9.947  18.403  0.00  0.00    -0.495 OA
ATOM     23  C   UNL     1      -9.435  -9.060  17.507  0.00  0.00    +0.277 C 
ENDBRANCH  21   1
ENDBRANCH   7  15
BRANCH   2   6
ATOM      3  N   UNL     1      -4.739 -10.279   9.214  0.00  0.00    -0.305 NA
ATOM      6  C   UNL     1      -2.582 -10.890  11.095  0.00  0.00    +0.059 C 
ATOM     11  C   UNL     1      -3.649 -11.920  10.710  0.00  0.00    +0.034 C 
ATOM     12  C   UNL     1      -3.139  -9.475  10.921  0.00  0.00    +0.034 C 
ATOM     13  C   UNL     1      -4.201 -11.643   9.311  0.00  0.00    +0.085 C 
ATOM     14  C   UNL     1      -3.707  -9.277   9.513  0.00  0.00    +0.085 C 
ATOM     16  C   UNL     1      -5.308 -10.047   7.886  0.00  0.00    +0.104 C 
ENDBRANCH   2   6
TORSDOF 3
ENDMDL
MODEL 7
REMARK VINA RESULT:      -6.2      4.371      7.796
REMARK  Name = 45784294
REMARK  5 active torsions:
REMARK  status: ('A' for Active; 'I' for Inactive)
REMARK    1  A    between atoms: O_1  and  C_21
REMARK    2  A    between atoms: O_1  and  C_23
REMARK    3  A    between atoms: N_2  and  C_6
REMARK    4  A    between atoms: N_3  and  C_16
REMARK    5  A    between atoms: C_7  and  C_15
REMARK                            x       y       z     vdW  Elec       q    Type
REMARK                         _______ _______ _______ _____ _____    ______ ____
ROOT
ATOM      2  N   UNL     1      21.379   6.396  21.266  0.00  0.00    -0.299 NA
ATOM      7  C   UNL     1      19.405   7.659  21.379  0.00  0.00    +0.070 C 
ATOM      8  C   UNL     1      20.172   6.674  20.484  0.00  0.00    +0.096 C 
ATOM      9  C   UNL     1      20.907   6.225  22.640  0.00  0.00    +0.085 C 
ATOM     10  C   UNL     1      19.912   7.368  22.802  0.00  0.00    +0.028 C 
ENDROOT
BRANCH   7  15
ATOM      4  N   UNL     1      17.054   8.247  22.032  0.00  0.00    -0.341 N 
ATOM      5  N   UNL     1      17.260   6.864  20.304  0.00  0.00    -0.232 NA
ATOM     15  C   UNL     1      17.907   7.565  21.208  0.00  0.00    +0.113 A 
ATOM     17  C   UNL     1      15.773   7.966  21.633  0.00  0.00    +0.070 A 
ATOM     18  C   UNL     1      15.928   7.101  20.554  0.00  0.00    +0.089 A 
ATOM     19  C   UNL     1      14.529   8.382  22.110  0.00  0.00    +0.073 A 
ATOM     20  C   UNL     1      14.785   6.610  19.899  0.00  0.00    +0.033 A 
ATOM     21  C   UNL     1      13.402   7.884  21.446  0.00  0.00    +0.122 A 
ATOM     22  C   UNL     1      13.526   7.015  20.360  0.00  0.00    +0.048 A 
ATOM     24  H   UNL     1      17.318   8.851  22.799  0.00  0.00    +0.167 HD
BRANCH  21   1
ATOM      1  O   UNL     1      12.160   8.257  21.869  0.00  0.00    -0.495 OA
ATOM     23  C   UNL     1      11.065   7.951  21.007  0.00  0.00    +0.277 C 
ENDBRANCH  21   1
ENDBRANCH   7  15
BRANCH   2   6
ATOM      3  N   UNL     1      24.144   3.170  21.189  0.00  0.00    -0.305 NA
ATOM      6  C   UNL     1      22.102   5.226  20.777  0.00  0.00    +0.059 C 
ATOM     11  C   UNL     1      23.599   5.522  20.644  0.00  0.00    +0.034 C 
ATOM     12  C   UNL     1      21.887   4.038  21.717  0.00  0.00    +0.034 C 
ATOM     13  C   UNL     1      24.373   4.266  20.237  0.00  0.00    +0.085 C 
ATOM     14  C   UNL     1      22.717   2.829  21.274  0.00  0.00    +0.085 C 
ATOM     16  C   UNL     1      24.929   1.994  20.814  0.00  0.00    +0.104 C 
ENDBRANCH   2   6
TORSDOF 3
ENDMDL
MODEL 8
REMARK VINA RESULT:      -6.2     27.436     30.151
REMARK  Name = 45784294
REMARK  5 active torsions:
REMARK  status: ('A' for Active; 'I' for Inactive)
REMARK    1  A    between atoms: O_1  and  C_21
REMARK    2  A    between atoms: O_1  and  C_23
REMARK    3  A    between atoms: N_2  and  C_6
REMARK    4  A    between atoms: N_3  and  C_16
REMARK    5  A    between atoms: C_7  and  C_15
REMARK                            x       y       z     vdW  Elec       q    Type
REMARK                         _______ _______ _______ _____ _____    ______ ____
ROOT
ATOM      2  N   UNL     1     -14.479   7.271  33.963  0.00  0.00    -0.299 NA
ATOM      7  C   UNL     1     -15.661   5.336  33.363  0.00  0.00    +0.070 C 
ATOM      8  C   UNL     1     -15.039   6.613  32.780  0.00  0.00    +0.096 C 
ATOM      9  C   UNL     1     -13.845   6.198  34.728  0.00  0.00    +0.085 C 
ATOM     10  C   UNL     1     -14.878   5.079  34.663  0.00  0.00    +0.028 C 
ENDROOT
BRANCH   7  15
ATOM      4  N   UNL     1     -14.979   3.028  32.648  0.00  0.00    -0.341 N 
ATOM      5  N   UNL     1     -16.286   4.134  31.230  0.00  0.00    -0.232 NA
ATOM     15  C   UNL     1     -15.665   4.183  32.386  0.00  0.00    +0.113 A 
ATOM     17  C   UNL     1     -15.171   2.180  31.589  0.00  0.00    +0.070 A 
ATOM     18  C   UNL     1     -15.988   2.892  30.717  0.00  0.00    +0.089 A 
ATOM     19  C   UNL     1     -14.712   0.888  31.326  0.00  0.00    +0.073 A 
ATOM     20  C   UNL     1     -16.382   2.298  29.506  0.00  0.00    +0.033 A 
ATOM     21  C   UNL     1     -15.114   0.311  30.116  0.00  0.00    +0.122 A 
ATOM     22  C   UNL     1     -15.934   1.002  29.221  0.00  0.00    +0.048 A 
ATOM     24  H   UNL     1     -14.429   2.833  33.473  0.00  0.00    +0.167 HD
BRANCH  21   1
ATOM      1  O   UNL     1     -14.695  -0.950  29.807  0.00  0.00    -0.495 OA
ATOM     23  C   UNL     1     -13.369  -1.084  29.300  0.00  0.00    +0.277 C 
ENDBRANCH  21   1
ENDBRANCH   7  15
BRANCH   2   6
ATOM      3  N   UNL     1     -10.783   9.260  33.298  0.00  0.00    -0.305 NA
ATOM      6  C   UNL     1     -13.542   8.335  33.616  0.00  0.00    +0.059 C 
ATOM     11  C   UNL     1     -12.659   8.702  34.813  0.00  0.00    +0.034 C 
ATOM     12  C   UNL     1     -12.667   7.908  32.435  0.00  0.00    +0.034 C 
ATOM     13  C   UNL     1     -11.603   9.738  34.420  0.00  0.00    +0.085 C 
ATOM     14  C   UNL     1     -11.611   8.971  32.119  0.00  0.00    +0.085 C 
ATOM     16  C   UNL     1      -9.748  10.240  32.968  0.00  0.00    +0.104 C 
ENDBRANCH   2   6
TORSDOF 3
ENDMDL
MODEL 9
REMARK VINA RESULT:      -6.1     18.593     21.059
REMARK  Name = 45784294
REMARK  5 active torsions:
REMARK  status: ('A' for Active; 'I' for Inactive)
REMARK    1  A    between atoms: O_1  and  C_21
REMARK    2  A    between atoms: O_1  and  C_23
REMARK    3  A    between atoms: N_2  and  C_6
REMARK    4  A    between atoms: N_3  and  C_16
REMARK    5  A    between atoms: C_7  and  C_15
REMARK                            x       y       z     vdW  Elec       q    Type
REMARK                         _______ _______ _______ _____ _____    ______ ____
ROOT
ATOM      2  N   UNL     1      12.704   4.624  -0.191  0.00  0.00    -0.299 NA
ATOM      7  C   UNL     1      12.528   5.475   1.988  0.00  0.00    +0.070 C 
ATOM      8  C   UNL     1      11.931   5.601   0.579  0.00  0.00    +0.096 C 
ATOM      9  C   UNL     1      12.796   3.448   0.674  0.00  0.00    +0.085 C 
ATOM     10  C   UNL     1      13.116   4.053   2.035  0.00  0.00    +0.028 C 
ENDROOT
BRANCH   7  15
ATOM      4  N   UNL     1      11.835   5.582   4.398  0.00  0.00    -0.341 N 
ATOM      5  N   UNL     1      10.318   6.264   2.925  0.00  0.00    -0.232 NA
ATOM     15  C   UNL     1      11.531   5.786   3.080  0.00  0.00    +0.113 A 
ATOM     17  C   UNL     1      10.745   5.952   5.141  0.00  0.00    +0.070 A 
ATOM     18  C   UNL     1       9.811   6.374   4.200  0.00  0.00    +0.089 A 
ATOM     19  C   UNL     1      10.502   5.955   6.516  0.00  0.00    +0.073 A 
ATOM     20  C   UNL     1       8.554   6.828   4.636  0.00  0.00    +0.033 A 
ATOM     21  C   UNL     1       9.246   6.410   6.932  0.00  0.00    +0.122 A 
ATOM     22  C   UNL     1       8.289   6.839   6.011  0.00  0.00    +0.048 A 
ATOM     24  H   UNL     1      12.707   5.222   4.763  0.00  0.00    +0.167 HD
BRANCH  21   1
ATOM      1  O   UNL     1       8.954   6.434   8.265  0.00  0.00    -0.495 OA
ATOM     23  C   UNL     1       9.445   5.352   9.053  0.00  0.00    +0.277 C 
ENDBRANCH  21   1
ENDBRANCH   7  15
BRANCH   2   6
ATOM      3  N   UNL     1      10.079   2.868  -3.034  0.00  0.00    -0.305 NA
ATOM      6  C   UNL     1      12.090   4.319  -1.480  0.00  0.00    +0.059 C 
ATOM     11  C   UNL     1      12.235   2.833  -1.821  0.00  0.00    +0.034 C 
ATOM     12  C   UNL     1      10.610   4.709  -1.468  0.00  0.00    +0.034 C 
ATOM     13  C   UNL     1      11.497   2.492  -3.117  0.00  0.00    +0.085 C 
ATOM     14  C   UNL     1       9.924   4.307  -2.777  0.00  0.00    +0.085 C 
ATOM     16  C   UNL     1       9.377   2.490  -4.261  0.00  0.00    +0.104 C 
ENDBRANCH   2   6
TORSDOF 3
ENDMDL
MODEL 10
REMARK VINA RESULT:      -6.0      5.371      8.691
REMARK  Name = 45784294
REMARK  5 active torsions:
REMARK  status: ('A' for Active; 'I' for Inactive)
REMARK    1  A    between atoms: O_1  and  C_21
REMARK    2  A    between atoms: O_1  and  C_23
REMARK    3  A    between atoms: N_2  and  C_6
REMARK    4  A    between atoms: N_3  and  C_16
REMARK    5  A    between atoms: C_7  and  C_15
REMARK                            x       y       z     vdW  Elec       q    Type
REMARK                         _______ _______ _______ _____ _____    ______ ____
ROOT
ATOM      2  N   UNL     1      14.023   6.976  20.005  0.00  0.00    -0.299 NA
ATOM      7  C   UNL     1      16.014   6.711  21.217  0.00  0.00    +0.070 C 
ATOM      8  C   UNL     1      15.415   6.564  19.810  0.00  0.00    +0.096 C 
ATOM      9  C   UNL     1      14.096   8.159  20.862  0.00  0.00    +0.085 C 
ATOM     10  C   UNL     1      15.123   7.754  21.913  0.00  0.00    +0.028 C 
ENDROOT
BRANCH   7  15
ATOM      4  N   UNL     1      18.413   6.155  20.729  0.00  0.00    -0.341 N 
ATOM      5  N   UNL     1      18.044   8.167  21.599  0.00  0.00    -0.232 NA
ATOM     15  C   UNL     1      17.487   7.047  21.197  0.00  0.00    +0.113 A 
ATOM     17  C   UNL     1      19.649   6.739  20.838  0.00  0.00    +0.070 A 
ATOM     18  C   UNL     1      19.393   7.993  21.384  0.00  0.00    +0.089 A 
ATOM     19  C   UNL     1      20.930   6.290  20.515  0.00  0.00    +0.073 A 
ATOM     20  C   UNL     1      20.466   8.866  21.630  0.00  0.00    +0.033 A 
ATOM     21  C   UNL     1      21.987   7.172  20.766  0.00  0.00    +0.122 A 
ATOM     22  C   UNL     1      21.761   8.437  21.313  0.00  0.00    +0.048 A 
ATOM     24  H   UNL     1      18.224   5.230  20.367  0.00  0.00    +0.167 HD
BRANCH  21   1
ATOM      1  O   UNL     1      23.262   6.787  20.471  0.00  0.00    -0.495 OA
ATOM     23  C   UNL     1      23.976   6.083  21.485  0.00  0.00    +0.277 C 
ENDBRANCH  21   1
ENDBRANCH   7  15
BRANCH   2   6
ATOM      3  N   UNL     1      12.410   9.164  16.739  0.00  0.00    -0.305 NA
ATOM      6  C   UNL     1      13.340   7.245  18.743  0.00  0.00    +0.059 C 
ATOM     11  C   UNL     1      12.104   8.123  18.963  0.00  0.00    +0.034 C 
ATOM     12  C   UNL     1      14.294   7.926  17.758  0.00  0.00    +0.034 C 
ATOM     13  C   UNL     1      11.452   8.496  17.630  0.00  0.00    +0.085 C 
ATOM     14  C   UNL     1      13.569   8.305  16.464  0.00  0.00    +0.085 C 
ATOM     16  C   UNL     1      11.758   9.559  15.491  0.00  0.00    +0.104 C 
ENDBRANCH   2   6
TORSDOF 3
ENDMDL
