MODEL 1
REMARK VINA RESULT:      -7.4      0.000      0.000
REMARK  Name = 71693885
REMARK  9 active torsions:
REMARK  status: ('A' for Active; 'I' for Inactive)
REMARK    1  A    between atoms: O_1  and  C_9
REMARK    2  A    between atoms: O_2  and  C_11
REMARK    3  A    between atoms: O_4  and  C_18
REMARK    4  A    between atoms: O_4  and  C_25
REMARK    5  A    between atoms: O_5  and  C_22
REMARK    6  A    between atoms: O_5  and  C_26
REMARK    7  A    between atoms: N_6  and  C_8
REMARK    8  A    between atoms: C_7  and  C_12
REMARK    9  A    between atoms: C_15  and  C_19
REMARK                            x       y       z     vdW  Elec       q    Type
REMARK                         _______ _______ _______ _____ _____    ______ ____
ROOT
ATOM      7  C   UNL     1      13.007   9.220  20.153  0.00  0.00    +0.044 C 
ATOM      8  C   UNL     1      13.234   7.709  20.387  0.00  0.00    +0.112 C 
ATOM      9  C   UNL     1      12.361   7.403  21.603  0.00  0.00    +0.164 C 
ATOM     10  C   UNL     1      11.641   9.549  20.809  0.00  0.00    +0.044 C 
ATOM     11  C   UNL     1      11.103   8.222  21.341  0.00  0.00    +0.145 C 
ENDROOT
BRANCH   7  12
ATOM     12  C   UNL     1      13.111   9.615  18.695  0.00  0.00    -0.042 A 
ATOM     13  C   UNL     1      12.343   8.952  17.737  0.00  0.00    +0.007 A 
ATOM     14  C   UNL     1      13.973  10.642  18.310  0.00  0.00    +0.007 A 
ATOM     16  C   UNL     1      12.439   9.316  16.394  0.00  0.00    +0.046 A 
ATOM     17  C   UNL     1      14.068  11.006  16.967  0.00  0.00    +0.046 A 
ATOM     18  C   UNL     1      13.301  10.343  16.009  0.00  0.00    +0.120 A 
BRANCH  18   4
ATOM      4  O   UNL     1      13.395  10.697  14.698  0.00  0.00    -0.495 OA
ATOM     25  C   UNL     1      14.047  11.932  14.404  0.00  0.00    +0.277 C 
ENDBRANCH  18   4
ENDBRANCH   7  12
BRANCH   8   6
ATOM      3  O   UNL     1      15.184   6.922  18.432  0.00  0.00    -0.270 OA
ATOM      6  N   UNL     1      14.622   7.402  20.630  0.00  0.00    -0.305 N 
ATOM     15  C   UNL     1      15.493   7.028  19.616  0.00  0.00    +0.244 C 
ATOM     27  H   UNL     1      14.972   7.572  21.567  0.00  0.00    +0.149 HD
BRANCH  15  19
ATOM     19  C   UNL     1      16.884   6.720  20.034  0.00  0.00    +0.040 A 
ATOM     20  C   UNL     1      17.464   7.414  21.095  0.00  0.00    +0.058 A 
ATOM     21  C   UNL     1      17.610   5.733  19.366  0.00  0.00    +0.013 A 
ATOM     22  C   UNL     1      18.771   7.123  21.488  0.00  0.00    +0.121 A 
ATOM     23  C   UNL     1      18.917   5.443  19.759  0.00  0.00    +0.004 A 
ATOM     24  C   UNL     1      19.497   6.138  20.821  0.00  0.00    +0.045 A 
BRANCH  22   5
ATOM      5  O   UNL     1      19.336   7.802  22.524  0.00  0.00    -0.495 OA
ATOM     26  C   UNL     1      20.376   7.141  23.243  0.00  0.00    +0.277 C 
ENDBRANCH  22   5
ENDBRANCH  15  19
ENDBRANCH   8   6
BRANCH   9   1
ATOM      1  O   UNL     1      12.059   6.024  21.713  0.00  0.00    -0.387 OA
ATOM     28  H   UNL     1      11.456   5.799  20.985  0.00  0.00    +0.210 HD
ENDBRANCH   9   1
BRANCH  11   2
ATOM      2  O   UNL     1      10.302   7.617  20.330  0.00  0.00    -0.389 OA
ATOM     29  H   UNL     1      10.475   6.659  20.355  0.00  0.00    +0.210 HD
ENDBRANCH  11   2
TORSDOF 7
ENDMDL
MODEL 2
REMARK VINA RESULT:      -7.1      2.608      3.253
REMARK  Name = 71693885
REMARK  9 active torsions:
REMARK  status: ('A' for Active; 'I' for Inactive)
REMARK    1  A    between atoms: O_1  and  C_9
REMARK    2  A    between atoms: O_2  and  C_11
REMARK    3  A    between atoms: O_4  and  C_18
REMARK    4  A    between atoms: O_4  and  C_25
REMARK    5  A    between atoms: O_5  and  C_22
REMARK    6  A    between atoms: O_5  and  C_26
REMARK    7  A    between atoms: N_6  and  C_8
REMARK    8  A    between atoms: C_7  and  C_12
REMARK    9  A    between atoms: C_15  and  C_19
REMARK                            x       y       z     vdW  Elec       q    Type
REMARK                         _______ _______ _______ _____ _____    ______ ____
ROOT
ATOM      7  C   UNL     1      12.628   8.723  22.120  0.00  0.00    +0.044 C 
ATOM      8  C   UNL     1      13.039   7.901  20.877  0.00  0.00    +0.112 C 
ATOM      9  C   UNL     1      12.101   6.695  20.923  0.00  0.00    +0.164 C 
ATOM     10  C   UNL     1      11.172   8.300  22.444  0.00  0.00    +0.044 C 
ATOM     11  C   UNL     1      10.774   7.305  21.355  0.00  0.00    +0.145 C 
ENDROOT
BRANCH   7  12
ATOM     12  C   UNL     1      12.819  10.213  21.933  0.00  0.00    -0.042 A 
ATOM     13  C   UNL     1      13.596  10.936  22.838  0.00  0.00    +0.007 A 
ATOM     14  C   UNL     1      12.218  10.863  20.855  0.00  0.00    +0.007 A 
ATOM     16  C   UNL     1      13.772  12.309  22.666  0.00  0.00    +0.046 A 
ATOM     17  C   UNL     1      12.394  12.236  20.682  0.00  0.00    +0.046 A 
ATOM     18  C   UNL     1      13.171  12.959  21.588  0.00  0.00    +0.120 A 
BRANCH  18   4
ATOM      4  O   UNL     1      13.341  14.299  21.420  0.00  0.00    -0.495 OA
ATOM     25  C   UNL     1      13.261  14.802  20.087  0.00  0.00    +0.277 C 
ENDBRANCH  18   4
ENDBRANCH   7  12
BRANCH   8   6
ATOM      3  O   UNL     1      14.721   7.279  18.634  0.00  0.00    -0.270 OA
ATOM      6  N   UNL     1      14.425   7.506  20.923  0.00  0.00    -0.305 N 
ATOM     15  C   UNL     1      15.160   7.224  19.779  0.00  0.00    +0.244 C 
ATOM     27  H   UNL     1      14.883   7.543  21.827  0.00  0.00    +0.149 HD
BRANCH  15  19
ATOM     19  C   UNL     1      16.569   6.806  19.998  0.00  0.00    +0.040 A 
ATOM     20  C   UNL     1      17.315   7.382  21.026  0.00  0.00    +0.058 A 
ATOM     21  C   UNL     1      17.144   5.837  19.176  0.00  0.00    +0.013 A 
ATOM     22  C   UNL     1      18.638   6.989  21.231  0.00  0.00    +0.121 A 
ATOM     23  C   UNL     1      18.467   5.444  19.382  0.00  0.00    +0.004 A 
ATOM     24  C   UNL     1      19.214   6.020  20.410  0.00  0.00    +0.045 A 
BRANCH  22   5
ATOM      5  O   UNL     1      19.367   7.551  22.234  0.00  0.00    -0.495 OA
ATOM     26  C   UNL     1      20.162   6.674  23.030  0.00  0.00    +0.277 C 
ENDBRANCH  22   5
ENDBRANCH  15  19
ENDBRANCH   8   6
BRANCH   9   1
ATOM      1  O   UNL     1      11.985   6.058  19.664  0.00  0.00    -0.387 OA
ATOM     28  H   UNL     1      12.119   6.737  18.981  0.00  0.00    +0.210 HD
ENDBRANCH   9   1
BRANCH  11   2
ATOM      2  O   UNL     1      10.168   8.021  20.282  0.00  0.00    -0.389 OA
ATOM     29  H   UNL     1       9.228   8.141  20.505  0.00  0.00    +0.210 HD
ENDBRANCH  11   2
TORSDOF 7
ENDMDL
MODEL 3
REMARK VINA RESULT:      -6.9      3.157      6.496
REMARK  Name = 71693885
REMARK  9 active torsions:
REMARK  status: ('A' for Active; 'I' for Inactive)
REMARK    1  A    between atoms: O_1  and  C_9
REMARK    2  A    between atoms: O_2  and  C_11
REMARK    3  A    between atoms: O_4  and  C_18
REMARK    4  A    between atoms: O_4  and  C_25
REMARK    5  A    between atoms: O_5  and  C_22
REMARK    6  A    between atoms: O_5  and  C_26
REMARK    7  A    between atoms: N_6  and  C_8
REMARK    8  A    between atoms: C_7  and  C_12
REMARK    9  A    between atoms: C_15  and  C_19
REMARK                            x       y       z     vdW  Elec       q    Type
REMARK                         _______ _______ _______ _____ _____    ______ ____
ROOT
ATOM      7  C   UNL     1      14.083   9.017  18.972  0.00  0.00    +0.044 C 
ATOM      8  C   UNL     1      12.842   8.799  19.867  0.00  0.00    +0.112 C 
ATOM      9  C   UNL     1      11.671   8.994  18.904  0.00  0.00    +0.164 C 
ATOM     10  C   UNL     1      13.614   8.732  17.521  0.00  0.00    +0.044 C 
ATOM     11  C   UNL     1      12.152   8.306  17.632  0.00  0.00    +0.145 C 
ENDROOT
BRANCH   7  12
ATOM     12  C   UNL     1      15.281   8.201  19.412  0.00  0.00    -0.042 A 
ATOM     13  C   UNL     1      15.478   6.919  18.899  0.00  0.00    +0.007 A 
ATOM     14  C   UNL     1      16.187   8.733  20.330  0.00  0.00    +0.007 A 
ATOM     16  C   UNL     1      16.581   6.168  19.305  0.00  0.00    +0.046 A 
ATOM     17  C   UNL     1      17.290   7.982  20.736  0.00  0.00    +0.046 A 
ATOM     18  C   UNL     1      17.487   6.699  20.223  0.00  0.00    +0.120 A 
BRANCH  18   4
ATOM      4  O   UNL     1      18.563   5.966  20.620  0.00  0.00    -0.495 OA
ATOM     25  C   UNL     1      19.685   6.684  21.130  0.00  0.00    +0.277 C 
ENDBRANCH  18   4
ENDBRANCH   7  12
BRANCH   8   6
ATOM      3  O   UNL     1      11.442   8.457  22.350  0.00  0.00    -0.270 OA
ATOM      6  N   UNL     1      12.796   9.732  20.965  0.00  0.00    -0.305 N 
ATOM     15  C   UNL     1      12.089   9.478  22.132  0.00  0.00    +0.244 C 
ATOM     27  H   UNL     1      13.393  10.549  20.898  0.00  0.00    +0.149 HD
BRANCH  15  19
ATOM     19  C   UNL     1      12.120  10.552  23.158  0.00  0.00    +0.040 A 
ATOM     20  C   UNL     1      13.273  11.316  23.333  0.00  0.00    +0.058 A 
ATOM     21  C   UNL     1      10.995  10.795  23.946  0.00  0.00    +0.013 A 
ATOM     22  C   UNL     1      13.301  12.325  24.296  0.00  0.00    +0.121 A 
ATOM     23  C   UNL     1      11.024  11.804  24.910  0.00  0.00    +0.004 A 
ATOM     24  C   UNL     1      12.177  12.569  25.084  0.00  0.00    +0.045 A 
BRANCH  22   5
ATOM      5  O   UNL     1      14.427  13.071  24.467  0.00  0.00    -0.495 OA
ATOM     26  C   UNL     1      14.558  13.778  25.698  0.00  0.00    +0.277 C 
ENDBRANCH  22   5
ENDBRANCH  15  19
ENDBRANCH   8   6
BRANCH   9   1
ATOM      1  O   UNL     1      10.478   8.404  19.384  0.00  0.00    -0.387 OA
ATOM     28  H   UNL     1       9.749   9.015  19.182  0.00  0.00    +0.210 HD
ENDBRANCH   9   1
BRANCH  11   2
ATOM      2  O   UNL     1      12.098   6.889  17.767  0.00  0.00    -0.389 OA
ATOM     29  H   UNL     1      12.472   6.664  18.637  0.00  0.00    +0.210 HD
ENDBRANCH  11   2
TORSDOF 7
ENDMDL
MODEL 4
REMARK VINA RESULT:      -6.7      3.172      7.308
REMARK  Name = 71693885
REMARK  9 active torsions:
REMARK  status: ('A' for Active; 'I' for Inactive)
REMARK    1  A    between atoms: O_1  and  C_9
REMARK    2  A    between atoms: O_2  and  C_11
REMARK    3  A    between atoms: O_4  and  C_18
REMARK    4  A    between atoms: O_4  and  C_25
REMARK    5  A    between atoms: O_5  and  C_22
REMARK    6  A    between atoms: O_5  and  C_26
REMARK    7  A    between atoms: N_6  and  C_8
REMARK    8  A    between atoms: C_7  and  C_12
REMARK    9  A    between atoms: C_15  and  C_19
REMARK                            x       y       z     vdW  Elec       q    Type
REMARK                         _______ _______ _______ _____ _____    ______ ____
ROOT
ATOM      7  C   UNL     1      13.685   9.237  19.452  0.00  0.00    +0.044 C 
ATOM      8  C   UNL     1      12.466   8.962  20.362  0.00  0.00    +0.112 C 
ATOM      9  C   UNL     1      11.333   8.705  19.370  0.00  0.00    +0.164 C 
ATOM     10  C   UNL     1      13.359   8.564  18.094  0.00  0.00    +0.044 C 
ATOM     11  C   UNL     1      12.006   7.880  18.281  0.00  0.00    +0.145 C 
ENDROOT
BRANCH   7  12
ATOM     12  C   UNL     1      14.996   8.796  20.070  0.00  0.00    -0.042 A 
ATOM     13  C   UNL     1      15.846   9.738  20.648  0.00  0.00    +0.007 A 
ATOM     14  C   UNL     1      15.351   7.447  20.060  0.00  0.00    +0.007 A 
ATOM     16  C   UNL     1      17.053   9.331  21.216  0.00  0.00    +0.046 A 
ATOM     17  C   UNL     1      16.558   7.040  20.628  0.00  0.00    +0.046 A 
ATOM     18  C   UNL     1      17.409   7.982  21.206  0.00  0.00    +0.120 A 
BRANCH  18   4
ATOM      4  O   UNL     1      18.588   7.585  21.760  0.00  0.00    -0.495 OA
ATOM     25  C   UNL     1      19.475   6.835  20.931  0.00  0.00    +0.277 C 
ENDBRANCH  18   4
ENDBRANCH   7  12
BRANCH   8   6
ATOM      3  O   UNL     1      10.911   8.895  22.775  0.00  0.00    -0.270 OA
ATOM      6  N   UNL     1      12.178  10.075  21.232  0.00  0.00    -0.305 N 
ATOM     15  C   UNL     1      11.412   9.945  22.383  0.00  0.00    +0.244 C 
ATOM     27  H   UNL     1      12.648  10.950  21.028  0.00  0.00    +0.149 HD
BRANCH  15  19
ATOM     19  C   UNL     1      11.186  11.192  23.157  0.00  0.00    +0.040 A 
ATOM     20  C   UNL     1      11.012  12.405  22.492  0.00  0.00    +0.058 A 
ATOM     21  C   UNL     1      11.145  11.149  24.551  0.00  0.00    +0.013 A 
ATOM     22  C   UNL     1      10.799  13.576  23.219  0.00  0.00    +0.121 A 
ATOM     23  C   UNL     1      10.932  12.321  25.279  0.00  0.00    +0.004 A 
ATOM     24  C   UNL     1      10.758  13.534  24.612  0.00  0.00    +0.045 A 
BRANCH  22   5
ATOM      5  O   UNL     1      10.629  14.760  22.569  0.00  0.00    -0.495 OA
ATOM     26  C   UNL     1      11.306  14.920  21.323  0.00  0.00    +0.277 C 
ENDBRANCH  22   5
ENDBRANCH  15  19
ENDBRANCH   8   6
BRANCH   9   1
ATOM      1  O   UNL     1      10.256   7.997  19.956  0.00  0.00    -0.387 OA
ATOM     28  H   UNL     1      10.082   8.399  20.824  0.00  0.00    +0.210 HD
ENDBRANCH   9   1
BRANCH  11   2
ATOM      2  O   UNL     1      12.229   6.542  18.719  0.00  0.00    -0.389 OA
ATOM     29  H   UNL     1      11.666   6.393  19.500  0.00  0.00    +0.210 HD
ENDBRANCH  11   2
TORSDOF 7
ENDMDL
MODEL 5
REMARK VINA RESULT:      -6.3     13.538     17.684
REMARK  Name = 71693885
REMARK  9 active torsions:
REMARK  status: ('A' for Active; 'I' for Inactive)
REMARK    1  A    between atoms: O_1  and  C_9
REMARK    2  A    between atoms: O_2  and  C_11
REMARK    3  A    between atoms: O_4  and  C_18
REMARK    4  A    between atoms: O_4  and  C_25
REMARK    5  A    between atoms: O_5  and  C_22
REMARK    6  A    between atoms: O_5  and  C_26
REMARK    7  A    between atoms: N_6  and  C_8
REMARK    8  A    between atoms: C_7  and  C_12
REMARK    9  A    between atoms: C_15  and  C_19
REMARK                            x       y       z     vdW  Elec       q    Type
REMARK                         _______ _______ _______ _____ _____    ______ ____
ROOT
ATOM      7  C   UNL     1       8.648   7.103   4.317  0.00  0.00    +0.044 C 
ATOM      8  C   UNL     1       9.878   7.614   3.534  0.00  0.00    +0.112 C 
ATOM      9  C   UNL     1       9.350   8.855   2.814  0.00  0.00    +0.164 C 
ATOM     10  C   UNL     1       7.716   8.330   4.489  0.00  0.00    +0.044 C 
ATOM     11  C   UNL     1       8.457   9.508   3.860  0.00  0.00    +0.145 C 
ENDROOT
BRANCH   7  12
ATOM     12  C   UNL     1       9.017   6.412   5.613  0.00  0.00    -0.042 A 
ATOM     13  C   UNL     1       9.470   5.093   5.597  0.00  0.00    +0.007 A 
ATOM     14  C   UNL     1       8.904   7.096   6.824  0.00  0.00    +0.007 A 
ATOM     16  C   UNL     1       9.809   4.457   6.791  0.00  0.00    +0.046 A 
ATOM     17  C   UNL     1       9.244   6.461   8.018  0.00  0.00    +0.046 A 
ATOM     18  C   UNL     1       9.696   5.141   8.001  0.00  0.00    +0.120 A 
BRANCH  18   4
ATOM      4  O   UNL     1      10.027   4.521   9.167  0.00  0.00    -0.495 OA
ATOM     25  C   UNL     1       9.063   4.557  10.218  0.00  0.00    +0.277 C 
ENDBRANCH  18   4
ENDBRANCH   7  12
BRANCH   8   6
ATOM      3  O   UNL     1      12.486   6.412   3.558  0.00  0.00    -0.270 OA
ATOM      6  N   UNL     1      10.380   6.628   2.610  0.00  0.00    -0.305 N 
ATOM     15  C   UNL     1      11.662   6.103   2.702  0.00  0.00    +0.244 C 
ATOM     27  H   UNL     1       9.719   6.248   1.941  0.00  0.00    +0.149 HD
BRANCH  15  19
ATOM     19  C   UNL     1      12.035   5.115   1.657  0.00  0.00    +0.040 A 
ATOM     20  C   UNL     1      11.151   4.831   0.617  0.00  0.00    +0.058 A 
ATOM     21  C   UNL     1      13.272   4.472   1.717  0.00  0.00    +0.013 A 
ATOM     22  C   UNL     1      11.503   3.903  -0.364  0.00  0.00    +0.121 A 
ATOM     23  C   UNL     1      13.624   3.544   0.735  0.00  0.00    +0.004 A 
ATOM     24  C   UNL     1      12.739   3.260  -0.306  0.00  0.00    +0.045 A 
BRANCH  22   5
ATOM      5  O   UNL     1      10.640   3.627  -1.380  0.00  0.00    -0.495 OA
ATOM     26  C   UNL     1      11.083   2.711  -2.379  0.00  0.00    +0.277 C 
ENDBRANCH  22   5
ENDBRANCH  15  19
ENDBRANCH   8   6
BRANCH   9   1
ATOM      1  O   UNL     1      10.391   9.726   2.414  0.00  0.00    -0.387 OA
ATOM     28  H   UNL     1      10.941   9.248   1.771  0.00  0.00    +0.210 HD
ENDBRANCH   9   1
BRANCH  11   2
ATOM      2  O   UNL     1       9.235  10.148   4.868  0.00  0.00    -0.389 OA
ATOM     29  H   UNL     1       8.724  10.911   5.191  0.00  0.00    +0.210 HD
ENDBRANCH  11   2
TORSDOF 7
ENDMDL
MODEL 6
REMARK VINA RESULT:      -6.3     29.628     33.057
REMARK  Name = 71693885
REMARK  9 active torsions:
REMARK  status: ('A' for Active; 'I' for Inactive)
REMARK    1  A    between atoms: O_1  and  C_9
REMARK    2  A    between atoms: O_2  and  C_11
REMARK    3  A    between atoms: O_4  and  C_18
REMARK    4  A    between atoms: O_4  and  C_25
REMARK    5  A    between atoms: O_5  and  C_22
REMARK    6  A    between atoms: O_5  and  C_26
REMARK    7  A    between atoms: N_6  and  C_8
REMARK    8  A    between atoms: C_7  and  C_12
REMARK    9  A    between atoms: C_15  and  C_19
REMARK                            x       y       z     vdW  Elec       q    Type
REMARK                         _______ _______ _______ _____ _____    ______ ____
ROOT
ATOM      7  C   UNL     1     -16.708   4.863  32.435  0.00  0.00    +0.044 C 
ATOM      8  C   UNL     1     -16.362   5.070  33.928  0.00  0.00    +0.112 C 
ATOM      9  C   UNL     1     -17.700   5.469  34.550  0.00  0.00    +0.164 C 
ATOM     10  C   UNL     1     -18.229   4.569  32.390  0.00  0.00    +0.044 C 
ATOM     11  C   UNL     1     -18.695   4.557  33.845  0.00  0.00    +0.145 C 
ENDROOT
BRANCH   7  12
ATOM     12  C   UNL     1     -15.848   3.808  31.770  0.00  0.00    -0.042 A 
ATOM     13  C   UNL     1     -15.512   3.932  30.422  0.00  0.00    +0.007 A 
ATOM     14  C   UNL     1     -15.393   2.714  32.505  0.00  0.00    +0.007 A 
ATOM     16  C   UNL     1     -14.720   2.960  29.809  0.00  0.00    +0.046 A 
ATOM     17  C   UNL     1     -14.602   1.742  31.893  0.00  0.00    +0.046 A 
ATOM     18  C   UNL     1     -14.265   1.866  30.545  0.00  0.00    +0.120 A 
BRANCH  18   4
ATOM      4  O   UNL     1     -13.494   0.917  29.946  0.00  0.00    -0.495 OA
ATOM     25  C   UNL     1     -14.010  -0.412  29.911  0.00  0.00    +0.277 C 
ENDBRANCH  18   4
ENDBRANCH   7  12
BRANCH   8   6
ATOM      3  O   UNL     1     -13.943   4.828  35.455  0.00  0.00    -0.270 OA
ATOM      6  N   UNL     1     -15.357   6.086  34.114  0.00  0.00    -0.305 N 
ATOM     15  C   UNL     1     -14.214   5.876  34.875  0.00  0.00    +0.244 C 
ATOM     27  H   UNL     1     -15.462   6.940  33.578  0.00  0.00    +0.149 HD
BRANCH  15  19
ATOM     19  C   UNL     1     -13.289   7.032  34.991  0.00  0.00    +0.040 A 
ATOM     20  C   UNL     1     -13.006   7.814  33.872  0.00  0.00    +0.058 A 
ATOM     21  C   UNL     1     -12.704   7.335  36.220  0.00  0.00    +0.013 A 
ATOM     22  C   UNL     1     -12.137   8.901  33.982  0.00  0.00    +0.121 A 
ATOM     23  C   UNL     1     -11.835   8.422  36.330  0.00  0.00    +0.004 A 
ATOM     24  C   UNL     1     -11.552   9.205  35.210  0.00  0.00    +0.045 A 
BRANCH  22   5
ATOM      5  O   UNL     1     -11.861   9.664  32.889  0.00  0.00    -0.495 OA
ATOM     26  C   UNL     1     -11.512   8.979  31.688  0.00  0.00    +0.277 C 
ENDBRANCH  22   5
ENDBRANCH  15  19
ENDBRANCH   8   6
BRANCH   9   1
ATOM      1  O   UNL     1     -17.722   5.266  35.950  0.00  0.00    -0.387 OA
ATOM     28  H   UNL     1     -17.751   4.306  36.104  0.00  0.00    +0.210 HD
ENDBRANCH   9   1
BRANCH  11   2
ATOM      2  O   UNL     1     -18.606   3.224  34.341  0.00  0.00    -0.389 OA
ATOM     29  H   UNL     1     -17.668   2.964  34.313  0.00  0.00    +0.210 HD
ENDBRANCH  11   2
TORSDOF 7
ENDMDL
MODEL 7
REMARK VINA RESULT:      -6.2      3.307      6.707
REMARK  Name = 71693885
REMARK  9 active torsions:
REMARK  status: ('A' for Active; 'I' for Inactive)
REMARK    1  A    between atoms: O_1  and  C_9
REMARK    2  A    between atoms: O_2  and  C_11
REMARK    3  A    between atoms: O_4  and  C_18
REMARK    4  A    between atoms: O_4  and  C_25
REMARK    5  A    between atoms: O_5  and  C_22
REMARK    6  A    between atoms: O_5  and  C_26
REMARK    7  A    between atoms: N_6  and  C_8
REMARK    8  A    between atoms: C_7  and  C_12
REMARK    9  A    between atoms: C_15  and  C_19
REMARK                            x       y       z     vdW  Elec       q    Type
REMARK                         _______ _______ _______ _____ _____    ______ ____
ROOT
ATOM      7  C   UNL     1      12.286   8.369  19.367  0.00  0.00    +0.044 C 
ATOM      8  C   UNL     1      12.973   9.066  20.563  0.00  0.00    +0.112 C 
ATOM      9  C   UNL     1      13.225   7.922  21.544  0.00  0.00    +0.164 C 
ATOM     10  C   UNL     1      12.707   6.878  19.448  0.00  0.00    +0.044 C 
ATOM     11  C   UNL     1      13.659   6.778  20.638  0.00  0.00    +0.145 C 
ENDROOT
BRANCH   7  12
ATOM     12  C   UNL     1      12.590   9.032  18.040  0.00  0.00    -0.042 A 
ATOM     13  C   UNL     1      11.736   8.842  16.953  0.00  0.00    +0.007 A 
ATOM     14  C   UNL     1      13.724   9.833  17.905  0.00  0.00    +0.007 A 
ATOM     16  C   UNL     1      12.017   9.454  15.731  0.00  0.00    +0.046 A 
ATOM     17  C   UNL     1      14.005  10.444  16.683  0.00  0.00    +0.046 A 
ATOM     18  C   UNL     1      13.150  10.254  15.596  0.00  0.00    +0.120 A 
BRANCH  18   4
ATOM      4  O   UNL     1      13.425  10.850  14.403  0.00  0.00    -0.495 OA
ATOM     25  C   UNL     1      14.086  12.114  14.446  0.00  0.00    +0.277 C 
ENDBRANCH  18   4
ENDBRANCH   7  12
BRANCH   8   6
ATOM      3  O   UNL     1      13.857  11.297  22.139  0.00  0.00    -0.270 OA
ATOM      6  N   UNL     1      12.144  10.096  21.138  0.00  0.00    -0.305 N 
ATOM     15  C   UNL     1      12.665  11.141  21.890  0.00  0.00    +0.244 C 
ATOM     27  H   UNL     1      11.163  10.090  20.884  0.00  0.00    +0.149 HD
BRANCH  15  19
ATOM     19  C   UNL     1      11.675  12.106  22.434  0.00  0.00    +0.040 A 
ATOM     20  C   UNL     1      11.040  13.009  21.583  0.00  0.00    +0.058 A 
ATOM     21  C   UNL     1      11.380  12.107  23.798  0.00  0.00    +0.013 A 
ATOM     22  C   UNL     1      10.110  13.915  22.095  0.00  0.00    +0.121 A 
ATOM     23  C   UNL     1      10.450  13.012  24.309  0.00  0.00    +0.004 A 
ATOM     24  C   UNL     1       9.815  13.916  23.457  0.00  0.00    +0.045 A 
BRANCH  22   5
ATOM      5  O   UNL     1       9.491  14.797  21.263  0.00  0.00    -0.495 OA
ATOM     26  C   UNL     1       8.184  15.232  21.634  0.00  0.00    +0.277 C 
ENDBRANCH  22   5
ENDBRANCH  15  19
ENDBRANCH   8   6
BRANCH   9   1
ATOM      1  O   UNL     1      14.232   8.238  22.488  0.00  0.00    -0.387 OA
ATOM     28  H   UNL     1      14.500   9.159  22.331  0.00  0.00    +0.210 HD
ENDBRANCH   9   1
BRANCH  11   2
ATOM      2  O   UNL     1      14.992   6.973  20.172  0.00  0.00    -0.389 OA
ATOM     29  H   UNL     1      15.370   7.718  20.672  0.00  0.00    +0.210 HD
ENDBRANCH  11   2
TORSDOF 7
ENDMDL
MODEL 8
REMARK VINA RESULT:      -6.2      1.946      4.269
REMARK  Name = 71693885
REMARK  9 active torsions:
REMARK  status: ('A' for Active; 'I' for Inactive)
REMARK    1  A    between atoms: O_1  and  C_9
REMARK    2  A    between atoms: O_2  and  C_11
REMARK    3  A    between atoms: O_4  and  C_18
REMARK    4  A    between atoms: O_4  and  C_25
REMARK    5  A    between atoms: O_5  and  C_22
REMARK    6  A    between atoms: O_5  and  C_26
REMARK    7  A    between atoms: N_6  and  C_8
REMARK    8  A    between atoms: C_7  and  C_12
REMARK    9  A    between atoms: C_15  and  C_19
REMARK                            x       y       z     vdW  Elec       q    Type
REMARK                         _______ _______ _______ _____ _____    ______ ____
ROOT
ATOM      7  C   UNL     1      12.865   8.492  19.423  0.00  0.00    +0.044 C 
ATOM      8  C   UNL     1      14.060   9.070  18.631  0.00  0.00    +0.112 C 
ATOM      9  C   UNL     1      13.885   8.469  17.236  0.00  0.00    +0.164 C 
ATOM     10  C   UNL     1      11.797   8.115  18.364  0.00  0.00    +0.044 C 
ATOM     11  C   UNL     1      12.379   8.538  17.016  0.00  0.00    +0.145 C 
ENDROOT
BRANCH   7  12
ATOM     12  C   UNL     1      12.367   9.425  20.507  0.00  0.00    -0.042 A 
ATOM     13  C   UNL     1      11.745   8.906  21.642  0.00  0.00    +0.007 A 
ATOM     14  C   UNL     1      12.532  10.803  20.370  0.00  0.00    +0.007 A 
ATOM     16  C   UNL     1      11.286   9.766  22.640  0.00  0.00    +0.046 A 
ATOM     17  C   UNL     1      12.074  11.663  21.368  0.00  0.00    +0.046 A 
ATOM     18  C   UNL     1      11.451  11.144  22.503  0.00  0.00    +0.120 A 
BRANCH  18   4
ATOM      4  O   UNL     1      11.003  11.983  23.477  0.00  0.00    -0.495 OA
ATOM     25  C   UNL     1      11.073  11.513  24.823  0.00  0.00    +0.277 C 
ENDBRANCH  18   4
ENDBRANCH   7  12
BRANCH   8   6
ATOM      3  O   UNL     1      14.964   6.416  19.252  0.00  0.00    -0.270 OA
ATOM      6  N   UNL     1      15.325   8.707  19.218  0.00  0.00    -0.305 N 
ATOM     15  C   UNL     1      15.675   7.390  19.483  0.00  0.00    +0.244 C 
ATOM     27  H   UNL     1      16.005   9.449  19.337  0.00  0.00    +0.149 HD
BRANCH  15  19
ATOM     19  C   UNL     1      17.004   7.185  20.114  0.00  0.00    +0.040 A 
ATOM     20  C   UNL     1      17.454   8.066  21.097  0.00  0.00    +0.058 A 
ATOM     21  C   UNL     1      17.803   6.109  19.724  0.00  0.00    +0.013 A 
ATOM     22  C   UNL     1      18.702   7.873  21.689  0.00  0.00    +0.121 A 
ATOM     23  C   UNL     1      19.051   5.916  20.317  0.00  0.00    +0.004 A 
ATOM     24  C   UNL     1      19.500   6.798  21.300  0.00  0.00    +0.045 A 
BRANCH  22   5
ATOM      5  O   UNL     1      19.140   8.734  22.648  0.00  0.00    -0.495 OA
ATOM     26  C   UNL     1      20.270   8.329  23.418  0.00  0.00    +0.277 C 
ENDBRANCH  22   5
ENDBRANCH  15  19
ENDBRANCH   8   6
BRANCH   9   1
ATOM      1  O   UNL     1      14.580   9.202  16.245  0.00  0.00    -0.387 OA
ATOM     28  H   UNL     1      15.523   9.191  16.483  0.00  0.00    +0.210 HD
ENDBRANCH   9   1
BRANCH  11   2
ATOM      2  O   UNL     1      11.964   9.873  16.740  0.00  0.00    -0.389 OA
ATOM     29  H   UNL     1      11.082   9.993  17.134  0.00  0.00    +0.210 HD
ENDBRANCH  11   2
TORSDOF 7
ENDMDL
MODEL 9
REMARK VINA RESULT:      -6.1     12.995     15.215
REMARK  Name = 71693885
REMARK  9 active torsions:
REMARK  status: ('A' for Active; 'I' for Inactive)
REMARK    1  A    between atoms: O_1  and  C_9
REMARK    2  A    between atoms: O_2  and  C_11
REMARK    3  A    between atoms: O_4  and  C_18
REMARK    4  A    between atoms: O_4  and  C_25
REMARK    5  A    between atoms: O_5  and  C_22
REMARK    6  A    between atoms: O_5  and  C_26
REMARK    7  A    between atoms: N_6  and  C_8
REMARK    8  A    between atoms: C_7  and  C_12
REMARK    9  A    between atoms: C_15  and  C_19
REMARK                            x       y       z     vdW  Elec       q    Type
REMARK                         _______ _______ _______ _____ _____    ______ ____
ROOT
ATOM      7  C   UNL     1      10.160   6.488   5.158  0.00  0.00    +0.044 C 
ATOM      8  C   UNL     1      11.399   6.231   6.046  0.00  0.00    +0.112 C 
ATOM      9  C   UNL     1      10.817   6.163   7.457  0.00  0.00    +0.164 C 
ATOM     10  C   UNL     1       8.944   5.974   5.970  0.00  0.00    +0.044 C 
ATOM     11  C   UNL     1       9.519   5.389   7.259  0.00  0.00    +0.145 C 
ENDROOT
BRANCH   7  12
ATOM     12  C   UNL     1      10.288   5.885   3.775  0.00  0.00    -0.042 A 
ATOM     13  C   UNL     1      10.785   4.591   3.622  0.00  0.00    +0.007 A 
ATOM     14  C   UNL     1       9.907   6.623   2.655  0.00  0.00    +0.007 A 
ATOM     16  C   UNL     1      10.903   4.035   2.348  0.00  0.00    +0.046 A 
ATOM     17  C   UNL     1      10.025   6.068   1.381  0.00  0.00    +0.046 A 
ATOM     18  C   UNL     1      10.522   4.773   1.228  0.00  0.00    +0.120 A 
BRANCH  18   4
ATOM      4  O   UNL     1      10.638   4.232  -0.016  0.00  0.00    -0.495 OA
ATOM     25  C   UNL     1      10.251   5.050  -1.119  0.00  0.00    +0.277 C 
ENDBRANCH  18   4
ENDBRANCH   7  12
BRANCH   8   6
ATOM      3  O   UNL     1      14.011   6.285   7.238  0.00  0.00    -0.270 OA
ATOM      6  N   UNL     1      12.381   7.279   5.920  0.00  0.00    -0.305 N 
ATOM     15  C   UNL     1      13.624   7.215   6.537  0.00  0.00    +0.244 C 
ATOM     27  H   UNL     1      12.172   8.028   5.270  0.00  0.00    +0.149 HD
BRANCH  15  19
ATOM     19  C   UNL     1      14.513   8.388   6.329  0.00  0.00    +0.040 A 
ATOM     20  C   UNL     1      15.840   8.198   5.947  0.00  0.00    +0.058 A 
ATOM     21  C   UNL     1      14.018   9.679   6.516  0.00  0.00    +0.013 A 
ATOM     22  C   UNL     1      16.674   9.300   5.752  0.00  0.00    +0.121 A 
ATOM     23  C   UNL     1      14.852  10.780   6.321  0.00  0.00    +0.004 A 
ATOM     24  C   UNL     1      16.180  10.590   5.939  0.00  0.00    +0.045 A 
BRANCH  22   5
ATOM      5  O   UNL     1      17.970   9.114   5.379  0.00  0.00    -0.495 OA
ATOM     26  C   UNL     1      18.925   8.922   6.420  0.00  0.00    +0.277 C 
ENDBRANCH  22   5
ENDBRANCH  15  19
ENDBRANCH   8   6
BRANCH   9   1
ATOM      1  O   UNL     1      11.677   5.494   8.361  0.00  0.00    -0.387 OA
ATOM     28  H   UNL     1      12.080   4.750   7.883  0.00  0.00    +0.210 HD
ENDBRANCH   9   1
BRANCH  11   2
ATOM      2  O   UNL     1       9.778   4.003   7.055  0.00  0.00    -0.389 OA
ATOM     29  H   UNL     1       9.996   3.616   7.921  0.00  0.00    +0.210 HD
ENDBRANCH  11   2
TORSDOF 7
ENDMDL
MODEL 10
REMARK VINA RESULT:      -6.1      1.766      6.922
REMARK  Name = 71693885
REMARK  9 active torsions:
REMARK  status: ('A' for Active; 'I' for Inactive)
REMARK    1  A    between atoms: O_1  and  C_9
REMARK    2  A    between atoms: O_2  and  C_11
REMARK    3  A    between atoms: O_4  and  C_18
REMARK    4  A    between atoms: O_4  and  C_25
REMARK    5  A    between atoms: O_5  and  C_22
REMARK    6  A    between atoms: O_5  and  C_26
REMARK    7  A    between atoms: N_6  and  C_8
REMARK    8  A    between atoms: C_7  and  C_12
REMARK    9  A    between atoms: C_15  and  C_19
REMARK                            x       y       z     vdW  Elec       q    Type
REMARK                         _______ _______ _______ _____ _____    ______ ____
ROOT
ATOM      7  C   UNL     1      14.044   7.406  19.360  0.00  0.00    +0.044 C 
ATOM      8  C   UNL     1      13.692   8.902  19.524  0.00  0.00    +0.112 C 
ATOM      9  C   UNL     1      12.220   8.877  19.934  0.00  0.00    +0.164 C 
ATOM     10  C   UNL     1      13.013   6.632  20.221  0.00  0.00    +0.044 C 
ATOM     11  C   UNL     1      12.147   7.696  20.893  0.00  0.00    +0.145 C 
ENDROOT
BRANCH   7  12
ATOM     12  C   UNL     1      15.490   7.098  19.691  0.00  0.00    -0.042 A 
ATOM     13  C   UNL     1      16.210   6.201  18.903  0.00  0.00    +0.007 A 
ATOM     14  C   UNL     1      16.100   7.713  20.784  0.00  0.00    +0.007 A 
ATOM     16  C   UNL     1      17.541   5.918  19.208  0.00  0.00    +0.046 A 
ATOM     17  C   UNL     1      17.432   7.430  21.089  0.00  0.00    +0.046 A 
ATOM     18  C   UNL     1      18.152   6.533  20.300  0.00  0.00    +0.120 A 
BRANCH  18   4
ATOM      4  O   UNL     1      19.451   6.256  20.599  0.00  0.00    -0.495 OA
ATOM     25  C   UNL     1      19.887   6.541  21.927  0.00  0.00    +0.277 C 
ENDBRANCH  18   4
ENDBRANCH   7  12
BRANCH   8   6
ATOM      3  O   UNL     1      15.645  10.959  19.079  0.00  0.00    -0.270 OA
ATOM      6  N   UNL     1      13.899   9.643  18.306  0.00  0.00    -0.305 N 
ATOM     15  C   UNL     1      14.874  10.625  18.185  0.00  0.00    +0.244 C 
ATOM     27  H   UNL     1      13.370   9.348  17.493  0.00  0.00    +0.149 HD
BRANCH  15  19
ATOM     19  C   UNL     1      14.942  11.315  16.871  0.00  0.00    +0.040 A 
ATOM     20  C   UNL     1      13.943  11.106  15.920  0.00  0.00    +0.058 A 
ATOM     21  C   UNL     1      16.005  12.173  16.589  0.00  0.00    +0.013 A 
ATOM     22  C   UNL     1      14.008  11.755  14.687  0.00  0.00    +0.121 A 
ATOM     23  C   UNL     1      16.069  12.822  15.356  0.00  0.00    +0.004 A 
ATOM     24  C   UNL     1      15.070  12.613  14.405  0.00  0.00    +0.045 A 
BRANCH  22   5
ATOM      5  O   UNL     1      13.033  11.551  13.759  0.00  0.00    -0.495 OA
ATOM     26  C   UNL     1      12.895  12.533  12.734  0.00  0.00    +0.277 C 
ENDBRANCH  22   5
ENDBRANCH  15  19
ENDBRANCH   8   6
BRANCH   9   1
ATOM      1  O   UNL     1      11.820  10.077  20.570  0.00  0.00    -0.387 OA
ATOM     28  H   UNL     1      11.178  10.516  19.986  0.00  0.00    +0.210 HD
ENDBRANCH   9   1
BRANCH  11   2
ATOM      2  O   UNL     1      12.726   8.025  22.153  0.00  0.00    -0.389 OA
ATOM     29  H   UNL     1      13.091   7.205  22.530  0.00  0.00    +0.210 HD
ENDBRANCH  11   2
TORSDOF 7
ENDMDL
