MODEL 1
REMARK VINA RESULT:      -6.3      0.000      0.000
REMARK  Name = 40776834
REMARK  13 active torsions:
REMARK  status: ('A' for Active; 'I' for Inactive)
REMARK    1  A    between atoms: S_1  and  N_7
REMARK    2  A    between atoms: S_1  and  C_22
REMARK    3  A    between atoms: O_4  and  C_29
REMARK    4  A    between atoms: O_4  and  C_32
REMARK    5  A    between atoms: O_5  and  C_31
REMARK    6  A    between atoms: O_5  and  C_33
REMARK    7  A    between atoms: N_7  and  C_17
REMARK    8  A    between atoms: C_11  and  C_18
REMARK    9  A    between atoms: C_12  and  C_17
REMARK   10  A    between atoms: C_20  and  C_23
REMARK   11  A    between atoms: C_21  and  C_25
REMARK   12  A    between atoms: C_22  and  C_24
REMARK   13  A    between atoms: C_24  and  C_28
REMARK                            x       y       z     vdW  Elec       q    Type
REMARK                         _______ _______ _______ _____ _____    ______ ____
ROOT
ATOM      6  N   UNL     1      10.706   5.383   7.943  0.00  0.00    -0.297 NA
ATOM     10  C   UNL     1       9.293   7.399   7.093  0.00  0.00    +0.002 C 
ATOM     11  C   UNL     1       9.166   6.196   6.118  0.00  0.00    +0.055 C 
ATOM     12  C   UNL     1      11.534   6.618   7.939  0.00  0.00    +0.072 C 
ATOM     13  C   UNL     1      10.782   7.776   7.246  0.00  0.00    +0.024 C 
ATOM     14  C   UNL     1       8.804   6.908   8.472  0.00  0.00    +0.019 C 
ATOM     15  C   UNL     1      10.185   5.115   6.580  0.00  0.00    +0.094 C 
ATOM     16  C   UNL     1       9.551   5.615   8.843  0.00  0.00    +0.085 C 
ENDROOT
BRANCH  11  18
ATOM      8  N   UNL     1       8.578   7.545   4.165  0.00  0.00    -0.237 NA
ATOM      9  N   UNL     1       9.365   7.010   1.951  0.00  0.00    -0.232 NA
ATOM     18  C   UNL     1       9.251   6.469   4.623  0.00  0.00    +0.050 A 
ATOM     19  C   UNL     1       9.992   5.629   3.819  0.00  0.00    +0.052 A 
ATOM     20  C   UNL     1      10.014   5.952   2.477  0.00  0.00    +0.075 A 
ATOM     21  C   UNL     1       8.676   7.753   2.837  0.00  0.00    +0.127 A 
ATOM     25  C   UNL     1       7.944   8.932   2.293  0.00  0.00    +0.088 C 
BRANCH  20  23
ATOM     23  C   UNL     1      10.752   5.151   1.530  0.00  0.00    +0.004 A 
ATOM     26  C   UNL     1      11.857   4.412   1.953  0.00  0.00    +0.059 A 
ATOM     27  C   UNL     1      10.360   5.114   0.191  0.00  0.00    +0.014 A 
ATOM     29  C   UNL     1      12.571   3.637   1.039  0.00  0.00    +0.162 A 
ATOM     30  C   UNL     1      11.073   4.339  -0.724  0.00  0.00    +0.050 A 
ATOM     31  C   UNL     1      12.178   3.601  -0.300  0.00  0.00    +0.162 A 
BRANCH  29   4
ATOM      4  O   UNL     1      13.647   2.919   1.463  0.00  0.00    -0.491 OA
ATOM     32  C   UNL     1      14.889   3.612   1.566  0.00  0.00    +0.277 C 
ENDBRANCH  29   4
BRANCH  31   5
ATOM      5  O   UNL     1      12.867   2.847  -1.202  0.00  0.00    -0.491 OA
ATOM     33  C   UNL     1      12.160   2.428  -2.369  0.00  0.00    +0.277 C 
ENDBRANCH  31   5
ENDBRANCH  20  23
ENDBRANCH  11  18
BRANCH  12  17
ATOM     17  C   UNL     1      12.917   6.390   7.326  0.00  0.00    +0.124 C 
BRANCH  17   7
ATOM      7  N   UNL     1      13.005   6.986   6.028  0.00  0.00    -0.193 NA
ATOM     34  H   UNL     1      12.104   7.292   5.639  0.00  0.00    +0.148 HD
BRANCH   7   1
ATOM      1  S   UNL     1      14.365   7.965   5.602  0.00  0.00    +0.029 S 
ATOM      2  O   UNL     1      15.441   7.107   5.147  0.00  0.00    -0.158 OA
ATOM      3  O   UNL     1      14.595   8.958   6.634  0.00  0.00    -0.158 OA
BRANCH   1  22
ATOM     22  C   UNL     1      13.706   8.814   4.186  0.00  0.00    +0.185 C 
BRANCH  22  24
ATOM     24  C   UNL     1      12.218   8.554   4.027  0.00  0.00    +0.021 C 
ATOM     28  C   UNL     1      11.410   9.831   4.185  0.00  0.00    +0.005 C 
ENDBRANCH  22  24
ENDBRANCH   1  22
ENDBRANCH   7   1
ENDBRANCH  17   7
ENDBRANCH  12  17
TORSDOF 9
ENDMDL
MODEL 2
REMARK VINA RESULT:      -6.2     13.773     17.781
REMARK  Name = 40776834
REMARK  13 active torsions:
REMARK  status: ('A' for Active; 'I' for Inactive)
REMARK    1  A    between atoms: S_1  and  N_7
REMARK    2  A    between atoms: S_1  and  C_22
REMARK    3  A    between atoms: O_4  and  C_29
REMARK    4  A    between atoms: O_4  and  C_32
REMARK    5  A    between atoms: O_5  and  C_31
REMARK    6  A    between atoms: O_5  and  C_33
REMARK    7  A    between atoms: N_7  and  C_17
REMARK    8  A    between atoms: C_11  and  C_18
REMARK    9  A    between atoms: C_12  and  C_17
REMARK   10  A    between atoms: C_20  and  C_23
REMARK   11  A    between atoms: C_21  and  C_25
REMARK   12  A    between atoms: C_22  and  C_24
REMARK   13  A    between atoms: C_24  and  C_28
REMARK                            x       y       z     vdW  Elec       q    Type
REMARK                         _______ _______ _______ _____ _____    ______ ____
ROOT
ATOM      6  N   UNL     1      11.282   8.758  20.452  0.00  0.00    -0.297 NA
ATOM     10  C   UNL     1      13.057   6.877  20.761  0.00  0.00    +0.002 C 
ATOM     11  C   UNL     1      13.478   8.155  21.537  0.00  0.00    +0.055 C 
ATOM     12  C   UNL     1      11.661   8.195  19.129  0.00  0.00    +0.072 C 
ATOM     13  C   UNL     1      12.857   7.228  19.271  0.00  0.00    +0.024 C 
ATOM     14  C   UNL     1      11.680   6.453  21.316  0.00  0.00    +0.019 C 
ATOM     15  C   UNL     1      12.485   9.285  21.144  0.00  0.00    +0.094 C 
ATOM     16  C   UNL     1      10.723   7.656  21.271  0.00  0.00    +0.085 C 
ENDROOT
BRANCH  11  18
ATOM      8  N   UNL     1      15.159   9.932  21.516  0.00  0.00    -0.237 NA
ATOM      9  N   UNL     1      17.513   9.470  21.292  0.00  0.00    -0.232 NA
ATOM     18  C   UNL     1      14.930   8.604  21.448  0.00  0.00    +0.050 A 
ATOM     19  C   UNL     1      15.926   7.661  21.303  0.00  0.00    +0.052 A 
ATOM     20  C   UNL     1      17.212   8.157  21.230  0.00  0.00    +0.075 A 
ATOM     21  C   UNL     1      16.455  10.290  21.433  0.00  0.00    +0.127 A 
ATOM     25  C   UNL     1      16.748  11.750  21.503  0.00  0.00    +0.088 C 
BRANCH  20  23
ATOM     23  C   UNL     1      18.344   7.274  21.076  0.00  0.00    +0.004 A 
ATOM     26  C   UNL     1      19.508   7.498  21.811  0.00  0.00    +0.059 A 
ATOM     27  C   UNL     1      18.273   6.196  20.194  0.00  0.00    +0.014 A 
ATOM     29  C   UNL     1      20.602   6.646  21.664  0.00  0.00    +0.162 A 
ATOM     30  C   UNL     1      19.367   5.342  20.046  0.00  0.00    +0.050 A 
ATOM     31  C   UNL     1      20.531   5.568  20.781  0.00  0.00    +0.162 A 
BRANCH  29   4
ATOM      4  O   UNL     1      21.733   6.874  22.388  0.00  0.00    -0.491 OA
ATOM     32  C   UNL     1      22.037   8.231  22.703  0.00  0.00    +0.277 C 
ENDBRANCH  29   4
BRANCH  31   5
ATOM      5  O   UNL     1      21.593   4.727  20.629  0.00  0.00    -0.491 OA
ATOM     33  C   UNL     1      21.456   3.409  21.158  0.00  0.00    +0.277 C 
ENDBRANCH  31   5
ENDBRANCH  20  23
ENDBRANCH  11  18
BRANCH  12  17
ATOM     17  C   UNL     1      11.929   9.284  18.088  0.00  0.00    +0.124 C 
BRANCH  17   7
ATOM      7  N   UNL     1      13.247   9.159  17.547  0.00  0.00    -0.193 NA
ATOM     34  H   UNL     1      13.835   8.457  18.016  0.00  0.00    +0.148 HD
BRANCH   7   1
ATOM      1  S   UNL     1      13.520   9.336  15.849  0.00  0.00    +0.029 S 
ATOM      2  O   UNL     1      12.314   9.848  15.228  0.00  0.00    -0.158 OA
ATOM      3  O   UNL     1      14.173   8.149  15.332  0.00  0.00    -0.158 OA
BRANCH   1  22
ATOM     22  C   UNL     1      14.726  10.642  15.862  0.00  0.00    +0.185 C 
BRANCH  22  24
ATOM     24  C   UNL     1      14.394  11.693  16.908  0.00  0.00    +0.021 C 
ATOM     28  C   UNL     1      15.446  11.738  18.003  0.00  0.00    +0.005 C 
ENDBRANCH  22  24
ENDBRANCH   1  22
ENDBRANCH   7   1
ENDBRANCH  17   7
ENDBRANCH  12  17
TORSDOF 9
ENDMDL
MODEL 3
REMARK VINA RESULT:      -5.9     24.323     26.782
REMARK  Name = 40776834
REMARK  13 active torsions:
REMARK  status: ('A' for Active; 'I' for Inactive)
REMARK    1  A    between atoms: S_1  and  N_7
REMARK    2  A    between atoms: S_1  and  C_22
REMARK    3  A    between atoms: O_4  and  C_29
REMARK    4  A    between atoms: O_4  and  C_32
REMARK    5  A    between atoms: O_5  and  C_31
REMARK    6  A    between atoms: O_5  and  C_33
REMARK    7  A    between atoms: N_7  and  C_17
REMARK    8  A    between atoms: C_11  and  C_18
REMARK    9  A    between atoms: C_12  and  C_17
REMARK   10  A    between atoms: C_20  and  C_23
REMARK   11  A    between atoms: C_21  and  C_25
REMARK   12  A    between atoms: C_22  and  C_24
REMARK   13  A    between atoms: C_24  and  C_28
REMARK                            x       y       z     vdW  Elec       q    Type
REMARK                         _______ _______ _______ _____ _____    ______ ____
ROOT
ATOM      6  N   UNL     1      -7.489 -11.739  17.780  0.00  0.00    -0.297 NA
ATOM     10  C   UNL     1      -5.065 -11.087  18.475  0.00  0.00    +0.002 C 
ATOM     11  C   UNL     1      -5.442 -10.419  17.123  0.00  0.00    +0.055 C 
ATOM     12  C   UNL     1      -6.716 -12.959  18.137  0.00  0.00    +0.072 C 
ATOM     13  C   UNL     1      -5.226 -12.616  18.350  0.00  0.00    +0.024 C 
ATOM     14  C   UNL     1      -6.100 -10.605  19.513  0.00  0.00    +0.019 C 
ATOM     15  C   UNL     1      -6.810 -11.011  16.679  0.00  0.00    +0.094 C 
ATOM     16  C   UNL     1      -7.517 -10.856  18.971  0.00  0.00    +0.085 C 
ENDROOT
BRANCH  11  18
ATOM      8  N   UNL     1      -3.120 -10.539  16.367  0.00  0.00    -0.237 NA
ATOM      9  N   UNL     1      -2.524 -10.471  14.032  0.00  0.00    -0.232 NA
ATOM     18  C   UNL     1      -4.414 -10.436  16.001  0.00  0.00    +0.050 A 
ATOM     19  C   UNL     1      -4.835 -10.347  14.690  0.00  0.00    +0.052 A 
ATOM     20  C   UNL     1      -3.836 -10.370  13.739  0.00  0.00    +0.075 A 
ATOM     21  C   UNL     1      -2.240 -10.550  15.346  0.00  0.00    +0.127 A 
ATOM     25  C   UNL     1      -0.799 -10.660  15.711  0.00  0.00    +0.088 C 
BRANCH  20  23
ATOM     23  C   UNL     1      -4.145 -10.283  12.331  0.00  0.00    +0.004 A 
ATOM     26  C   UNL     1      -5.474 -10.299  11.907  0.00  0.00    +0.059 A 
ATOM     27  C   UNL     1      -3.115 -10.180  11.395  0.00  0.00    +0.014 A 
ATOM     29  C   UNL     1      -5.774 -10.214  10.547  0.00  0.00    +0.162 A 
ATOM     30  C   UNL     1      -3.415 -10.095  10.035  0.00  0.00    +0.050 A 
ATOM     31  C   UNL     1      -4.744 -10.112   9.612  0.00  0.00    +0.162 A 
BRANCH  29   4
ATOM      4  O   UNL     1      -7.075 -10.229  10.145  0.00  0.00    -0.491 OA
ATOM     32  C   UNL     1      -7.786  -8.995  10.207  0.00  0.00    +0.277 C 
ENDBRANCH  29   4
BRANCH  31   5
ATOM      5  O   UNL     1      -5.024 -10.027   8.281  0.00  0.00    -0.491 OA
ATOM     33  C   UNL     1      -4.863 -11.216   7.508  0.00  0.00    +0.277 C 
ENDBRANCH  31   5
ENDBRANCH  20  23
ENDBRANCH  11  18
BRANCH  12  17
ATOM     17  C   UNL     1      -6.902 -14.085  17.117  0.00  0.00    +0.124 C 
BRANCH  17   7
ATOM      7  N   UNL     1      -5.863 -15.060  17.239  0.00  0.00    -0.193 NA
ATOM     34  H   UNL     1      -6.041 -15.786  17.945  0.00  0.00    +0.148 HD
BRANCH   7   1
ATOM      1  S   UNL     1      -4.983 -15.583  15.846  0.00  0.00    +0.029 S 
ATOM      2  O   UNL     1      -5.887 -16.278  14.950  0.00  0.00    -0.158 OA
ATOM      3  O   UNL     1      -3.733 -16.192  16.257  0.00  0.00    -0.158 OA
BRANCH   1  22
ATOM     22  C   UNL     1      -4.592 -14.010  15.115  0.00  0.00    +0.185 C 
BRANCH  22  24
ATOM     24  C   UNL     1      -4.887 -14.002  13.625  0.00  0.00    +0.021 C 
ATOM     28  C   UNL     1      -3.610 -14.052  12.805  0.00  0.00    +0.005 C 
ENDBRANCH  22  24
ENDBRANCH   1  22
ENDBRANCH   7   1
ENDBRANCH  17   7
ENDBRANCH  12  17
TORSDOF 9
ENDMDL
MODEL 4
REMARK VINA RESULT:      -5.8     15.837     19.563
REMARK  Name = 40776834
REMARK  13 active torsions:
REMARK  status: ('A' for Active; 'I' for Inactive)
REMARK    1  A    between atoms: S_1  and  N_7
REMARK    2  A    between atoms: S_1  and  C_22
REMARK    3  A    between atoms: O_4  and  C_29
REMARK    4  A    between atoms: O_4  and  C_32
REMARK    5  A    between atoms: O_5  and  C_31
REMARK    6  A    between atoms: O_5  and  C_33
REMARK    7  A    between atoms: N_7  and  C_17
REMARK    8  A    between atoms: C_11  and  C_18
REMARK    9  A    between atoms: C_12  and  C_17
REMARK   10  A    between atoms: C_20  and  C_23
REMARK   11  A    between atoms: C_21  and  C_25
REMARK   12  A    between atoms: C_22  and  C_24
REMARK   13  A    between atoms: C_24  and  C_28
REMARK                            x       y       z     vdW  Elec       q    Type
REMARK                         _______ _______ _______ _____ _____    ______ ____
ROOT
ATOM      6  N   UNL     1      15.046  11.503  20.340  0.00  0.00    -0.297 NA
ATOM     10  C   UNL     1      15.439   9.890  22.347  0.00  0.00    +0.002 C 
ATOM     11  C   UNL     1      16.666   9.881  21.393  0.00  0.00    +0.055 C 
ATOM     12  C   UNL     1      13.875  10.603  20.506  0.00  0.00    +0.072 C 
ATOM     13  C   UNL     1      14.173   9.508  21.552  0.00  0.00    +0.024 C 
ATOM     14  C   UNL     1      15.254  11.348  22.821  0.00  0.00    +0.019 C 
ATOM     15  C   UNL     1      16.277  10.702  20.130  0.00  0.00    +0.094 C 
ATOM     16  C   UNL     1      15.205  12.276  21.595  0.00  0.00    +0.085 C 
ENDROOT
BRANCH  11  18
ATOM      8  N   UNL     1      16.699   7.833  20.057  0.00  0.00    -0.237 NA
ATOM      9  N   UNL     1      18.371   6.125  20.366  0.00  0.00    -0.232 NA
ATOM     18  C   UNL     1      17.292   8.540  21.041  0.00  0.00    +0.050 A 
ATOM     19  C   UNL     1      18.412   8.111  21.724  0.00  0.00    +0.052 A 
ATOM     20  C   UNL     1      18.913   6.884  21.340  0.00  0.00    +0.075 A 
ATOM     21  C   UNL     1      17.281   6.651  19.775  0.00  0.00    +0.127 A 
ATOM     25  C   UNL     1      16.651   5.841  18.694  0.00  0.00    +0.088 C 
BRANCH  20  23
ATOM     23  C   UNL     1      20.080   6.322  21.978  0.00  0.00    +0.004 A 
ATOM     26  C   UNL     1      20.561   6.877  23.163  0.00  0.00    +0.059 A 
ATOM     27  C   UNL     1      20.724   5.223  21.410  0.00  0.00    +0.014 A 
ATOM     29  C   UNL     1      21.688   6.335  23.781  0.00  0.00    +0.162 A 
ATOM     30  C   UNL     1      21.852   4.680  22.027  0.00  0.00    +0.050 A 
ATOM     31  C   UNL     1      22.333   5.236  23.213  0.00  0.00    +0.162 A 
BRANCH  29   4
ATOM      4  O   UNL     1      22.148   6.884  24.939  0.00  0.00    -0.491 OA
ATOM     32  C   UNL     1      21.450   6.548  26.137  0.00  0.00    +0.277 C 
ENDBRANCH  29   4
BRANCH  31   5
ATOM      5  O   UNL     1      23.434   4.697  23.807  0.00  0.00    -0.491 OA
ATOM     33  C   UNL     1      24.447   4.179  22.946  0.00  0.00    +0.277 C 
ENDBRANCH  31   5
ENDBRANCH  20  23
ENDBRANCH  11  18
BRANCH  12  17
ATOM     17  C   UNL     1      13.404  10.009  19.176  0.00  0.00    +0.124 C 
BRANCH  17   7
ATOM      7  N   UNL     1      13.598   8.592  19.154  0.00  0.00    -0.193 NA
ATOM     34  H   UNL     1      14.332   8.253  19.790  0.00  0.00    +0.148 HD
BRANCH   7   1
ATOM      1  S   UNL     1      12.255   7.525  18.940  0.00  0.00    +0.029 S 
ATOM      2  O   UNL     1      12.468   6.332  19.736  0.00  0.00    -0.158 OA
ATOM      3  O   UNL     1      11.928   7.427  17.531  0.00  0.00    -0.158 OA
BRANCH   1  22
ATOM     22  C   UNL     1      10.972   8.480  19.718  0.00  0.00    +0.185 C 
BRANCH  22  24
ATOM     24  C   UNL     1      10.607   7.912  21.078  0.00  0.00    +0.021 C 
ATOM     28  C   UNL     1      10.653   8.981  22.157  0.00  0.00    +0.005 C 
ENDBRANCH  22  24
ENDBRANCH   1  22
ENDBRANCH   7   1
ENDBRANCH  17   7
ENDBRANCH  12  17
TORSDOF 9
ENDMDL
MODEL 5
REMARK VINA RESULT:      -5.7     17.068     19.502
REMARK  Name = 40776834
REMARK  13 active torsions:
REMARK  status: ('A' for Active; 'I' for Inactive)
REMARK    1  A    between atoms: S_1  and  N_7
REMARK    2  A    between atoms: S_1  and  C_22
REMARK    3  A    between atoms: O_4  and  C_29
REMARK    4  A    between atoms: O_4  and  C_32
REMARK    5  A    between atoms: O_5  and  C_31
REMARK    6  A    between atoms: O_5  and  C_33
REMARK    7  A    between atoms: N_7  and  C_17
REMARK    8  A    between atoms: C_11  and  C_18
REMARK    9  A    between atoms: C_12  and  C_17
REMARK   10  A    between atoms: C_20  and  C_23
REMARK   11  A    between atoms: C_21  and  C_25
REMARK   12  A    between atoms: C_22  and  C_24
REMARK   13  A    between atoms: C_24  and  C_28
REMARK                            x       y       z     vdW  Elec       q    Type
REMARK                         _______ _______ _______ _____ _____    ______ ____
ROOT
ATOM      6  N   UNL     1      12.125   8.409  21.432  0.00  0.00    -0.297 NA
ATOM     10  C   UNL     1      13.720   7.617  19.531  0.00  0.00    +0.002 C 
ATOM     11  C   UNL     1      14.407   7.465  20.917  0.00  0.00    +0.055 C 
ATOM     12  C   UNL     1      12.196   9.442  20.365  0.00  0.00    +0.072 C 
ATOM     13  C   UNL     1      13.289   9.086  19.334  0.00  0.00    +0.024 C 
ATOM     14  C   UNL     1      12.431   6.769  19.579  0.00  0.00    +0.019 C 
ATOM     15  C   UNL     1      13.482   8.140  21.970  0.00  0.00    +0.094 C 
ATOM     16  C   UNL     1      11.613   7.159  20.821  0.00  0.00    +0.085 C 
ENDROOT
BRANCH  11  18
ATOM      8  N   UNL     1      16.086   9.238  21.053  0.00  0.00    -0.237 NA
ATOM      9  N   UNL     1      18.437   8.763  21.292  0.00  0.00    -0.232 NA
ATOM     18  C   UNL     1      15.856   7.909  21.053  0.00  0.00    +0.050 A 
ATOM     19  C   UNL     1      16.851   6.959  21.167  0.00  0.00    +0.052 A 
ATOM     20  C   UNL     1      18.135   7.449  21.285  0.00  0.00    +0.075 A 
ATOM     21  C   UNL     1      17.381   9.590  21.174  0.00  0.00    +0.127 A 
ATOM     25  C   UNL     1      17.675  11.052  21.176  0.00  0.00    +0.088 C 
BRANCH  20  23
ATOM     23  C   UNL     1      19.265   6.559  21.409  0.00  0.00    +0.004 A 
ATOM     26  C   UNL     1      20.001   6.527  22.594  0.00  0.00    +0.059 A 
ATOM     27  C   UNL     1      19.620   5.730  20.345  0.00  0.00    +0.014 A 
ATOM     29  C   UNL     1      21.092   5.667  22.716  0.00  0.00    +0.162 A 
ATOM     30  C   UNL     1      20.712   4.869  20.466  0.00  0.00    +0.050 A 
ATOM     31  C   UNL     1      21.447   4.838  21.651  0.00  0.00    +0.162 A 
BRANCH  29   4
ATOM      4  O   UNL     1      21.801   5.643  23.878  0.00  0.00    -0.491 OA
ATOM     32  C   UNL     1      22.617   6.778  24.162  0.00  0.00    +0.277 C 
ENDBRANCH  29   4
BRANCH  31   5
ATOM      5  O   UNL     1      22.511   3.993  21.758  0.00  0.00    -0.491 OA
ATOM     33  C   UNL     1      23.561   4.151  20.805  0.00  0.00    +0.277 C 
ENDBRANCH  31   5
ENDBRANCH  20  23
ENDBRANCH  11  18
BRANCH  12  17
ATOM     17  C   UNL     1      12.382  10.852  20.929  0.00  0.00    +0.124 C 
BRANCH  17   7
ATOM      7  N   UNL     1      11.287  11.210  21.778  0.00  0.00    -0.193 NA
ATOM     34  H   UNL     1      10.445  10.633  21.653  0.00  0.00    +0.148 HD
BRANCH   7   1
ATOM      1  S   UNL     1      11.571  11.763  23.391  0.00  0.00    +0.029 S 
ATOM      2  O   UNL     1      12.916  11.395  23.786  0.00  0.00    -0.158 OA
ATOM      3  O   UNL     1      10.435  11.429  24.229  0.00  0.00    -0.158 OA
BRANCH   1  22
ATOM     22  C   UNL     1      11.538  13.521  23.128  0.00  0.00    +0.185 C 
BRANCH  22  24
ATOM     24  C   UNL     1      10.686  14.222  24.172  0.00  0.00    +0.021 C 
ATOM     28  C   UNL     1       9.480  14.897  23.542  0.00  0.00    +0.005 C 
ENDBRANCH  22  24
ENDBRANCH   1  22
ENDBRANCH   7   1
ENDBRANCH  17   7
ENDBRANCH  12  17
TORSDOF 9
ENDMDL
MODEL 6
REMARK VINA RESULT:      -5.7     24.412     27.422
REMARK  Name = 40776834
REMARK  13 active torsions:
REMARK  status: ('A' for Active; 'I' for Inactive)
REMARK    1  A    between atoms: S_1  and  N_7
REMARK    2  A    between atoms: S_1  and  C_22
REMARK    3  A    between atoms: O_4  and  C_29
REMARK    4  A    between atoms: O_4  and  C_32
REMARK    5  A    between atoms: O_5  and  C_31
REMARK    6  A    between atoms: O_5  and  C_33
REMARK    7  A    between atoms: N_7  and  C_17
REMARK    8  A    between atoms: C_11  and  C_18
REMARK    9  A    between atoms: C_12  and  C_17
REMARK   10  A    between atoms: C_20  and  C_23
REMARK   11  A    between atoms: C_21  and  C_25
REMARK   12  A    between atoms: C_22  and  C_24
REMARK   13  A    between atoms: C_24  and  C_28
REMARK                            x       y       z     vdW  Elec       q    Type
REMARK                         _______ _______ _______ _____ _____    ______ ____
ROOT
ATOM      6  N   UNL     1      -3.453 -11.682  10.251  0.00  0.00    -0.297 NA
ATOM     10  C   UNL     1      -5.456 -11.018  11.779  0.00  0.00    +0.002 C 
ATOM     11  C   UNL     1      -4.134 -10.400  12.314  0.00  0.00    +0.055 C 
ATOM     12  C   UNL     1      -4.237 -12.891  10.616  0.00  0.00    +0.072 C 
ATOM     13  C   UNL     1      -5.300 -12.550  11.683  0.00  0.00    +0.024 C 
ATOM     14  C   UNL     1      -5.642 -10.490  10.340  0.00  0.00    +0.019 C 
ATOM     15  C   UNL     1      -2.969 -11.001  11.477  0.00  0.00    +0.094 C 
ATOM     16  C   UNL     1      -4.360 -10.754   9.533  0.00  0.00    +0.085 C 
ENDROOT
BRANCH  11  18
ATOM      8  N   UNL     1      -2.571 -10.461  14.195  0.00  0.00    -0.237 NA
ATOM      9  N   UNL     1      -3.319 -10.585  16.482  0.00  0.00    -0.232 NA
ATOM     18  C   UNL     1      -3.864 -10.467  13.811  0.00  0.00    +0.050 A 
ATOM     19  C   UNL     1      -4.925 -10.529  14.691  0.00  0.00    +0.052 A 
ATOM     20  C   UNL     1      -4.589 -10.587  16.028  0.00  0.00    +0.075 A 
ATOM     21  C   UNL     1      -2.373 -10.522  15.526  0.00  0.00    +0.127 A 
ATOM     25  C   UNL     1      -0.956 -10.520  15.989  0.00  0.00    +0.088 C 
BRANCH  20  23
ATOM     23  C   UNL     1      -5.606 -10.657  17.050  0.00  0.00    +0.004 A 
ATOM     26  C   UNL     1      -6.856 -10.076  16.832  0.00  0.00    +0.059 A 
ATOM     27  C   UNL     1      -5.341 -11.307  18.256  0.00  0.00    +0.014 A 
ATOM     29  C   UNL     1      -7.839 -10.144  17.818  0.00  0.00    +0.162 A 
ATOM     30  C   UNL     1      -6.325 -11.376  19.243  0.00  0.00    +0.050 A 
ATOM     31  C   UNL     1      -7.574 -10.794  19.023  0.00  0.00    +0.162 A 
BRANCH  29   4
ATOM      4  O   UNL     1      -9.056  -9.575  17.593  0.00  0.00    -0.491 OA
ATOM     32  C   UNL     1      -9.099  -8.481  16.679  0.00  0.00    +0.277 C 
ENDBRANCH  29   4
BRANCH  31   5
ATOM      5  O   UNL     1      -8.527 -10.868  19.994  0.00  0.00    -0.491 OA
ATOM     33  C   UNL     1      -9.423 -11.977  19.939  0.00  0.00    +0.277 C 
ENDBRANCH  31   5
ENDBRANCH  20  23
ENDBRANCH  11  18
BRANCH  12  17
ATOM     17  C   UNL     1      -3.344 -14.055  11.053  0.00  0.00    +0.124 C 
BRANCH  17   7
ATOM      7  N   UNL     1      -3.724 -14.532  12.346  0.00  0.00    -0.193 NA
ATOM     34  H   UNL     1      -4.224 -15.431  12.338  0.00  0.00    +0.148 HD
BRANCH   7   1
ATOM      1  S   UNL     1      -2.701 -14.269  13.715  0.00  0.00    +0.029 S 
ATOM      2  O   UNL     1      -3.507 -13.801  14.824  0.00  0.00    -0.158 OA
ATOM      3  O   UNL     1      -1.513 -13.545  13.305  0.00  0.00    -0.158 OA
BRANCH   1  22
ATOM     22  C   UNL     1      -2.209 -15.941  14.062  0.00  0.00    +0.185 C 
BRANCH  22  24
ATOM     24  C   UNL     1      -2.149 -16.776  12.795  0.00  0.00    +0.021 C 
ATOM     28  C   UNL     1      -0.748 -16.797  12.208  0.00  0.00    +0.005 C 
ENDBRANCH  22  24
ENDBRANCH   1  22
ENDBRANCH   7   1
ENDBRANCH  17   7
ENDBRANCH  12  17
TORSDOF 9
ENDMDL
MODEL 7
REMARK VINA RESULT:      -5.7     16.930     19.574
REMARK  Name = 40776834
REMARK  13 active torsions:
REMARK  status: ('A' for Active; 'I' for Inactive)
REMARK    1  A    between atoms: S_1  and  N_7
REMARK    2  A    between atoms: S_1  and  C_22
REMARK    3  A    between atoms: O_4  and  C_29
REMARK    4  A    between atoms: O_4  and  C_32
REMARK    5  A    between atoms: O_5  and  C_31
REMARK    6  A    between atoms: O_5  and  C_33
REMARK    7  A    between atoms: N_7  and  C_17
REMARK    8  A    between atoms: C_11  and  C_18
REMARK    9  A    between atoms: C_12  and  C_17
REMARK   10  A    between atoms: C_20  and  C_23
REMARK   11  A    between atoms: C_21  and  C_25
REMARK   12  A    between atoms: C_22  and  C_24
REMARK   13  A    between atoms: C_24  and  C_28
REMARK                            x       y       z     vdW  Elec       q    Type
REMARK                         _______ _______ _______ _____ _____    ______ ____
ROOT
ATOM      6  N   UNL     1      13.570   7.950  21.516  0.00  0.00    -0.297 NA
ATOM     10  C   UNL     1      15.172   7.783  19.468  0.00  0.00    +0.002 C 
ATOM     11  C   UNL     1      15.857   7.217  20.743  0.00  0.00    +0.055 C 
ATOM     12  C   UNL     1      13.638   9.260  20.815  0.00  0.00    +0.072 C 
ATOM     13  C   UNL     1      14.735   9.240  19.728  0.00  0.00    +0.024 C 
ATOM     14  C   UNL     1      13.887   6.956  19.250  0.00  0.00    +0.019 C 
ATOM     15  C   UNL     1      14.927   7.535  21.949  0.00  0.00    +0.094 C 
ATOM     16  C   UNL     1      13.065   6.945  20.550  0.00  0.00    +0.085 C 
ENDROOT
BRANCH  11  18
ATOM      8  N   UNL     1      17.527   8.865  21.435  0.00  0.00    -0.237 NA
ATOM      9  N   UNL     1      19.881   8.354  21.510  0.00  0.00    -0.232 NA
ATOM     18  C   UNL     1      17.304   7.604  21.012  0.00  0.00    +0.050 A 
ATOM     19  C   UNL     1      18.305   6.673  20.818  0.00  0.00    +0.052 A 
ATOM     20  C   UNL     1      19.586   7.108  21.086  0.00  0.00    +0.075 A 
ATOM     21  C   UNL     1      18.820   9.169  21.662  0.00  0.00    +0.127 A 
ATOM     25  C   UNL     1      19.105  10.556  22.128  0.00  0.00    +0.088 C 
BRANCH  20  23
ATOM     23  C   UNL     1      20.721   6.232  20.920  0.00  0.00    +0.004 A 
ATOM     26  C   UNL     1      21.994   6.769  20.724  0.00  0.00    +0.059 A 
ATOM     27  C   UNL     1      20.546   4.848  20.956  0.00  0.00    +0.014 A 
ATOM     29  C   UNL     1      23.091   5.923  20.564  0.00  0.00    +0.162 A 
ATOM     30  C   UNL     1      21.644   4.002  20.796  0.00  0.00    +0.050 A 
ATOM     31  C   UNL     1      22.916   4.540  20.600  0.00  0.00    +0.162 A 
BRANCH  29   4
ATOM      4  O   UNL     1      24.330   6.459  20.376  0.00  0.00    -0.491 OA
ATOM     32  C   UNL     1      24.992   6.978  21.527  0.00  0.00    +0.277 C 
ENDBRANCH  29   4
BRANCH  31   5
ATOM      5  O   UNL     1      23.980   3.703  20.446  0.00  0.00    -0.491 OA
ATOM     33  C   UNL     1      23.781   2.332  20.787  0.00  0.00    +0.277 C 
ENDBRANCH  31   5
ENDBRANCH  20  23
ENDBRANCH  11  18
BRANCH  12  17
ATOM     17  C   UNL     1      13.817  10.431  21.784  0.00  0.00    +0.124 C 
BRANCH  17   7
ATOM      7  N   UNL     1      12.943  10.299  22.909  0.00  0.00    -0.193 NA
ATOM     34  H   UNL     1      13.371  10.545  23.812  0.00  0.00    +0.148 HD
BRANCH   7   1
ATOM      1  S   UNL     1      11.262  10.672  22.764  0.00  0.00    +0.029 S 
ATOM      2  O   UNL     1      10.534   9.458  22.448  0.00  0.00    -0.158 OA
ATOM      3  O   UNL     1      11.093  11.867  21.959  0.00  0.00    -0.158 OA
BRANCH   1  22
ATOM     22  C   UNL     1      10.893  11.109  24.447  0.00  0.00    +0.185 C 
BRANCH  22  24
ATOM     24  C   UNL     1      10.639  12.600  24.590  0.00  0.00    +0.021 C 
ATOM     28  C   UNL     1      11.777  13.290  25.322  0.00  0.00    +0.005 C 
ENDBRANCH  22  24
ENDBRANCH   1  22
ENDBRANCH   7   1
ENDBRANCH  17   7
ENDBRANCH  12  17
TORSDOF 9
ENDMDL
MODEL 8
REMARK VINA RESULT:      -5.6      1.919      3.589
REMARK  Name = 40776834
REMARK  13 active torsions:
REMARK  status: ('A' for Active; 'I' for Inactive)
REMARK    1  A    between atoms: S_1  and  N_7
REMARK    2  A    between atoms: S_1  and  C_22
REMARK    3  A    between atoms: O_4  and  C_29
REMARK    4  A    between atoms: O_4  and  C_32
REMARK    5  A    between atoms: O_5  and  C_31
REMARK    6  A    between atoms: O_5  and  C_33
REMARK    7  A    between atoms: N_7  and  C_17
REMARK    8  A    between atoms: C_11  and  C_18
REMARK    9  A    between atoms: C_12  and  C_17
REMARK   10  A    between atoms: C_20  and  C_23
REMARK   11  A    between atoms: C_21  and  C_25
REMARK   12  A    between atoms: C_22  and  C_24
REMARK   13  A    between atoms: C_24  and  C_28
REMARK                            x       y       z     vdW  Elec       q    Type
REMARK                         _______ _______ _______ _____ _____    ______ ____
ROOT
ATOM      6  N   UNL     1       7.908  10.454   5.230  0.00  0.00    -0.297 NA
ATOM     10  C   UNL     1       8.352   9.305   2.935  0.00  0.00    +0.002 C 
ATOM     11  C   UNL     1       8.022   8.243   4.021  0.00  0.00    +0.055 C 
ATOM     12  C   UNL     1       9.180  10.957   4.646  0.00  0.00    +0.072 C 
ATOM     13  C   UNL     1       9.565  10.142   3.393  0.00  0.00    +0.024 C 
ATOM     14  C   UNL     1       7.142  10.260   2.864  0.00  0.00    +0.019 C 
ATOM     15  C   UNL     1       7.971   8.980   5.389  0.00  0.00    +0.094 C 
ATOM     16  C   UNL     1       6.816  10.771   4.278  0.00  0.00    +0.085 C 
ENDROOT
BRANCH  11  18
ATOM      8  N   UNL     1       8.996   6.385   5.278  0.00  0.00    -0.237 NA
ATOM      9  N   UNL     1      10.387   4.717   4.233  0.00  0.00    -0.232 NA
ATOM     18  C   UNL     1       8.872   6.982   4.075  0.00  0.00    +0.050 A 
ATOM     19  C   UNL     1       9.468   6.512   2.922  0.00  0.00    +0.052 A 
ATOM     20  C   UNL     1      10.220   5.365   3.062  0.00  0.00    +0.075 A 
ATOM     21  C   UNL     1       9.757   5.273   5.285  0.00  0.00    +0.127 A 
ATOM     25  C   UNL     1       9.919   4.587   6.599  0.00  0.00    +0.088 C 
BRANCH  20  23
ATOM     23  C   UNL     1      10.896   4.773   1.932  0.00  0.00    +0.004 A 
ATOM     26  C   UNL     1      12.105   4.101   2.116  0.00  0.00    +0.059 A 
ATOM     27  C   UNL     1      10.340   4.872   0.656  0.00  0.00    +0.014 A 
ATOM     29  C   UNL     1      12.758   3.529   1.026  0.00  0.00    +0.162 A 
ATOM     30  C   UNL     1      10.994   4.299  -0.435  0.00  0.00    +0.050 A 
ATOM     31  C   UNL     1      12.203   3.628  -0.250  0.00  0.00    +0.162 A 
BRANCH  29   4
ATOM      4  O   UNL     1      13.937   2.873   1.217  0.00  0.00    -0.491 OA
ATOM     32  C   UNL     1      15.036   3.645   1.697  0.00  0.00    +0.277 C 
ENDBRANCH  29   4
BRANCH  31   5
ATOM      5  O   UNL     1      12.831   3.072  -1.324  0.00  0.00    -0.491 OA
ATOM     33  C   UNL     1      12.042   2.251  -2.183  0.00  0.00    +0.277 C 
ENDBRANCH  31   5
ENDBRANCH  20  23
ENDBRANCH  11  18
BRANCH  12  17
ATOM     17  C   UNL     1      10.316  10.997   5.671  0.00  0.00    +0.124 C 
BRANCH  17   7
ATOM      7  N   UNL     1      11.314  10.019   5.365  0.00  0.00    -0.193 NA
ATOM     34  H   UNL     1      12.012  10.326   4.674  0.00  0.00    +0.148 HD
BRANCH   7   1
ATOM      1  S   UNL     1      11.906   8.955   6.592  0.00  0.00    +0.029 S 
ATOM      2  O   UNL     1      10.786   8.456   7.364  0.00  0.00    -0.158 OA
ATOM      3  O   UNL     1      13.051   9.556   7.249  0.00  0.00    -0.158 OA
BRANCH   1  22
ATOM     22  C   UNL     1      12.512   7.623   5.582  0.00  0.00    +0.185 C 
BRANCH  22  24
ATOM     24  C   UNL     1      12.552   8.014   4.115  0.00  0.00    +0.021 C 
ATOM     28  C   UNL     1      13.605   7.223   3.357  0.00  0.00    +0.005 C 
ENDBRANCH  22  24
ENDBRANCH   1  22
ENDBRANCH   7   1
ENDBRANCH  17   7
ENDBRANCH  12  17
TORSDOF 9
ENDMDL
MODEL 9
REMARK VINA RESULT:      -5.6      3.153      4.479
REMARK  Name = 40776834
REMARK  13 active torsions:
REMARK  status: ('A' for Active; 'I' for Inactive)
REMARK    1  A    between atoms: S_1  and  N_7
REMARK    2  A    between atoms: S_1  and  C_22
REMARK    3  A    between atoms: O_4  and  C_29
REMARK    4  A    between atoms: O_4  and  C_32
REMARK    5  A    between atoms: O_5  and  C_31
REMARK    6  A    between atoms: O_5  and  C_33
REMARK    7  A    between atoms: N_7  and  C_17
REMARK    8  A    between atoms: C_11  and  C_18
REMARK    9  A    between atoms: C_12  and  C_17
REMARK   10  A    between atoms: C_20  and  C_23
REMARK   11  A    between atoms: C_21  and  C_25
REMARK   12  A    between atoms: C_22  and  C_24
REMARK   13  A    between atoms: C_24  and  C_28
REMARK                            x       y       z     vdW  Elec       q    Type
REMARK                         _______ _______ _______ _____ _____    ______ ____
ROOT
ATOM      6  N   UNL     1       9.758   7.620   7.225  0.00  0.00    -0.297 NA
ATOM     10  C   UNL     1       9.788   5.554   5.640  0.00  0.00    +0.002 C 
ATOM     11  C   UNL     1      11.153   6.295   5.594  0.00  0.00    +0.055 C 
ATOM     12  C   UNL     1       8.557   7.634   6.348  0.00  0.00    +0.072 C 
ATOM     13  C   UNL     1       8.660   6.538   5.265  0.00  0.00    +0.024 C 
ATOM     14  C   UNL     1       9.558   5.137   7.108  0.00  0.00    +0.019 C 
ATOM     15  C   UNL     1      10.991   7.616   6.399  0.00  0.00    +0.094 C 
ATOM     16  C   UNL     1       9.726   6.367   8.016  0.00  0.00    +0.085 C 
ENDROOT
BRANCH  11  18
ATOM      8  N   UNL     1      12.540   7.643   4.097  0.00  0.00    -0.237 NA
ATOM      9  N   UNL     1      12.989   6.984   1.822  0.00  0.00    -0.232 NA
ATOM     18  C   UNL     1      11.802   6.523   4.236  0.00  0.00    +0.050 A 
ATOM     19  C   UNL     1      11.613   5.599   3.228  0.00  0.00    +0.052 A 
ATOM     20  C   UNL     1      12.237   5.884   2.031  0.00  0.00    +0.075 A 
ATOM     21  C   UNL     1      13.097   7.809   2.881  0.00  0.00    +0.127 A 
ATOM     25  C   UNL     1      13.919   9.038   2.688  0.00  0.00    +0.088 C 
BRANCH  20  23
ATOM     23  C   UNL     1      12.117   4.999   0.898  0.00  0.00    +0.004 A 
ATOM     26  C   UNL     1      10.978   5.047   0.093  0.00  0.00    +0.059 A 
ATOM     27  C   UNL     1      13.139   4.096   0.606  0.00  0.00    +0.014 A 
ATOM     29  C   UNL     1      10.860   4.192  -1.002  0.00  0.00    +0.162 A 
ATOM     30  C   UNL     1      13.022   3.240  -0.491  0.00  0.00    +0.050 A 
ATOM     31  C   UNL     1      11.883   3.289  -1.294  0.00  0.00    +0.162 A 
BRANCH  29   4
ATOM      4  O   UNL     1       9.745   4.249  -1.782  0.00  0.00    -0.491 OA
ATOM     32  C   UNL     1       9.284   5.545  -2.158  0.00  0.00    +0.277 C 
ENDBRANCH  29   4
BRANCH  31   5
ATOM      5  O   UNL     1      11.780   2.450  -2.362  0.00  0.00    -0.491 OA
ATOM     33  C   UNL     1      12.567   2.763  -3.511  0.00  0.00    +0.277 C 
ENDBRANCH  31   5
ENDBRANCH  20  23
ENDBRANCH  11  18
BRANCH  12  17
ATOM     17  C   UNL     1       8.297   9.014   5.739  0.00  0.00    +0.124 C 
BRANCH  17   7
ATOM      7  N   UNL     1       7.052   9.035   5.035  0.00  0.00    -0.193 NA
ATOM     34  H   UNL     1       6.254   8.670   5.571  0.00  0.00    +0.148 HD
BRANCH   7   1
ATOM      1  S   UNL     1       6.682  10.323   3.943  0.00  0.00    +0.029 S 
ATOM      2  O   UNL     1       6.730  11.580   4.663  0.00  0.00    -0.158 OA
ATOM      3  O   UNL     1       5.524   9.970   3.145  0.00  0.00    -0.158 OA
BRANCH   1  22
ATOM     22  C   UNL     1       8.104  10.247   2.879  0.00  0.00    +0.185 C 
BRANCH  22  24
ATOM     24  C   UNL     1       8.009   9.081   1.910  0.00  0.00    +0.021 C 
ATOM     28  C   UNL     1       9.224   8.174   2.011  0.00  0.00    +0.005 C 
ENDBRANCH  22  24
ENDBRANCH   1  22
ENDBRANCH   7   1
ENDBRANCH  17   7
ENDBRANCH  12  17
TORSDOF 9
ENDMDL
MODEL 10
REMARK VINA RESULT:      -5.6     14.568     18.677
REMARK  Name = 40776834
REMARK  13 active torsions:
REMARK  status: ('A' for Active; 'I' for Inactive)
REMARK    1  A    between atoms: S_1  and  N_7
REMARK    2  A    between atoms: S_1  and  C_22
REMARK    3  A    between atoms: O_4  and  C_29
REMARK    4  A    between atoms: O_4  and  C_32
REMARK    5  A    between atoms: O_5  and  C_31
REMARK    6  A    between atoms: O_5  and  C_33
REMARK    7  A    between atoms: N_7  and  C_17
REMARK    8  A    between atoms: C_11  and  C_18
REMARK    9  A    between atoms: C_12  and  C_17
REMARK   10  A    between atoms: C_20  and  C_23
REMARK   11  A    between atoms: C_21  and  C_25
REMARK   12  A    between atoms: C_22  and  C_24
REMARK   13  A    between atoms: C_24  and  C_28
REMARK                            x       y       z     vdW  Elec       q    Type
REMARK                         _______ _______ _______ _____ _____    ______ ____
ROOT
ATOM      6  N   UNL     1      13.775  10.139  20.427  0.00  0.00    -0.297 NA
ATOM     10  C   UNL     1      15.047   8.981  22.383  0.00  0.00    +0.002 C 
ATOM     11  C   UNL     1      15.982   9.157  21.154  0.00  0.00    +0.055 C 
ATOM     12  C   UNL     1      12.976   8.999  20.949  0.00  0.00    +0.072 C 
ATOM     13  C   UNL     1      13.799   8.176  21.964  0.00  0.00    +0.024 C 
ATOM     14  C   UNL     1      14.564  10.393  22.780  0.00  0.00    +0.019 C 
ATOM     15  C   UNL     1      15.105   9.663  19.973  0.00  0.00    +0.094 C 
ATOM     16  C   UNL     1      13.981  11.095  21.541  0.00  0.00    +0.085 C 
ENDROOT
BRANCH  11  18
ATOM      8  N   UNL     1      16.494   7.283  19.668  0.00  0.00    -0.237 NA
ATOM      9  N   UNL     1      18.425   5.878  19.991  0.00  0.00    -0.232 NA
ATOM     18  C   UNL     1      16.870   7.987  20.755  0.00  0.00    +0.050 A 
ATOM     19  C   UNL     1      17.995   7.701  21.501  0.00  0.00    +0.052 A 
ATOM     20  C   UNL     1      18.742   6.625  21.068  0.00  0.00    +0.075 A 
ATOM     21  C   UNL     1      17.305   6.256  19.346  0.00  0.00    +0.127 A 
ATOM     25  C   UNL     1      16.919   5.453  18.151  0.00  0.00    +0.088 C 
BRANCH  20  23
ATOM     23  C   UNL     1      19.941   6.221  21.763  0.00  0.00    +0.004 A 
ATOM     26  C   UNL     1      20.779   5.255  21.205  0.00  0.00    +0.059 A 
ATOM     27  C   UNL     1      20.262   6.797  22.993  0.00  0.00    +0.014 A 
ATOM     29  C   UNL     1      21.937   4.864  21.876  0.00  0.00    +0.162 A 
ATOM     30  C   UNL     1      21.422   6.407  23.664  0.00  0.00    +0.050 A 
ATOM     31  C   UNL     1      22.259   5.441  23.105  0.00  0.00    +0.162 A 
BRANCH  29   4
ATOM      4  O   UNL     1      22.749   3.922  21.320  0.00  0.00    -0.491 OA
ATOM     32  C   UNL     1      23.789   4.388  20.463  0.00  0.00    +0.277 C 
ENDBRANCH  29   4
BRANCH  31   5
ATOM      5  O   UNL     1      23.388   5.068  23.769  0.00  0.00    -0.491 OA
ATOM     33  C   UNL     1      24.451   6.019  23.825  0.00  0.00    +0.277 C 
ENDBRANCH  31   5
ENDBRANCH  20  23
ENDBRANCH  11  18
BRANCH  12  17
ATOM     17  C   UNL     1      12.412   8.122  19.828  0.00  0.00    +0.124 C 
BRANCH  17   7
ATOM      7  N   UNL     1      12.130   8.902  18.663  0.00  0.00    -0.193 NA
ATOM     34  H   UNL     1      12.440   9.881  18.721  0.00  0.00    +0.148 HD
BRANCH   7   1
ATOM      1  S   UNL     1      12.215   8.192  17.089  0.00  0.00    +0.029 S 
ATOM      2  O   UNL     1      10.901   7.703  16.720  0.00  0.00    -0.158 OA
ATOM      3  O   UNL     1      13.378   7.329  17.004  0.00  0.00    -0.158 OA
BRANCH   1  22
ATOM     22  C   UNL     1      12.555   9.639  16.113  0.00  0.00    +0.185 C 
BRANCH  22  24
ATOM     24  C   UNL     1      13.446  10.615  16.861  0.00  0.00    +0.021 C 
ATOM     28  C   UNL     1      14.873  10.576  16.341  0.00  0.00    +0.005 C 
ENDBRANCH  22  24
ENDBRANCH   1  22
ENDBRANCH   7   1
ENDBRANCH  17   7
ENDBRANCH  12  17
TORSDOF 9
ENDMDL
