MODEL 1
REMARK VINA RESULT:      -7.6      0.000      0.000
REMARK  Name = 75367001
REMARK  9 active torsions:
REMARK  status: ('A' for Active; 'I' for Inactive)
REMARK    1  A    between atoms: O_3  and  C_12
REMARK    2  A    between atoms: O_6  and  C_21
REMARK    3  A    between atoms: O_6  and  C_25
REMARK    4  A    between atoms: N_7  and  C_16
REMARK    5  A    between atoms: N_9  and  C_22
REMARK    6  A    between atoms: C_10  and  C_15
REMARK    7  A    between atoms: C_11  and  C_16
REMARK    8  A    between atoms: C_15  and  C_17
REMARK    9  A    between atoms: C_20  and  C_21
REMARK                            x       y       z     vdW  Elec       q    Type
REMARK                         _______ _______ _______ _____ _____    ______ ____
ROOT
ATOM      2  O   UNL     1      12.410  10.537  21.974  0.00  0.00    -0.369 OA
ATOM     10  C   UNL     1      11.477  10.170  22.995  0.00  0.00    +0.125 C 
ATOM     11  C   UNL     1      13.428  11.460  22.381  0.00  0.00    +0.164 C 
ATOM     12  C   UNL     1      12.819  12.735  22.979  0.00  0.00    +0.145 C 
ATOM     13  C   UNL     1      10.759  11.405  23.537  0.00  0.00    +0.034 C 
ATOM     14  C   UNL     1      11.766  12.435  24.042  0.00  0.00    +0.036 C 
ENDROOT
BRANCH  12   3
ATOM      3  O   UNL     1      12.183  13.475  21.933  0.00  0.00    -0.389 OA
ATOM     34  H   UNL     1      12.106  14.398  22.229  0.00  0.00    +0.210 HD
ENDBRANCH  12   3
BRANCH  10  15
ATOM     15  C   UNL     1      10.484   9.192  22.379  0.00  0.00    +0.090 C 
BRANCH  15  17
ATOM      4  O   UNL     1      12.037   6.745  20.236  0.00  0.00    -0.356 OA
ATOM      8  N   UNL     1      11.542   7.168  21.465  0.00  0.00    -0.083 NA
ATOM     17  C   UNL     1      11.100   8.410  21.250  0.00  0.00    +0.086 A 
ATOM     18  C   UNL     1      11.287   8.821  19.918  0.00  0.00    +0.074 A 
ATOM     20  C   UNL     1      11.879   7.737  19.324  0.00  0.00    +0.175 A 
BRANCH  20  21
ATOM     21  C   UNL     1      12.351   7.457  17.963  0.00  0.00    +0.306 C 
BRANCH  21   6
ATOM      6  O   UNL     1      13.741   7.774  17.845  0.00  0.00    -0.484 OA
BRANCH   6  25
ATOM     25  C   UNL     1      14.043   9.037  17.415  0.00  0.00    +0.121 A 
ATOM     28  C   UNL     1      14.695   9.926  18.269  0.00  0.00    +0.045 A 
ATOM     29  C   UNL     1      13.698   9.435  16.124  0.00  0.00    +0.045 A 
ATOM     31  C   UNL     1      15.003  11.214  17.832  0.00  0.00    +0.004 A 
ATOM     32  C   UNL     1      14.005  10.724  15.686  0.00  0.00    +0.004 A 
ATOM     33  C   UNL     1      14.659  11.613  16.540  0.00  0.00    +0.000 A 
ENDBRANCH   6  25
ENDBRANCH  21   6
ENDBRANCH  20  21
ENDBRANCH  15  17
ENDBRANCH  10  15
BRANCH  11  16
ATOM     16  C   UNL     1      14.438  10.790  23.311  0.00  0.00    +0.140 C 
BRANCH  16   7
ATOM      5  O   UNL     1      16.424   9.939  21.431  0.00  0.00    -0.253 OA
ATOM      7  N   UNL     1      14.703   9.447  22.896  0.00  0.00    -0.297 N 
ATOM      9  N   UNL     1      15.726   7.721  21.755  0.00  0.00    -0.269 N 
ATOM     19  C   UNL     1      15.699   9.103  21.964  0.00  0.00    +0.304 C 
ATOM     35  H   UNL     1      14.110   8.707  23.261  0.00  0.00    +0.150 HD
ATOM     36  H   UNL     1      15.055   7.168  22.281  0.00  0.00    +0.156 HD
BRANCH   9  22
ATOM      1  F   UNL     1      20.035   5.859  20.750  0.00  0.00    -0.205 F 
ATOM     22  C   UNL     1      16.580   6.990  20.897  0.00  0.00    +0.037 A 
ATOM     23  C   UNL     1      17.912   6.780  21.254  0.00  0.00    +0.061 A 
ATOM     24  C   UNL     1      16.091   6.480  19.695  0.00  0.00    +0.023 A 
ATOM     26  C   UNL     1      18.755   6.060  20.408  0.00  0.00    +0.125 A 
ATOM     27  C   UNL     1      16.934   5.760  18.849  0.00  0.00    +0.005 A 
ATOM     30  C   UNL     1      18.266   5.549  19.205  0.00  0.00    +0.038 A 
ENDBRANCH   9  22
ENDBRANCH  16   7
ENDBRANCH  11  16
TORSDOF 9
ENDMDL
MODEL 2
REMARK VINA RESULT:      -7.5     17.797     21.335
REMARK  Name = 75367001
REMARK  9 active torsions:
REMARK  status: ('A' for Active; 'I' for Inactive)
REMARK    1  A    between atoms: O_3  and  C_12
REMARK    2  A    between atoms: O_6  and  C_21
REMARK    3  A    between atoms: O_6  and  C_25
REMARK    4  A    between atoms: N_7  and  C_16
REMARK    5  A    between atoms: N_9  and  C_22
REMARK    6  A    between atoms: C_10  and  C_15
REMARK    7  A    between atoms: C_11  and  C_16
REMARK    8  A    between atoms: C_15  and  C_17
REMARK    9  A    between atoms: C_20  and  C_21
REMARK                            x       y       z     vdW  Elec       q    Type
REMARK                         _______ _______ _______ _____ _____    ______ ____
ROOT
ATOM      2  O   UNL     1      12.747   2.759   0.637  0.00  0.00    -0.369 OA
ATOM     10  C   UNL     1      12.810   3.397  -0.642  0.00  0.00    +0.125 C 
ATOM     11  C   UNL     1      13.079   3.595   1.753  0.00  0.00    +0.164 C 
ATOM     12  C   UNL     1      14.465   4.229   1.582  0.00  0.00    +0.145 C 
ATOM     13  C   UNL     1      14.213   3.941  -0.903  0.00  0.00    +0.034 C 
ATOM     14  C   UNL     1      14.641   4.887   0.216  0.00  0.00    +0.036 C 
ENDROOT
BRANCH  12   3
ATOM      3  O   UNL     1      15.457   3.206   1.704  0.00  0.00    -0.389 OA
ATOM     34  H   UNL     1      15.968   3.386   2.513  0.00  0.00    +0.210 HD
ENDBRANCH  12   3
BRANCH  10  15
ATOM     15  C   UNL     1      12.426   2.360  -1.691  0.00  0.00    +0.090 C 
BRANCH  15  17
ATOM      4  O   UNL     1       9.273   2.584  -3.421  0.00  0.00    -0.356 OA
ATOM      8  N   UNL     1      10.236   1.883  -2.704  0.00  0.00    -0.083 NA
ATOM     17  C   UNL     1      11.201   2.774  -2.462  0.00  0.00    +0.086 A 
ATOM     18  C   UNL     1      10.906   4.041  -2.995  0.00  0.00    +0.074 A 
ATOM     20  C   UNL     1       9.682   3.867  -3.587  0.00  0.00    +0.175 A 
BRANCH  20  21
ATOM     21  C   UNL     1       8.777   4.754  -4.328  0.00  0.00    +0.306 C 
BRANCH  21   6
ATOM      6  O   UNL     1       8.475   5.916  -3.550  0.00  0.00    -0.484 OA
BRANCH   6  25
ATOM     25  C   UNL     1       7.171   6.329  -3.555  0.00  0.00    +0.121 A 
ATOM     28  C   UNL     1       6.765   7.363  -2.712  0.00  0.00    +0.045 A 
ATOM     29  C   UNL     1       6.249   5.716  -4.402  0.00  0.00    +0.045 A 
ATOM     31  C   UNL     1       5.436   7.784  -2.715  0.00  0.00    +0.004 A 
ATOM     32  C   UNL     1       4.918   6.137  -4.406  0.00  0.00    +0.004 A 
ATOM     33  C   UNL     1       4.513   7.172  -3.563  0.00  0.00    +0.000 A 
ENDBRANCH   6  25
ENDBRANCH  21   6
ENDBRANCH  20  21
ENDBRANCH  15  17
ENDBRANCH  10  15
BRANCH  11  16
ATOM     16  C   UNL     1      11.981   4.624   2.015  0.00  0.00    +0.140 C 
BRANCH  16   7
ATOM      5  O   UNL     1      11.455   6.330   4.254  0.00  0.00    -0.253 OA
ATOM      7  N   UNL     1      11.234   4.288   3.189  0.00  0.00    -0.297 N 
ATOM      9  N   UNL     1      10.257   4.579   5.259  0.00  0.00    -0.269 N 
ATOM     19  C   UNL     1      11.016   5.182   4.253  0.00  0.00    +0.304 C 
ATOM     35  H   UNL     1      10.882   3.340   3.278  0.00  0.00    +0.150 HD
ATOM     36  H   UNL     1       9.971   3.617   5.099  0.00  0.00    +0.156 HD
BRANCH   9  22
ATOM      1  F   UNL     1       9.626   4.272  10.009  0.00  0.00    -0.205 F 
ATOM     22  C   UNL     1       9.830   5.146   6.483  0.00  0.00    +0.037 A 
ATOM     23  C   UNL     1       9.942   4.415   7.666  0.00  0.00    +0.061 A 
ATOM     24  C   UNL     1       9.297   6.434   6.506  0.00  0.00    +0.023 A 
ATOM     26  C   UNL     1       9.520   4.974   8.873  0.00  0.00    +0.125 A 
ATOM     27  C   UNL     1       8.876   6.993   7.712  0.00  0.00    +0.005 A 
ATOM     30  C   UNL     1       8.987   6.263   8.896  0.00  0.00    +0.038 A 
ENDBRANCH   9  22
ENDBRANCH  16   7
ENDBRANCH  11  16
TORSDOF 9
ENDMDL
MODEL 3
REMARK VINA RESULT:      -7.1      3.551      6.936
REMARK  Name = 75367001
REMARK  9 active torsions:
REMARK  status: ('A' for Active; 'I' for Inactive)
REMARK    1  A    between atoms: O_3  and  C_12
REMARK    2  A    between atoms: O_6  and  C_21
REMARK    3  A    between atoms: O_6  and  C_25
REMARK    4  A    between atoms: N_7  and  C_16
REMARK    5  A    between atoms: N_9  and  C_22
REMARK    6  A    between atoms: C_10  and  C_15
REMARK    7  A    between atoms: C_11  and  C_16
REMARK    8  A    between atoms: C_15  and  C_17
REMARK    9  A    between atoms: C_20  and  C_21
REMARK                            x       y       z     vdW  Elec       q    Type
REMARK                         _______ _______ _______ _____ _____    ______ ____
ROOT
ATOM      2  O   UNL     1      11.694   7.360  19.244  0.00  0.00    -0.369 OA
ATOM     10  C   UNL     1      13.031   7.791  18.977  0.00  0.00    +0.125 C 
ATOM     11  C   UNL     1      11.217   7.636  20.567  0.00  0.00    +0.164 C 
ATOM     12  C   UNL     1      12.151   7.046  21.632  0.00  0.00    +0.145 C 
ATOM     13  C   UNL     1      14.012   7.131  19.943  0.00  0.00    +0.034 C 
ATOM     14  C   UNL     1      13.613   7.410  21.390  0.00  0.00    +0.036 C 
ENDROOT
BRANCH  12   3
ATOM      3  O   UNL     1      12.045   5.620  21.597  0.00  0.00    -0.389 OA
ATOM     34  H   UNL     1      11.297   5.367  22.165  0.00  0.00    +0.210 HD
ENDBRANCH  12   3
BRANCH  10  15
ATOM     15  C   UNL     1      13.353   7.415  17.535  0.00  0.00    +0.090 C 
BRANCH  15  17
ATOM      4  O   UNL     1      13.513   9.929  14.959  0.00  0.00    -0.356 OA
ATOM      8  N   UNL     1      13.097   8.698  15.453  0.00  0.00    -0.083 NA
ATOM     17  C   UNL     1      13.607   8.631  16.685  0.00  0.00    +0.086 A 
ATOM     18  C   UNL     1      14.347   9.778  17.021  0.00  0.00    +0.074 A 
ATOM     20  C   UNL     1      14.255  10.563  15.902  0.00  0.00    +0.175 A 
BRANCH  20  21
ATOM     21  C   UNL     1      14.778  11.887  15.544  0.00  0.00    +0.306 C 
BRANCH  21   6
ATOM      6  O   UNL     1      16.199  11.833  15.389  0.00  0.00    -0.484 OA
BRANCH   6  25
ATOM     25  C   UNL     1      16.681  12.009  14.121  0.00  0.00    +0.121 A 
ATOM     28  C   UNL     1      18.038  12.257  13.919  0.00  0.00    +0.045 A 
ATOM     29  C   UNL     1      15.814  11.942  13.031  0.00  0.00    +0.045 A 
ATOM     31  C   UNL     1      18.529  12.438  12.627  0.00  0.00    +0.004 A 
ATOM     32  C   UNL     1      16.305  12.124  11.737  0.00  0.00    +0.004 A 
ATOM     33  C   UNL     1      17.663  12.371  11.536  0.00  0.00    +0.000 A 
ENDBRANCH   6  25
ENDBRANCH  21   6
ENDBRANCH  20  21
ENDBRANCH  15  17
ENDBRANCH  10  15
BRANCH  11  16
ATOM     16  C   UNL     1      10.963   9.130  20.760  0.00  0.00    +0.140 C 
BRANCH  16   7
ATOM      5  O   UNL     1      11.483  11.744  21.809  0.00  0.00    -0.253 OA
ATOM      7  N   UNL     1      11.063   9.493  22.140  0.00  0.00    -0.297 N 
ATOM      9  N   UNL     1      11.365  10.855  23.979  0.00  0.00    -0.269 N 
ATOM     19  C   UNL     1      11.322  10.803  22.583  0.00  0.00    +0.304 C 
ATOM     35  H   UNL     1      10.987   8.757  22.836  0.00  0.00    +0.150 HD
ATOM     36  H   UNL     1      11.207   9.980  24.472  0.00  0.00    +0.156 HD
BRANCH   9  22
ATOM      1  F   UNL     1      14.323  13.548  26.633  0.00  0.00    -0.205 F 
ATOM     22  C   UNL     1      11.599  11.984  24.798  0.00  0.00    +0.037 A 
ATOM     23  C   UNL     1      12.871  12.214  25.321  0.00  0.00    +0.061 A 
ATOM     24  C   UNL     1      10.557  12.865  25.085  0.00  0.00    +0.023 A 
ATOM     26  C   UNL     1      13.102  13.327  26.130  0.00  0.00    +0.125 A 
ATOM     27  C   UNL     1      10.787  13.978  25.893  0.00  0.00    +0.005 A 
ATOM     30  C   UNL     1      12.060  14.209  26.416  0.00  0.00    +0.038 A 
ENDBRANCH   9  22
ENDBRANCH  16   7
ENDBRANCH  11  16
TORSDOF 9
ENDMDL
MODEL 4
REMARK VINA RESULT:      -7.1     26.808     29.590
REMARK  Name = 75367001
REMARK  9 active torsions:
REMARK  status: ('A' for Active; 'I' for Inactive)
REMARK    1  A    between atoms: O_3  and  C_12
REMARK    2  A    between atoms: O_6  and  C_21
REMARK    3  A    between atoms: O_6  and  C_25
REMARK    4  A    between atoms: N_7  and  C_16
REMARK    5  A    between atoms: N_9  and  C_22
REMARK    6  A    between atoms: C_10  and  C_15
REMARK    7  A    between atoms: C_11  and  C_16
REMARK    8  A    between atoms: C_15  and  C_17
REMARK    9  A    between atoms: C_20  and  C_21
REMARK                            x       y       z     vdW  Elec       q    Type
REMARK                         _______ _______ _______ _____ _____    ______ ____
ROOT
ATOM      2  O   UNL     1      -6.699 -11.569  17.137  0.00  0.00    -0.369 OA
ATOM     10  C   UNL     1      -5.343 -11.380  17.552  0.00  0.00    +0.125 C 
ATOM     11  C   UNL     1      -7.660 -10.733  17.793  0.00  0.00    +0.164 C 
ATOM     12  C   UNL     1      -7.582 -10.882  19.318  0.00  0.00    +0.145 C 
ATOM     13  C   UNL     1      -5.198 -11.636  19.050  0.00  0.00    +0.034 C 
ATOM     14  C   UNL     1      -6.155 -10.750  19.844  0.00  0.00    +0.036 C 
ENDROOT
BRANCH  12   3
ATOM      3  O   UNL     1      -8.061 -12.181  19.678  0.00  0.00    -0.389 OA
ATOM     34  H   UNL     1      -7.925 -12.290  20.635  0.00  0.00    +0.210 HD
ENDBRANCH  12   3
BRANCH  10  15
ATOM     15  C   UNL     1      -4.479 -12.346  16.750  0.00  0.00    +0.090 C 
BRANCH  15  17
ATOM      4  O   UNL     1      -1.934 -10.372  15.135  0.00  0.00    -0.356 OA
ATOM      8  N   UNL     1      -2.555 -10.893  16.264  0.00  0.00    -0.083 NA
ATOM     17  C   UNL     1      -3.572 -11.620  15.793  0.00  0.00    +0.086 A 
ATOM     18  C   UNL     1      -3.641 -11.595  14.389  0.00  0.00    +0.074 A 
ATOM     20  C   UNL     1      -2.588 -10.797  14.026  0.00  0.00    +0.175 A 
BRANCH  20  21
ATOM     21  C   UNL     1      -2.061 -10.337  12.736  0.00  0.00    +0.306 C 
BRANCH  21   6
ATOM      6  O   UNL     1      -2.398 -11.267  11.702  0.00  0.00    -0.484 OA
BRANCH   6  25
ATOM     25  C   UNL     1      -3.162 -10.784  10.675  0.00  0.00    +0.121 A 
ATOM     28  C   UNL     1      -3.196  -9.414  10.416  0.00  0.00    +0.045 A 
ATOM     29  C   UNL     1      -3.906 -11.662   9.888  0.00  0.00    +0.045 A 
ATOM     31  C   UNL     1      -3.975  -8.922   9.370  0.00  0.00    +0.004 A 
ATOM     32  C   UNL     1      -4.686 -11.169   8.841  0.00  0.00    +0.004 A 
ATOM     33  C   UNL     1      -4.719  -9.799   8.581  0.00  0.00    +0.000 A 
ENDBRANCH   6  25
ENDBRANCH  21   6
ENDBRANCH  20  21
ENDBRANCH  15  17
ENDBRANCH  10  15
BRANCH  11  16
ATOM     16  C   UNL     1      -7.535  -9.283  17.329  0.00  0.00    +0.140 C 
BRANCH  16   7
ATOM      5  O   UNL     1      -9.428  -8.640  15.278  0.00  0.00    -0.253 OA
ATOM      7  N   UNL     1      -8.773  -8.584  17.496  0.00  0.00    -0.297 N 
ATOM      9  N   UNL     1     -10.778  -7.610  16.898  0.00  0.00    -0.269 N 
ATOM     19  C   UNL     1      -9.655  -8.303  16.437  0.00  0.00    +0.304 C 
ATOM     35  H   UNL     1      -9.004  -8.233  18.420  0.00  0.00    +0.150 HD
ATOM     36  H   UNL     1     -10.811  -7.410  17.894  0.00  0.00    +0.156 HD
BRANCH   9  22
ATOM      1  F   UNL     1     -12.739  -4.455  13.857  0.00  0.00    -0.205 F 
ATOM     22  C   UNL     1     -11.884  -7.151  16.146  0.00  0.00    +0.037 A 
ATOM     23  C   UNL     1     -11.763  -6.007  15.356  0.00  0.00    +0.061 A 
ATOM     24  C   UNL     1     -13.095  -7.840  16.195  0.00  0.00    +0.023 A 
ATOM     26  C   UNL     1     -12.854  -5.554  14.615  0.00  0.00    +0.125 A 
ATOM     27  C   UNL     1     -14.186  -7.387  15.454  0.00  0.00    +0.005 A 
ATOM     30  C   UNL     1     -14.066  -6.244  14.663  0.00  0.00    +0.038 A 
ENDBRANCH   9  22
ENDBRANCH  16   7
ENDBRANCH  11  16
TORSDOF 9
ENDMDL
MODEL 5
REMARK VINA RESULT:      -7.1     14.272     17.209
REMARK  Name = 75367001
REMARK  9 active torsions:
REMARK  status: ('A' for Active; 'I' for Inactive)
REMARK    1  A    between atoms: O_3  and  C_12
REMARK    2  A    between atoms: O_6  and  C_21
REMARK    3  A    between atoms: O_6  and  C_25
REMARK    4  A    between atoms: N_7  and  C_16
REMARK    5  A    between atoms: N_9  and  C_22
REMARK    6  A    between atoms: C_10  and  C_15
REMARK    7  A    between atoms: C_11  and  C_16
REMARK    8  A    between atoms: C_15  and  C_17
REMARK    9  A    between atoms: C_20  and  C_21
REMARK                            x       y       z     vdW  Elec       q    Type
REMARK                         _______ _______ _______ _____ _____    ______ ____
ROOT
ATOM      2  O   UNL     1      11.384   6.299   7.076  0.00  0.00    -0.369 OA
ATOM     10  C   UNL     1      11.211   7.680   6.747  0.00  0.00    +0.125 C 
ATOM     11  C   UNL     1      10.219   5.480   6.905  0.00  0.00    +0.164 C 
ATOM     12  C   UNL     1       9.027   6.034   7.697  0.00  0.00    +0.145 C 
ATOM     13  C   UNL     1      10.108   8.302   7.600  0.00  0.00    +0.034 C 
ATOM     14  C   UNL     1       8.804   7.523   7.448  0.00  0.00    +0.036 C 
ENDROOT
BRANCH  12   3
ATOM      3  O   UNL     1       9.281   5.858   9.093  0.00  0.00    -0.389 OA
ATOM     34  H   UNL     1      10.232   5.998   9.240  0.00  0.00    +0.210 HD
ENDBRANCH  12   3
BRANCH  10  15
ATOM     15  C   UNL     1      12.543   8.379   6.988  0.00  0.00    +0.090 C 
BRANCH  15  17
ATOM      4  O   UNL     1      14.272   7.379   3.988  0.00  0.00    -0.356 OA
ATOM      8  N   UNL     1      13.123   7.516   4.758  0.00  0.00    -0.083 NA
ATOM     17  C   UNL     1      13.537   8.076   5.898  0.00  0.00    +0.086 A 
ATOM     18  C   UNL     1      14.922   8.314   5.905  0.00  0.00    +0.074 A 
ATOM     20  C   UNL     1      15.336   7.859   4.681  0.00  0.00    +0.175 A 
BRANCH  20  21
ATOM     21  C   UNL     1      16.639   7.792   4.010  0.00  0.00    +0.306 C 
BRANCH  21   6
ATOM      6  O   UNL     1      17.489   8.846   4.469  0.00  0.00    -0.484 OA
BRANCH   6  25
ATOM     25  C   UNL     1      18.661   8.469   5.064  0.00  0.00    +0.121 A 
ATOM     28  C   UNL     1      19.577   7.685   4.363  0.00  0.00    +0.045 A 
ATOM     29  C   UNL     1      18.940   8.867   6.371  0.00  0.00    +0.045 A 
ATOM     31  C   UNL     1      20.772   7.298   4.969  0.00  0.00    +0.004 A 
ATOM     32  C   UNL     1      20.135   8.480   6.978  0.00  0.00    +0.004 A 
ATOM     33  C   UNL     1      21.052   7.697   6.276  0.00  0.00    +0.000 A 
ENDBRANCH   6  25
ENDBRANCH  21   6
ENDBRANCH  20  21
ENDBRANCH  15  17
ENDBRANCH  10  15
BRANCH  11  16
ATOM     16  C   UNL     1       9.906   5.271   5.425  0.00  0.00    +0.140 C 
BRANCH  16   7
ATOM      5  O   UNL     1      10.101   4.959   2.585  0.00  0.00    -0.253 OA
ATOM      7  N   UNL     1      11.109   5.170   4.656  0.00  0.00    -0.297 N 
ATOM      9  N   UNL     1      12.440   4.946   2.785  0.00  0.00    -0.269 N 
ATOM     19  C   UNL     1      11.127   5.018   3.258  0.00  0.00    +0.304 C 
ATOM     35  H   UNL     1      11.995   5.163   5.152  0.00  0.00    +0.150 HD
ATOM     36  H   UNL     1      13.179   5.013   3.480  0.00  0.00    +0.156 HD
BRANCH   9  22
ATOM      1  F   UNL     1      12.754   2.334  -1.231  0.00  0.00    -0.205 F 
ATOM     22  C   UNL     1      12.873   4.794   1.447  0.00  0.00    +0.037 A 
ATOM     23  C   UNL     1      12.594   3.616   0.753  0.00  0.00    +0.061 A 
ATOM     24  C   UNL     1      13.579   5.821   0.822  0.00  0.00    +0.023 A 
ATOM     26  C   UNL     1      13.021   3.466  -0.566  0.00  0.00    +0.125 A 
ATOM     27  C   UNL     1      14.007   5.670  -0.497  0.00  0.00    +0.005 A 
ATOM     30  C   UNL     1      13.728   4.493  -1.191  0.00  0.00    +0.038 A 
ENDBRANCH   9  22
ENDBRANCH  16   7
ENDBRANCH  11  16
TORSDOF 9
ENDMDL
MODEL 6
REMARK VINA RESULT:      -7.1     27.680     31.336
REMARK  Name = 75367001
REMARK  9 active torsions:
REMARK  status: ('A' for Active; 'I' for Inactive)
REMARK    1  A    between atoms: O_3  and  C_12
REMARK    2  A    between atoms: O_6  and  C_21
REMARK    3  A    between atoms: O_6  and  C_25
REMARK    4  A    between atoms: N_7  and  C_16
REMARK    5  A    between atoms: N_9  and  C_22
REMARK    6  A    between atoms: C_10  and  C_15
REMARK    7  A    between atoms: C_11  and  C_16
REMARK    8  A    between atoms: C_15  and  C_17
REMARK    9  A    between atoms: C_20  and  C_21
REMARK                            x       y       z     vdW  Elec       q    Type
REMARK                         _______ _______ _______ _____ _____    ______ ____
ROOT
ATOM      2  O   UNL     1     -16.468   0.811  26.557  0.00  0.00    -0.369 OA
ATOM     10  C   UNL     1     -17.183   1.287  27.700  0.00  0.00    +0.125 C 
ATOM     11  C   UNL     1     -16.725   1.519  25.338  0.00  0.00    +0.164 C 
ATOM     12  C   UNL     1     -18.224   1.543  25.011  0.00  0.00    +0.145 C 
ATOM     13  C   UNL     1     -18.689   1.217  27.461  0.00  0.00    +0.034 C 
ATOM     14  C   UNL     1     -19.071   1.988  26.200  0.00  0.00    +0.036 C 
ENDROOT
BRANCH  12   3
ATOM      3  O   UNL     1     -18.637   0.222  24.651  0.00  0.00    -0.389 OA
ATOM     34  H   UNL     1     -19.610   0.204  24.662  0.00  0.00    +0.210 HD
ENDBRANCH  12   3
BRANCH  10  15
ATOM     15  C   UNL     1     -16.780   0.420  28.887  0.00  0.00    +0.090 C 
BRANCH  15  17
ATOM      4  O   UNL     1     -13.694   1.206  30.572  0.00  0.00    -0.356 OA
ATOM      8  N   UNL     1     -14.502   0.367  29.814  0.00  0.00    -0.083 NA
ATOM     17  C   UNL     1     -15.651   1.034  29.669  0.00  0.00    +0.086 A 
ATOM     18  C   UNL     1     -15.626   2.287  30.308  0.00  0.00    +0.074 A 
ATOM     20  C   UNL     1     -14.372   2.345  30.859  0.00  0.00    +0.175 A 
BRANCH  20  21
ATOM     21  C   UNL     1     -13.661   3.349  31.659  0.00  0.00    +0.306 C 
BRANCH  21   6
ATOM      6  O   UNL     1     -14.457   3.745  32.780  0.00  0.00    -0.484 OA
BRANCH   6  25
ATOM     25  C   UNL     1     -14.113   4.922  33.385  0.00  0.00    +0.121 A 
ATOM     28  C   UNL     1     -13.775   6.032  32.611  0.00  0.00    +0.045 A 
ATOM     29  C   UNL     1     -14.099   5.012  34.776  0.00  0.00    +0.045 A 
ATOM     31  C   UNL     1     -13.423   7.232  33.227  0.00  0.00    +0.004 A 
ATOM     32  C   UNL     1     -13.746   6.213  35.394  0.00  0.00    +0.004 A 
ATOM     33  C   UNL     1     -13.409   7.323  34.619  0.00  0.00    +0.000 A 
ENDBRANCH   6  25
ENDBRANCH  21   6
ENDBRANCH  20  21
ENDBRANCH  15  17
ENDBRANCH  10  15
BRANCH  11  16
ATOM     16  C   UNL     1     -16.099   2.912  25.368  0.00  0.00    +0.140 C 
BRANCH  16   7
ATOM      5  O   UNL     1     -15.642   5.475  24.176  0.00  0.00    -0.253 OA
ATOM      7  N   UNL     1     -15.380   3.177  24.160  0.00  0.00    -0.297 N 
ATOM      9  N   UNL     1     -14.457   4.418  22.447  0.00  0.00    -0.269 N 
ATOM     19  C   UNL     1     -15.195   4.468  23.633  0.00  0.00    +0.304 C 
ATOM     35  H   UNL     1     -15.023   2.387  23.631  0.00  0.00    +0.150 HD
ATOM     36  H   UNL     1     -14.160   3.498  22.134  0.00  0.00    +0.156 HD
BRANCH   9  22
ATOM      1  F   UNL     1     -11.050   7.307  20.687  0.00  0.00    -0.205 F 
ATOM     22  C   UNL     1     -14.066   5.498  21.622  0.00  0.00    +0.037 A 
ATOM     23  C   UNL     1     -12.725   5.877  21.559  0.00  0.00    +0.061 A 
ATOM     24  C   UNL     1     -15.020   6.186  20.874  0.00  0.00    +0.023 A 
ATOM     26  C   UNL     1     -12.338   6.943  20.747  0.00  0.00    +0.125 A 
ATOM     27  C   UNL     1     -14.634   7.252  20.061  0.00  0.00    +0.005 A 
ATOM     30  C   UNL     1     -13.293   7.630  19.997  0.00  0.00    +0.038 A 
ENDBRANCH   9  22
ENDBRANCH  16   7
ENDBRANCH  11  16
TORSDOF 9
ENDMDL
MODEL 7
REMARK VINA RESULT:      -7.0     26.924     29.682
REMARK  Name = 75367001
REMARK  9 active torsions:
REMARK  status: ('A' for Active; 'I' for Inactive)
REMARK    1  A    between atoms: O_3  and  C_12
REMARK    2  A    between atoms: O_6  and  C_21
REMARK    3  A    between atoms: O_6  and  C_25
REMARK    4  A    between atoms: N_7  and  C_16
REMARK    5  A    between atoms: N_9  and  C_22
REMARK    6  A    between atoms: C_10  and  C_15
REMARK    7  A    between atoms: C_11  and  C_16
REMARK    8  A    between atoms: C_15  and  C_17
REMARK    9  A    between atoms: C_20  and  C_21
REMARK                            x       y       z     vdW  Elec       q    Type
REMARK                         _______ _______ _______ _____ _____    ______ ____
ROOT
ATOM      2  O   UNL     1      -4.692  -9.061  11.415  0.00  0.00    -0.369 OA
ATOM     10  C   UNL     1      -4.120 -10.279  10.932  0.00  0.00    +0.125 C 
ATOM     11  C   UNL     1      -6.057  -8.838  11.043  0.00  0.00    +0.164 C 
ATOM     12  C   UNL     1      -6.239  -8.902   9.520  0.00  0.00    +0.145 C 
ATOM     13  C   UNL     1      -4.173 -10.331   9.406  0.00  0.00    +0.034 C 
ATOM     14  C   UNL     1      -5.605 -10.149   8.910  0.00  0.00    +0.036 C 
ENDROOT
BRANCH  12   3
ATOM      3  O   UNL     1      -5.607  -7.760   8.934  0.00  0.00    -0.389 OA
ATOM     34  H   UNL     1      -4.747  -8.048   8.583  0.00  0.00    +0.210 HD
ENDBRANCH  12   3
BRANCH  10  15
ATOM     15  C   UNL     1      -2.680 -10.338  11.427  0.00  0.00    +0.090 C 
BRANCH  15  17
ATOM      4  O   UNL     1      -1.782 -10.247  14.916  0.00  0.00    -0.356 OA
ATOM      8  N   UNL     1      -1.517 -10.017  13.571  0.00  0.00    -0.083 NA
ATOM     17  C   UNL     1      -2.610 -10.437  12.927  0.00  0.00    +0.086 A 
ATOM     18  C   UNL     1      -3.588 -10.936  13.805  0.00  0.00    +0.074 A 
ATOM     20  C   UNL     1      -3.018 -10.793  15.043  0.00  0.00    +0.175 A 
BRANCH  20  21
ATOM     21  C   UNL     1      -3.462 -11.101  16.407  0.00  0.00    +0.306 C 
BRANCH  21   6
ATOM      6  O   UNL     1      -4.614 -11.949  16.374  0.00  0.00    -0.484 OA
BRANCH   6  25
ATOM     25  C   UNL     1      -5.411 -11.936  17.485  0.00  0.00    +0.121 A 
ATOM     28  C   UNL     1      -6.473 -12.834  17.592  0.00  0.00    +0.045 A 
ATOM     29  C   UNL     1      -5.164 -11.023  18.510  0.00  0.00    +0.045 A 
ATOM     31  C   UNL     1      -7.287 -12.820  18.724  0.00  0.00    +0.004 A 
ATOM     32  C   UNL     1      -5.979 -11.008  19.643  0.00  0.00    +0.004 A 
ATOM     33  C   UNL     1      -7.040 -11.908  19.749  0.00  0.00    +0.000 A 
ENDBRANCH   6  25
ENDBRANCH  21   6
ENDBRANCH  20  21
ENDBRANCH  15  17
ENDBRANCH  10  15
BRANCH  11  16
ATOM     16  C   UNL     1      -6.994  -9.782  11.794  0.00  0.00    +0.140 C 
BRANCH  16   7
ATOM      5  O   UNL     1      -9.343 -10.173  13.385  0.00  0.00    -0.253 OA
ATOM      7  N   UNL     1      -7.200  -9.336  13.138  0.00  0.00    -0.297 N 
ATOM      9  N   UNL     1      -8.299  -9.016  15.142  0.00  0.00    -0.269 N 
ATOM     19  C   UNL     1      -8.385  -9.566  13.860  0.00  0.00    +0.304 C 
ATOM     35  H   UNL     1      -6.469  -8.787  13.578  0.00  0.00    +0.150 HD
ATOM     36  H   UNL     1      -7.430  -8.545  15.378  0.00  0.00    +0.156 HD
BRANCH   9  22
ATOM      1  F   UNL     1      -9.995 -10.792  19.267  0.00  0.00    -0.205 F 
ATOM     22  C   UNL     1      -9.279  -9.036  16.162  0.00  0.00    +0.037 A 
ATOM     23  C   UNL     1      -9.151  -9.921  17.233  0.00  0.00    +0.061 A 
ATOM     24  C   UNL     1     -10.371  -8.172  16.097  0.00  0.00    +0.023 A 
ATOM     26  C   UNL     1     -10.117  -9.942  18.239  0.00  0.00    +0.125 A 
ATOM     27  C   UNL     1     -11.337  -8.193  17.103  0.00  0.00    +0.005 A 
ATOM     30  C   UNL     1     -11.210  -9.077  18.174  0.00  0.00    +0.038 A 
ENDBRANCH   9  22
ENDBRANCH  16   7
ENDBRANCH  11  16
TORSDOF 9
ENDMDL
MODEL 8
REMARK VINA RESULT:      -6.9      2.808      5.405
REMARK  Name = 75367001
REMARK  9 active torsions:
REMARK  status: ('A' for Active; 'I' for Inactive)
REMARK    1  A    between atoms: O_3  and  C_12
REMARK    2  A    between atoms: O_6  and  C_21
REMARK    3  A    between atoms: O_6  and  C_25
REMARK    4  A    between atoms: N_7  and  C_16
REMARK    5  A    between atoms: N_9  and  C_22
REMARK    6  A    between atoms: C_10  and  C_15
REMARK    7  A    between atoms: C_11  and  C_16
REMARK    8  A    between atoms: C_15  and  C_17
REMARK    9  A    between atoms: C_20  and  C_21
REMARK                            x       y       z     vdW  Elec       q    Type
REMARK                         _______ _______ _______ _____ _____    ______ ____
ROOT
ATOM      2  O   UNL     1      12.689  13.008  24.819  0.00  0.00    -0.369 OA
ATOM     10  C   UNL     1      12.384  13.599  23.553  0.00  0.00    +0.125 C 
ATOM     11  C   UNL     1      11.556  12.552  25.568  0.00  0.00    +0.164 C 
ATOM     12  C   UNL     1      10.535  13.679  25.779  0.00  0.00    +0.145 C 
ATOM     13  C   UNL     1      11.461  14.803  23.729  0.00  0.00    +0.034 C 
ATOM     14  C   UNL     1      10.194  14.405  24.480  0.00  0.00    +0.036 C 
ENDROOT
BRANCH  12   3
ATOM      3  O   UNL     1      11.090  14.638  26.682  0.00  0.00    -0.389 OA
ATOM     34  H   UNL     1      10.821  14.385  27.582  0.00  0.00    +0.210 HD
ENDBRANCH  12   3
BRANCH  10  15
ATOM     15  C   UNL     1      13.703  14.015  22.912  0.00  0.00    +0.090 C 
BRANCH  15  17
ATOM      4  O   UNL     1      14.800  11.320  20.786  0.00  0.00    -0.356 OA
ATOM      8  N   UNL     1      13.943  12.369  21.100  0.00  0.00    -0.083 NA
ATOM     17  C   UNL     1      14.398  12.851  22.260  0.00  0.00    +0.086 A 
ATOM     18  C   UNL     1      15.528  12.153  22.722  0.00  0.00    +0.074 A 
ATOM     20  C   UNL     1      15.740  11.202  21.758  0.00  0.00    +0.175 A 
BRANCH  20  21
ATOM     21  C   UNL     1      16.733  10.136  21.584  0.00  0.00    +0.306 C 
BRANCH  21   6
ATOM      6  O   UNL     1      16.094   8.927  21.165  0.00  0.00    -0.484 OA
BRANCH   6  25
ATOM     25  C   UNL     1      16.916   7.916  20.750  0.00  0.00    +0.121 A 
ATOM     28  C   UNL     1      16.484   7.024  19.768  0.00  0.00    +0.045 A 
ATOM     29  C   UNL     1      18.185   7.776  21.310  0.00  0.00    +0.045 A 
ATOM     31  C   UNL     1      17.321   5.992  19.346  0.00  0.00    +0.004 A 
ATOM     32  C   UNL     1      19.024   6.743  20.888  0.00  0.00    +0.004 A 
ATOM     33  C   UNL     1      18.592   5.852  19.905  0.00  0.00    +0.000 A 
ENDBRANCH   6  25
ENDBRANCH  21   6
ENDBRANCH  20  21
ENDBRANCH  15  17
ENDBRANCH  10  15
BRANCH  11  16
ATOM     16  C   UNL     1      10.943  11.304  24.934  0.00  0.00    +0.140 C 
BRANCH  16   7
ATOM      5  O   UNL     1      10.270   9.801  22.592  0.00  0.00    -0.253 OA
ATOM      7  N   UNL     1      11.857  10.694  24.018  0.00  0.00    -0.297 N 
ATOM      9  N   UNL     1      12.560   9.489  22.179  0.00  0.00    -0.269 N 
ATOM     19  C   UNL     1      11.452   9.968  22.884  0.00  0.00    +0.304 C 
ATOM     35  H   UNL     1      12.850  10.751  24.222  0.00  0.00    +0.150 HD
ATOM     36  H   UNL     1      13.474   9.720  22.559  0.00  0.00    +0.156 HD
BRANCH   9  22
ATOM      1  F   UNL     1      11.982   9.141  17.426  0.00  0.00    -0.205 F 
ATOM     22  C   UNL     1      12.568   8.721  20.992  0.00  0.00    +0.037 A 
ATOM     23  C   UNL     1      12.266   9.322  19.770  0.00  0.00    +0.061 A 
ATOM     24  C   UNL     1      12.877   7.362  21.044  0.00  0.00    +0.023 A 
ATOM     26  C   UNL     1      12.273   8.564  18.600  0.00  0.00    +0.125 A 
ATOM     27  C   UNL     1      12.884   6.604  19.873  0.00  0.00    +0.005 A 
ATOM     30  C   UNL     1      12.582   7.205  18.651  0.00  0.00    +0.038 A 
ENDBRANCH   9  22
ENDBRANCH  16   7
ENDBRANCH  11  16
TORSDOF 9
ENDMDL
MODEL 9
REMARK VINA RESULT:      -6.9      1.522      2.146
REMARK  Name = 75367001
REMARK  9 active torsions:
REMARK  status: ('A' for Active; 'I' for Inactive)
REMARK    1  A    between atoms: O_3  and  C_12
REMARK    2  A    between atoms: O_6  and  C_21
REMARK    3  A    between atoms: O_6  and  C_25
REMARK    4  A    between atoms: N_7  and  C_16
REMARK    5  A    between atoms: N_9  and  C_22
REMARK    6  A    between atoms: C_10  and  C_15
REMARK    7  A    between atoms: C_11  and  C_16
REMARK    8  A    between atoms: C_15  and  C_17
REMARK    9  A    between atoms: C_20  and  C_21
REMARK                            x       y       z     vdW  Elec       q    Type
REMARK                         _______ _______ _______ _____ _____    ______ ____
ROOT
ATOM      2  O   UNL     1      11.693  10.759  20.660  0.00  0.00    -0.369 OA
ATOM     10  C   UNL     1      11.492   9.438  21.168  0.00  0.00    +0.125 C 
ATOM     11  C   UNL     1      12.300  11.679  21.576  0.00  0.00    +0.164 C 
ATOM     12  C   UNL     1      11.508  11.767  22.887  0.00  0.00    +0.145 C 
ATOM     13  C   UNL     1      10.606   9.468  22.411  0.00  0.00    +0.034 C 
ATOM     14  C   UNL     1      11.198  10.392  23.473  0.00  0.00    +0.036 C 
ENDROOT
BRANCH  12   3
ATOM      3  O   UNL     1      10.263  12.422  22.629  0.00  0.00    -0.389 OA
ATOM     34  H   UNL     1      10.328  12.843  21.755  0.00  0.00    +0.210 HD
ENDBRANCH  12   3
BRANCH  10  15
ATOM     15  C   UNL     1      10.845   8.615  20.060  0.00  0.00    +0.090 C 
BRANCH  15  17
ATOM      4  O   UNL     1      13.074   7.124  17.653  0.00  0.00    -0.356 OA
ATOM      8  N   UNL     1      12.192   7.049  18.724  0.00  0.00    -0.083 NA
ATOM     17  C   UNL     1      11.817   8.311  18.952  0.00  0.00    +0.086 A 
ATOM     18  C   UNL     1      12.424   9.217  18.064  0.00  0.00    +0.074 A 
ATOM     20  C   UNL     1      13.203   8.420  17.268  0.00  0.00    +0.175 A 
BRANCH  20  21
ATOM     21  C   UNL     1      14.105   8.682  16.140  0.00  0.00    +0.306 C 
BRANCH  21   6
ATOM      6  O   UNL     1      13.653   9.818  15.398  0.00  0.00    -0.484 OA
BRANCH   6  25
ATOM     25  C   UNL     1      14.531  10.860  15.284  0.00  0.00    +0.121 A 
ATOM     28  C   UNL     1      14.253  12.077  15.904  0.00  0.00    +0.045 A 
ATOM     29  C   UNL     1      15.704  10.704  14.546  0.00  0.00    +0.045 A 
ATOM     31  C   UNL     1      15.148  13.140  15.787  0.00  0.00    +0.004 A 
ATOM     32  C   UNL     1      16.600  11.768  14.428  0.00  0.00    +0.004 A 
ATOM     33  C   UNL     1      16.322  12.986  15.050  0.00  0.00    +0.000 A 
ENDBRANCH   6  25
ENDBRANCH  21   6
ENDBRANCH  20  21
ENDBRANCH  15  17
ENDBRANCH  10  15
BRANCH  11  16
ATOM     16  C   UNL     1      13.776  11.347  21.793  0.00  0.00    +0.140 C 
BRANCH  16   7
ATOM      5  O   UNL     1      15.979   9.557  22.168  0.00  0.00    -0.253 OA
ATOM      7  N   UNL     1      14.207  10.322  20.893  0.00  0.00    -0.297 N 
ATOM      9  N   UNL     1      15.488   8.577  20.092  0.00  0.00    -0.269 N 
ATOM     19  C   UNL     1      15.303   9.477  21.145  0.00  0.00    +0.304 C 
ATOM     35  H   UNL     1      13.724  10.230  20.005  0.00  0.00    +0.150 HD
ATOM     36  H   UNL     1      14.835   8.645  19.316  0.00  0.00    +0.156 HD
BRANCH   9  22
ATOM      1  F   UNL     1      19.699   6.686  21.410  0.00  0.00    -0.205 F 
ATOM     22  C   UNL     1      16.477   7.574  19.971  0.00  0.00    +0.037 A 
ATOM     23  C   UNL     1      17.622   7.625  20.766  0.00  0.00    +0.061 A 
ATOM     24  C   UNL     1      16.309   6.535  19.057  0.00  0.00    +0.023 A 
ATOM     26  C   UNL     1      18.599   6.636  20.647  0.00  0.00    +0.125 A 
ATOM     27  C   UNL     1      17.285   5.546  18.938  0.00  0.00    +0.005 A 
ATOM     30  C   UNL     1      18.430   5.596  19.733  0.00  0.00    +0.038 A 
ENDBRANCH   9  22
ENDBRANCH  16   7
ENDBRANCH  11  16
TORSDOF 9
ENDMDL
MODEL 10
REMARK VINA RESULT:      -6.8     27.712     30.595
REMARK  Name = 75367001
REMARK  9 active torsions:
REMARK  status: ('A' for Active; 'I' for Inactive)
REMARK    1  A    between atoms: O_3  and  C_12
REMARK    2  A    between atoms: O_6  and  C_21
REMARK    3  A    between atoms: O_6  and  C_25
REMARK    4  A    between atoms: N_7  and  C_16
REMARK    5  A    between atoms: N_9  and  C_22
REMARK    6  A    between atoms: C_10  and  C_15
REMARK    7  A    between atoms: C_11  and  C_16
REMARK    8  A    between atoms: C_15  and  C_17
REMARK    9  A    between atoms: C_20  and  C_21
REMARK                            x       y       z     vdW  Elec       q    Type
REMARK                         _______ _______ _______ _____ _____    ______ ____
ROOT
ATOM      2  O   UNL     1      -9.879  -8.285  17.613  0.00  0.00    -0.369 OA
ATOM     10  C   UNL     1     -10.803  -9.369  17.744  0.00  0.00    +0.125 C 
ATOM     11  C   UNL     1     -10.015  -7.508  16.416  0.00  0.00    +0.164 C 
ATOM     12  C   UNL     1      -9.925  -8.392  15.165  0.00  0.00    +0.145 C 
ATOM     13  C   UNL     1     -10.664 -10.339  16.573  0.00  0.00    +0.034 C 
ATOM     14  C   UNL     1     -10.841  -9.610  15.244  0.00  0.00    +0.036 C 
ENDROOT
BRANCH  12   3
ATOM      3  O   UNL     1      -8.582  -8.864  15.031  0.00  0.00    -0.389 OA
ATOM     34  H   UNL     1      -8.619  -9.830  14.924  0.00  0.00    +0.210 HD
ENDBRANCH  12   3
BRANCH  10  15
ATOM     15  C   UNL     1     -10.507 -10.066  19.066  0.00  0.00    +0.090 C 
BRANCH  15  17
ATOM      4  O   UNL     1      -7.972 -12.625  18.970  0.00  0.00    -0.356 OA
ATOM      8  N   UNL     1      -9.294 -12.206  19.058  0.00  0.00    -0.083 NA
ATOM     17  C   UNL     1      -9.238 -10.873  19.000  0.00  0.00    +0.086 A 
ATOM     18  C   UNL     1      -7.921 -10.398  18.875  0.00  0.00    +0.074 A 
ATOM     20  C   UNL     1      -7.163 -11.540  18.860  0.00  0.00    +0.175 A 
BRANCH  20  21
ATOM     21  C   UNL     1      -5.724 -11.803  18.755  0.00  0.00    +0.306 C 
BRANCH  21   6
ATOM      6  O   UNL     1      -5.038 -10.634  18.295  0.00  0.00    -0.484 OA
BRANCH   6  25
ATOM     25  C   UNL     1      -4.628 -10.643  16.991  0.00  0.00    +0.121 A 
ATOM     28  C   UNL     1      -5.517 -10.284  15.978  0.00  0.00    +0.045 A 
ATOM     29  C   UNL     1      -3.321 -11.011  16.674  0.00  0.00    +0.045 A 
ATOM     31  C   UNL     1      -5.099 -10.294  14.648  0.00  0.00    +0.004 A 
ATOM     32  C   UNL     1      -2.902 -11.021  15.343  0.00  0.00    +0.004 A 
ATOM     33  C   UNL     1      -3.792 -10.661  14.330  0.00  0.00    +0.000 A 
ENDBRANCH   6  25
ENDBRANCH  21   6
ENDBRANCH  20  21
ENDBRANCH  15  17
ENDBRANCH  10  15
BRANCH  11  16
ATOM     16  C   UNL     1     -11.282  -6.656  16.454  0.00  0.00    +0.140 C 
BRANCH  16   7
ATOM      5  O   UNL     1     -13.277  -6.256  14.438  0.00  0.00    -0.253 OA
ATOM      7  N   UNL     1     -11.266  -5.668  15.419  0.00  0.00    -0.297 N 
ATOM      9  N   UNL     1     -11.998  -4.485  13.578  0.00  0.00    -0.269 N 
ATOM     19  C   UNL     1     -12.285  -5.531  14.460  0.00  0.00    +0.304 C 
ATOM     35  H   UNL     1     -10.453  -5.063  15.347  0.00  0.00    +0.150 HD
ATOM     36  H   UNL     1     -11.130  -3.980  13.738  0.00  0.00    +0.156 HD
BRANCH   9  22
ATOM      1  F   UNL     1     -12.503  -3.681   8.872  0.00  0.00    -0.205 F 
ATOM     22  C   UNL     1     -12.772  -4.036  12.483  0.00  0.00    +0.037 A 
ATOM     23  C   UNL     1     -12.245  -4.081  11.192  0.00  0.00    +0.061 A 
ATOM     24  C   UNL     1     -14.060  -3.547  12.694  0.00  0.00    +0.023 A 
ATOM     26  C   UNL     1     -13.008  -3.638  10.111  0.00  0.00    +0.125 A 
ATOM     27  C   UNL     1     -14.823  -3.103  11.614  0.00  0.00    +0.005 A 
ATOM     30  C   UNL     1     -14.298  -3.149  10.322  0.00  0.00    +0.038 A 
ENDBRANCH   9  22
ENDBRANCH  16   7
ENDBRANCH  11  16
TORSDOF 9
ENDMDL
