MODEL 1
REMARK VINA RESULT:      -6.7      0.000      0.000
REMARK  Name = 75367098
REMARK  8 active torsions:
REMARK  status: ('A' for Active; 'I' for Inactive)
REMARK    1  A    between atoms: S_1  and  N_7
REMARK    2  A    between atoms: S_1  and  C_17
REMARK    3  A    between atoms: O_3  and  C_11
REMARK    4  A    between atoms: N_6  and  C_10
REMARK    5  A    between atoms: N_6  and  C_15
REMARK    6  A    between atoms: N_7  and  C_14
REMARK    7  A    between atoms: C_12  and  C_14
REMARK    8  A    between atoms: C_15  and  C_16
REMARK                            x       y       z     vdW  Elec       q    Type
REMARK                         _______ _______ _______ _____ _____    ______ ____
ROOT
ATOM      2  O   UNL     1      12.830   6.599  20.854  0.00  0.00    -0.371 OA
ATOM     10  C   UNL     1      10.746   7.692  21.181  0.00  0.00    +0.111 C 
ATOM     11  C   UNL     1      11.452   8.319  19.993  0.00  0.00    +0.164 C 
ATOM     12  C   UNL     1      12.432   7.215  19.618  0.00  0.00    +0.164 C 
ATOM     13  C   UNL     1      11.899   6.987  21.879  0.00  0.00    +0.181 C 
ENDROOT
BRANCH  11   3
ATOM      3  O   UNL     1      10.570   8.624  18.932  0.00  0.00    -0.388 OA
ATOM     27  H   UNL     1      10.045   9.402  19.184  0.00  0.00    +0.210 HD
ENDBRANCH  11   3
BRANCH  10   6
ATOM      6  N   UNL     1      10.071   8.655  22.034  0.00  0.00    -0.302 NA
ATOM     25  H   UNL     1       9.257   8.211  22.460  0.00  0.00    +0.123 HD
BRANCH   6  15
ATOM     15  C   UNL     1      10.956   9.130  23.091  0.00  0.00    +0.156 C 
BRANCH  15  16
ATOM      8  N   UNL     1      10.929  11.467  22.188  0.00  0.00    -0.347 N 
ATOM      9  N   UNL     1      10.744  11.282  24.393  0.00  0.00    -0.240 NA
ATOM     16  C   UNL     1      10.873  10.624  23.262  0.00  0.00    +0.121 A 
ATOM     20  C   UNL     1      10.830  12.744  22.664  0.00  0.00    +0.104 A 
ATOM     21  C   UNL     1      10.716  12.604  24.027  0.00  0.00    +0.130 A 
ATOM     28  H   UNL     1      11.026  11.198  21.218  0.00  0.00    +0.167 HD
ENDBRANCH  15  16
ENDBRANCH   6  15
ENDBRANCH  10   6
BRANCH  12  14
ATOM     14  C   UNL     1      13.657   7.724  18.880  0.00  0.00    +0.140 C 
BRANCH  14   7
ATOM      7  N   UNL     1      14.876   7.348  19.624  0.00  0.00    -0.187 NA
ATOM     26  H   UNL     1      14.937   6.363  19.910  0.00  0.00    +0.148 HD
BRANCH   7   1
ATOM      1  S   UNL     1      15.704   8.514  20.547  0.00  0.00    +0.058 S 
ATOM      4  O   UNL     1      15.132   8.568  21.878  0.00  0.00    -0.153 OA
ATOM      5  O   UNL     1      15.842   9.725  19.762  0.00  0.00    -0.153 OA
BRANCH   1  17
ATOM     17  C   UNL     1      17.315   7.797  20.675  0.00  0.00    +0.105 A 
ATOM     18  C   UNL     1      18.336   8.489  21.325  0.00  0.00    +0.028 A 
ATOM     19  C   UNL     1      17.565   6.541  20.121  0.00  0.00    +0.028 A 
ATOM     22  C   UNL     1      19.609   7.924  21.422  0.00  0.00    +0.002 A 
ATOM     23  C   UNL     1      18.838   5.977  20.218  0.00  0.00    +0.002 A 
ATOM     24  C   UNL     1      19.859   6.669  20.869  0.00  0.00    +0.000 A 
ENDBRANCH   1  17
ENDBRANCH   7   1
ENDBRANCH  14   7
ENDBRANCH  12  14
TORSDOF 8
ENDMDL
MODEL 2
REMARK VINA RESULT:      -6.5      3.667      9.019
REMARK  Name = 75367098
REMARK  8 active torsions:
REMARK  status: ('A' for Active; 'I' for Inactive)
REMARK    1  A    between atoms: S_1  and  N_7
REMARK    2  A    between atoms: S_1  and  C_17
REMARK    3  A    between atoms: O_3  and  C_11
REMARK    4  A    between atoms: N_6  and  C_10
REMARK    5  A    between atoms: N_6  and  C_15
REMARK    6  A    between atoms: N_7  and  C_14
REMARK    7  A    between atoms: C_12  and  C_14
REMARK    8  A    between atoms: C_15  and  C_16
REMARK                            x       y       z     vdW  Elec       q    Type
REMARK                         _______ _______ _______ _____ _____    ______ ____
ROOT
ATOM      2  O   UNL     1      17.606   7.496  21.382  0.00  0.00    -0.371 OA
ATOM     10  C   UNL     1      19.174   6.223  20.131  0.00  0.00    +0.111 C 
ATOM     11  C   UNL     1      17.771   5.759  19.785  0.00  0.00    +0.164 C 
ATOM     12  C   UNL     1      16.947   6.962  20.220  0.00  0.00    +0.164 C 
ATOM     13  C   UNL     1      18.934   6.949  21.445  0.00  0.00    +0.181 C 
ENDROOT
BRANCH  11   3
ATOM      3  O   UNL     1      17.612   5.482  18.407  0.00  0.00    -0.388 OA
ATOM     27  H   UNL     1      17.040   4.701  18.317  0.00  0.00    +0.210 HD
ENDBRANCH  11   3
BRANCH  10   6
ATOM      6  N   UNL     1      20.135   5.139  20.249  0.00  0.00    -0.302 NA
ATOM     25  H   UNL     1      20.506   4.920  19.325  0.00  0.00    +0.123 HD
BRANCH   6  15
ATOM     15  C   UNL     1      21.239   5.511  21.125  0.00  0.00    +0.156 C 
BRANCH  15  16
ATOM      8  N   UNL     1      22.770   3.564  20.750  0.00  0.00    -0.347 N 
ATOM      9  N   UNL     1      22.042   3.832  22.830  0.00  0.00    -0.240 NA
ATOM     16  C   UNL     1      22.005   4.306  21.605  0.00  0.00    +0.121 A 
ATOM     20  C   UNL     1      23.331   2.551  21.477  0.00  0.00    +0.104 A 
ATOM     21  C   UNL     1      22.867   2.738  22.757  0.00  0.00    +0.130 A 
ATOM     28  H   UNL     1      22.900   3.731  19.761  0.00  0.00    +0.167 HD
ENDBRANCH  15  16
ENDBRANCH   6  15
ENDBRANCH  10   6
BRANCH  12  14
ATOM     14  C   UNL     1      15.509   6.615  20.560  0.00  0.00    +0.140 C 
BRANCH  14   7
ATOM      7  N   UNL     1      14.737   6.428  19.316  0.00  0.00    -0.187 NA
ATOM     26  H   UNL     1      15.158   5.799  18.620  0.00  0.00    +0.148 HD
BRANCH   7   1
ATOM      1  S   UNL     1      13.686   7.650  18.773  0.00  0.00    +0.058 S 
ATOM      4  O   UNL     1      13.069   7.235  17.527  0.00  0.00    -0.153 OA
ATOM      5  O   UNL     1      14.364   8.929  18.861  0.00  0.00    -0.153 OA
BRANCH   1  17
ATOM     17  C   UNL     1      12.440   7.641  20.027  0.00  0.00    +0.105 A 
ATOM     18  C   UNL     1      11.850   8.838  20.432  0.00  0.00    +0.028 A 
ATOM     19  C   UNL     1      12.051   6.437  20.615  0.00  0.00    +0.028 A 
ATOM     22  C   UNL     1      10.869   8.831  21.425  0.00  0.00    +0.002 A 
ATOM     23  C   UNL     1      11.071   6.430  21.608  0.00  0.00    +0.002 A 
ATOM     24  C   UNL     1      10.480   7.627  22.013  0.00  0.00    +0.000 A 
ENDBRANCH   1  17
ENDBRANCH   7   1
ENDBRANCH  14   7
ENDBRANCH  12  14
TORSDOF 8
ENDMDL
MODEL 3
REMARK VINA RESULT:      -6.4      3.408      4.730
REMARK  Name = 75367098
REMARK  8 active torsions:
REMARK  status: ('A' for Active; 'I' for Inactive)
REMARK    1  A    between atoms: S_1  and  N_7
REMARK    2  A    between atoms: S_1  and  C_17
REMARK    3  A    between atoms: O_3  and  C_11
REMARK    4  A    between atoms: N_6  and  C_10
REMARK    5  A    between atoms: N_6  and  C_15
REMARK    6  A    between atoms: N_7  and  C_14
REMARK    7  A    between atoms: C_12  and  C_14
REMARK    8  A    between atoms: C_15  and  C_16
REMARK                            x       y       z     vdW  Elec       q    Type
REMARK                         _______ _______ _______ _____ _____    ______ ____
ROOT
ATOM      2  O   UNL     1      12.924   6.678  20.512  0.00  0.00    -0.371 OA
ATOM     10  C   UNL     1      10.953   7.915  20.991  0.00  0.00    +0.111 C 
ATOM     11  C   UNL     1      11.483   8.336  19.633  0.00  0.00    +0.164 C 
ATOM     12  C   UNL     1      12.355   7.141  19.275  0.00  0.00    +0.164 C 
ATOM     13  C   UNL     1      12.179   7.252  21.600  0.00  0.00    +0.181 C 
ENDROOT
BRANCH  11   3
ATOM      3  O   UNL     1      10.454   8.541  18.685  0.00  0.00    -0.388 OA
ATOM     27  H   UNL     1       9.980   7.701  18.561  0.00  0.00    +0.210 HD
ENDBRANCH  11   3
BRANCH  10   6
ATOM      6  N   UNL     1      10.453   9.021  21.791  0.00  0.00    -0.302 NA
ATOM     25  H   UNL     1      10.281   8.694  22.742  0.00  0.00    +0.123 HD
BRANCH   6  15
ATOM     15  C   UNL     1      11.415  10.115  21.835  0.00  0.00    +0.156 C 
BRANCH  15  16
ATOM      8  N   UNL     1      11.364  10.566  24.298  0.00  0.00    -0.347 N 
ATOM      9  N   UNL     1      10.812  12.275  22.993  0.00  0.00    -0.240 NA
ATOM     16  C   UNL     1      11.187  11.015  23.020  0.00  0.00    +0.121 A 
ATOM     20  C   UNL     1      11.083  11.605  25.141  0.00  0.00    +0.104 A 
ATOM     21  C   UNL     1      10.745  12.649  24.311  0.00  0.00    +0.130 A 
ATOM     28  H   UNL     1      11.650   9.636  24.574  0.00  0.00    +0.167 HD
ENDBRANCH  15  16
ENDBRANCH   6  15
ENDBRANCH  10   6
BRANCH  12  14
ATOM     14  C   UNL     1      13.464   7.478  18.294  0.00  0.00    +0.140 C 
BRANCH  14   7
ATOM      7  N   UNL     1      13.336   8.884  17.865  0.00  0.00    -0.187 NA
ATOM     26  H   UNL     1      13.005   9.541  18.583  0.00  0.00    +0.148 HD
BRANCH   7   1
ATOM      1  S   UNL     1      13.038   9.253  16.231  0.00  0.00    +0.058 S 
ATOM      4  O   UNL     1      11.608   9.371  16.018  0.00  0.00    -0.153 OA
ATOM      5  O   UNL     1      13.830   8.369  15.397  0.00  0.00    -0.153 OA
BRANCH   1  17
ATOM     17  C   UNL     1      13.745  10.867  16.089  0.00  0.00    +0.105 A 
ATOM     18  C   UNL     1      14.029  11.607  17.236  0.00  0.00    +0.028 A 
ATOM     19  C   UNL     1      14.013  11.402  14.828  0.00  0.00    +0.028 A 
ATOM     22  C   UNL     1      14.583  12.883  17.123  0.00  0.00    +0.002 A 
ATOM     23  C   UNL     1      14.567  12.677  14.716  0.00  0.00    +0.002 A 
ATOM     24  C   UNL     1      14.853  13.418  15.863  0.00  0.00    +0.000 A 
ENDBRANCH   1  17
ENDBRANCH   7   1
ENDBRANCH  14   7
ENDBRANCH  12  14
TORSDOF 8
ENDMDL
MODEL 4
REMARK VINA RESULT:      -6.2      2.116      4.091
REMARK  Name = 75367098
REMARK  8 active torsions:
REMARK  status: ('A' for Active; 'I' for Inactive)
REMARK    1  A    between atoms: S_1  and  N_7
REMARK    2  A    between atoms: S_1  and  C_17
REMARK    3  A    between atoms: O_3  and  C_11
REMARK    4  A    between atoms: N_6  and  C_10
REMARK    5  A    between atoms: N_6  and  C_15
REMARK    6  A    between atoms: N_7  and  C_14
REMARK    7  A    between atoms: C_12  and  C_14
REMARK    8  A    between atoms: C_15  and  C_16
REMARK                            x       y       z     vdW  Elec       q    Type
REMARK                         _______ _______ _______ _____ _____    ______ ____
ROOT
ATOM      2  O   UNL     1      13.913  12.367  21.562  0.00  0.00    -0.371 OA
ATOM     10  C   UNL     1      12.698  11.423  23.372  0.00  0.00    +0.111 C 
ATOM     11  C   UNL     1      14.096  10.834  23.354  0.00  0.00    +0.164 C 
ATOM     12  C   UNL     1      14.846  11.881  22.542  0.00  0.00    +0.164 C 
ATOM     13  C   UNL     1      12.587  11.978  21.961  0.00  0.00    +0.181 C 
ENDROOT
BRANCH  11   3
ATOM      3  O   UNL     1      14.642  10.681  24.650  0.00  0.00    -0.388 OA
ATOM     27  H   UNL     1      15.494  11.147  24.680  0.00  0.00    +0.210 HD
ENDBRANCH  11   3
BRANCH  10   6
ATOM      6  N   UNL     1      11.660  10.454  23.683  0.00  0.00    -0.302 NA
ATOM     25  H   UNL     1      11.048  10.840  24.402  0.00  0.00    +0.123 HD
BRANCH   6  15
ATOM     15  C   UNL     1      10.863  10.142  22.503  0.00  0.00    +0.156 C 
BRANCH  15  16
ATOM      8  N   UNL     1      12.116   8.431  21.169  0.00  0.00    -0.347 N 
ATOM      9  N   UNL     1      10.395   7.667  22.346  0.00  0.00    -0.240 NA
ATOM     16  C   UNL     1      11.095   8.733  22.026  0.00  0.00    +0.121 A 
ATOM     20  C   UNL     1      12.064   7.087  20.926  0.00  0.00    +0.104 A 
ATOM     21  C   UNL     1      10.994   6.638  21.664  0.00  0.00    +0.130 A 
ATOM     28  H   UNL     1      12.788   9.081  20.784  0.00  0.00    +0.167 HD
ENDBRANCH  15  16
ENDBRANCH   6  15
ENDBRANCH  10   6
BRANCH  12  14
ATOM     14  C   UNL     1      16.080  11.333  21.848  0.00  0.00    +0.140 C 
BRANCH  14   7
ATOM      7  N   UNL     1      16.343   9.958  22.316  0.00  0.00    -0.187 NA
ATOM     26  H   UNL     1      17.190   9.836  22.886  0.00  0.00    +0.148 HD
BRANCH   7   1
ATOM      1  S   UNL     1      15.768   8.629  21.423  0.00  0.00    +0.058 S 
ATOM      4  O   UNL     1      15.220   9.097  20.165  0.00  0.00    -0.153 OA
ATOM      5  O   UNL     1      14.977   7.782  22.295  0.00  0.00    -0.153 OA
BRANCH   1  17
ATOM     17  C   UNL     1      17.264   7.754  21.073  0.00  0.00    +0.105 A 
ATOM     18  C   UNL     1      17.234   6.622  20.257  0.00  0.00    +0.028 A 
ATOM     19  C   UNL     1      18.472   8.191  21.616  0.00  0.00    +0.028 A 
ATOM     22  C   UNL     1      18.415   5.929  19.984  0.00  0.00    +0.002 A 
ATOM     23  C   UNL     1      19.651   7.498  21.343  0.00  0.00    +0.002 A 
ATOM     24  C   UNL     1      19.623   6.367  20.527  0.00  0.00    +0.000 A 
ENDBRANCH   1  17
ENDBRANCH   7   1
ENDBRANCH  14   7
ENDBRANCH  12  14
TORSDOF 8
ENDMDL
MODEL 5
REMARK VINA RESULT:      -6.2     27.421     29.879
REMARK  Name = 75367098
REMARK  8 active torsions:
REMARK  status: ('A' for Active; 'I' for Inactive)
REMARK    1  A    between atoms: S_1  and  N_7
REMARK    2  A    between atoms: S_1  and  C_17
REMARK    3  A    between atoms: O_3  and  C_11
REMARK    4  A    between atoms: N_6  and  C_10
REMARK    5  A    between atoms: N_6  and  C_15
REMARK    6  A    between atoms: N_7  and  C_14
REMARK    7  A    between atoms: C_12  and  C_14
REMARK    8  A    between atoms: C_15  and  C_16
REMARK                            x       y       z     vdW  Elec       q    Type
REMARK                         _______ _______ _______ _____ _____    ______ ____
ROOT
ATOM      2  O   UNL     1     -16.061   2.321  24.295  0.00  0.00    -0.371 OA
ATOM     10  C   UNL     1     -17.197   2.823  26.320  0.00  0.00    +0.111 C 
ATOM     11  C   UNL     1     -16.306   3.994  25.949  0.00  0.00    +0.164 C 
ATOM     12  C   UNL     1     -16.103   3.748  24.460  0.00  0.00    +0.164 C 
ATOM     13  C   UNL     1     -16.592   1.708  25.483  0.00  0.00    +0.181 C 
ENDROOT
BRANCH  11   3
ATOM      3  O   UNL     1     -16.916   5.245  26.198  0.00  0.00    -0.388 OA
ATOM     27  H   UNL     1     -17.393   5.518  25.397  0.00  0.00    +0.210 HD
ENDBRANCH  11   3
BRANCH  10   6
ATOM      6  N   UNL     1     -17.205   2.523  27.743  0.00  0.00    -0.302 NA
ATOM     25  H   UNL     1     -17.294   1.515  27.870  0.00  0.00    +0.123 HD
BRANCH   6  15
ATOM     15  C   UNL     1     -15.974   2.973  28.380  0.00  0.00    +0.156 C 
BRANCH  15  16
ATOM      8  N   UNL     1     -14.064   2.045  29.709  0.00  0.00    -0.347 N 
ATOM      9  N   UNL     1     -15.583   0.569  29.043  0.00  0.00    -0.240 NA
ATOM     16  C   UNL     1     -15.233   1.836  29.032  0.00  0.00    +0.121 A 
ATOM     20  C   UNL     1     -13.641   0.833  30.180  0.00  0.00    +0.104 A 
ATOM     21  C   UNL     1     -14.595  -0.062  29.756  0.00  0.00    +0.130 A 
ATOM     28  H   UNL     1     -13.595   2.931  29.838  0.00  0.00    +0.167 HD
ENDBRANCH  15  16
ENDBRANCH   6  15
ENDBRANCH  10   6
BRANCH  12  14
ATOM     14  C   UNL     1     -14.826   4.365  23.918  0.00  0.00    +0.140 C 
BRANCH  14   7
ATOM      7  N   UNL     1     -14.844   4.325  22.443  0.00  0.00    -0.187 NA
ATOM     26  H   UNL     1     -14.096   3.774  22.002  0.00  0.00    +0.148 HD
BRANCH   7   1
ATOM      1  S   UNL     1     -15.526   5.613  21.564  0.00  0.00    +0.058 S 
ATOM      4  O   UNL     1     -16.181   6.526  22.480  0.00  0.00    -0.153 OA
ATOM      5  O   UNL     1     -16.249   5.076  20.427  0.00  0.00    -0.153 OA
BRANCH   1  17
ATOM     17  C   UNL     1     -14.088   6.419  20.926  0.00  0.00    +0.105 A 
ATOM     18  C   UNL     1     -12.831   6.124  21.455  0.00  0.00    +0.028 A 
ATOM     19  C   UNL     1     -14.211   7.354  19.899  0.00  0.00    +0.028 A 
ATOM     22  C   UNL     1     -11.696   6.763  20.954  0.00  0.00    +0.002 A 
ATOM     23  C   UNL     1     -13.075   7.993  19.399  0.00  0.00    +0.002 A 
ATOM     24  C   UNL     1     -11.819   7.698  19.926  0.00  0.00    +0.000 A 
ENDBRANCH   1  17
ENDBRANCH   7   1
ENDBRANCH  14   7
ENDBRANCH  12  14
TORSDOF 8
ENDMDL
MODEL 6
REMARK VINA RESULT:      -6.0     26.285     27.967
REMARK  Name = 75367098
REMARK  8 active torsions:
REMARK  status: ('A' for Active; 'I' for Inactive)
REMARK    1  A    between atoms: S_1  and  N_7
REMARK    2  A    between atoms: S_1  and  C_17
REMARK    3  A    between atoms: O_3  and  C_11
REMARK    4  A    between atoms: N_6  and  C_10
REMARK    5  A    between atoms: N_6  and  C_15
REMARK    6  A    between atoms: N_7  and  C_14
REMARK    7  A    between atoms: C_12  and  C_14
REMARK    8  A    between atoms: C_15  and  C_16
REMARK                            x       y       z     vdW  Elec       q    Type
REMARK                         _______ _______ _______ _____ _____    ______ ____
ROOT
ATOM      2  O   UNL     1      -5.465 -12.507  17.806  0.00  0.00    -0.371 OA
ATOM     10  C   UNL     1      -7.220 -10.905  17.814  0.00  0.00    +0.111 C 
ATOM     11  C   UNL     1      -5.951 -10.247  17.305  0.00  0.00    +0.164 C 
ATOM     12  C   UNL     1      -5.142 -11.462  16.873  0.00  0.00    +0.164 C 
ATOM     13  C   UNL     1      -6.661 -12.135  18.513  0.00  0.00    +0.181 C 
ENDROOT
BRANCH  11   3
ATOM      3  O   UNL     1      -6.189  -9.362  16.228  0.00  0.00    -0.388 OA
ATOM     27  H   UNL     1      -6.779  -9.803  15.594  0.00  0.00    +0.210 HD
ENDBRANCH  11   3
BRANCH  10   6
ATOM      6  N   UNL     1      -8.003 -10.058  18.699  0.00  0.00    -0.302 NA
ATOM     25  H   UNL     1      -7.746  -9.084  18.541  0.00  0.00    +0.123 HD
BRANCH   6  15
ATOM     15  C   UNL     1      -9.430 -10.216  18.448  0.00  0.00    +0.156 C 
BRANCH  15  16
ATOM      8  N   UNL     1      -9.601  -7.883  17.553  0.00  0.00    -0.347 N 
ATOM      9  N   UNL     1     -10.734  -9.431  16.435  0.00  0.00    -0.240 NA
ATOM     16  C   UNL     1      -9.942  -9.203  17.459  0.00  0.00    +0.121 A 
ATOM     20  C   UNL     1     -10.215  -7.226  16.524  0.00  0.00    +0.104 A 
ATOM     21  C   UNL     1     -10.908  -8.203  15.848  0.00  0.00    +0.130 A 
ATOM     28  H   UNL     1      -9.004  -7.466  18.255  0.00  0.00    +0.167 HD
ENDBRANCH  15  16
ENDBRANCH   6  15
ENDBRANCH  10   6
BRANCH  12  14
ATOM     14  C   UNL     1      -3.644 -11.218  16.874  0.00  0.00    +0.140 C 
BRANCH  14   7
ATOM      7  N   UNL     1      -3.297 -10.256  15.809  0.00  0.00    -0.187 NA
ATOM     26  H   UNL     1      -4.054  -9.629  15.511  0.00  0.00    +0.148 HD
BRANCH   7   1
ATOM      1  S   UNL     1      -2.065 -10.626  14.695  0.00  0.00    +0.058 S 
ATOM      4  O   UNL     1      -1.704 -12.025  14.824  0.00  0.00    -0.153 OA
ATOM      5  O   UNL     1      -1.043  -9.599  14.765  0.00  0.00    -0.153 OA
BRANCH   1  17
ATOM     17  C   UNL     1      -2.899 -10.420  13.150  0.00  0.00    +0.105 A 
ATOM     18  C   UNL     1      -4.293 -10.428  13.105  0.00  0.00    +0.028 A 
ATOM     19  C   UNL     1      -2.163 -10.254  11.977  0.00  0.00    +0.028 A 
ATOM     22  C   UNL     1      -4.952 -10.269  11.884  0.00  0.00    +0.002 A 
ATOM     23  C   UNL     1      -2.822 -10.095  10.757  0.00  0.00    +0.002 A 
ATOM     24  C   UNL     1      -4.216 -10.103  10.711  0.00  0.00    +0.000 A 
ENDBRANCH   1  17
ENDBRANCH   7   1
ENDBRANCH  14   7
ENDBRANCH  12  14
TORSDOF 8
ENDMDL
MODEL 7
REMARK VINA RESULT:      -5.9     14.070     15.763
REMARK  Name = 75367098
REMARK  8 active torsions:
REMARK  status: ('A' for Active; 'I' for Inactive)
REMARK    1  A    between atoms: S_1  and  N_7
REMARK    2  A    between atoms: S_1  and  C_17
REMARK    3  A    between atoms: O_3  and  C_11
REMARK    4  A    between atoms: N_6  and  C_10
REMARK    5  A    between atoms: N_6  and  C_15
REMARK    6  A    between atoms: N_7  and  C_14
REMARK    7  A    between atoms: C_12  and  C_14
REMARK    8  A    between atoms: C_15  and  C_16
REMARK                            x       y       z     vdW  Elec       q    Type
REMARK                         _______ _______ _______ _____ _____    ______ ____
ROOT
ATOM      2  O   UNL     1      13.357   8.941   5.368  0.00  0.00    -0.371 OA
ATOM     10  C   UNL     1      12.138   6.967   5.879  0.00  0.00    +0.111 C 
ATOM     11  C   UNL     1      13.550   6.830   6.418  0.00  0.00    +0.164 C 
ATOM     12  C   UNL     1      13.981   8.289   6.487  0.00  0.00    +0.164 C 
ATOM     13  C   UNL     1      12.309   8.091   4.870  0.00  0.00    +0.181 C 
ENDROOT
BRANCH  11   3
ATOM      3  O   UNL     1      13.592   6.207   7.687  0.00  0.00    -0.388 OA
ATOM     27  H   UNL     1      14.521   6.026   7.908  0.00  0.00    +0.210 HD
ENDBRANCH  11   3
BRANCH  10   6
ATOM      6  N   UNL     1      11.619   5.746   5.284  0.00  0.00    -0.302 NA
ATOM     25  H   UNL     1      12.094   4.945   5.700  0.00  0.00    +0.123 HD
BRANCH   6  15
ATOM     15  C   UNL     1      10.186   5.617   5.517  0.00  0.00    +0.156 C 
BRANCH  15  16
ATOM      8  N   UNL     1      10.136   4.094   7.505  0.00  0.00    -0.347 N 
ATOM      9  N   UNL     1       9.350   6.143   7.839  0.00  0.00    -0.240 NA
ATOM     16  C   UNL     1       9.876   5.320   6.960  0.00  0.00    +0.121 A 
ATOM     20  C   UNL     1       9.749   4.137   8.815  0.00  0.00    +0.104 A 
ATOM     21  C   UNL     1       9.267   5.412   8.997  0.00  0.00    +0.130 A 
ATOM     28  H   UNL     1      10.539   3.299   7.028  0.00  0.00    +0.167 HD
ENDBRANCH  15  16
ENDBRANCH   6  15
ENDBRANCH  10   6
BRANCH  12  14
ATOM     14  C   UNL     1      15.485   8.475   6.416  0.00  0.00    +0.140 C 
BRANCH  14   7
ATOM      7  N   UNL     1      15.981   8.014   5.104  0.00  0.00    -0.187 NA
ATOM     26  H   UNL     1      15.969   6.997   4.956  0.00  0.00    +0.148 HD
BRANCH   7   1
ATOM      1  S   UNL     1      17.119   8.945   4.248  0.00  0.00    +0.058 S 
ATOM      4  O   UNL     1      16.923  10.348   4.558  0.00  0.00    -0.153 OA
ATOM      5  O   UNL     1      17.149   8.500   2.868  0.00  0.00    -0.153 OA
BRANCH   1  17
ATOM     17  C   UNL     1      18.639   8.431   4.989  0.00  0.00    +0.105 A 
ATOM     18  C   UNL     1      19.531   7.635   4.270  0.00  0.00    +0.028 A 
ATOM     19  C   UNL     1      18.944   8.816   6.295  0.00  0.00    +0.028 A 
ATOM     22  C   UNL     1      20.730   7.226   4.857  0.00  0.00    +0.002 A 
ATOM     23  C   UNL     1      20.142   8.407   6.881  0.00  0.00    +0.002 A 
ATOM     24  C   UNL     1      21.035   7.612   6.162  0.00  0.00    +0.000 A 
ENDBRANCH   1  17
ENDBRANCH   7   1
ENDBRANCH  14   7
ENDBRANCH  12  14
TORSDOF 8
ENDMDL
MODEL 8
REMARK VINA RESULT:      -5.9     26.999     28.346
REMARK  Name = 75367098
REMARK  8 active torsions:
REMARK  status: ('A' for Active; 'I' for Inactive)
REMARK    1  A    between atoms: S_1  and  N_7
REMARK    2  A    between atoms: S_1  and  C_17
REMARK    3  A    between atoms: O_3  and  C_11
REMARK    4  A    between atoms: N_6  and  C_10
REMARK    5  A    between atoms: N_6  and  C_15
REMARK    6  A    between atoms: N_7  and  C_14
REMARK    7  A    between atoms: C_12  and  C_14
REMARK    8  A    between atoms: C_15  and  C_16
REMARK                            x       y       z     vdW  Elec       q    Type
REMARK                         _______ _______ _______ _____ _____    ______ ____
ROOT
ATOM      2  O   UNL     1      -5.354 -10.354  16.486  0.00  0.00    -0.371 OA
ATOM     10  C   UNL     1      -5.448 -10.705  18.833  0.00  0.00    +0.111 C 
ATOM     11  C   UNL     1      -4.590 -11.788  18.205  0.00  0.00    +0.164 C 
ATOM     12  C   UNL     1      -4.213 -11.134  16.883  0.00  0.00    +0.164 C 
ATOM     13  C   UNL     1      -6.216 -10.191  17.626  0.00  0.00    +0.181 C 
ENDROOT
BRANCH  11   3
ATOM      3  O   UNL     1      -3.451 -12.101  18.982  0.00  0.00    -0.388 OA
ATOM     27  H   UNL     1      -2.817 -12.575  18.418  0.00  0.00    +0.210 HD
ENDBRANCH  11   3
BRANCH  10   6
ATOM      6  N   UNL     1      -6.318 -11.190  19.893  0.00  0.00    -0.302 NA
ATOM     25  H   UNL     1      -6.856 -10.409  20.266  0.00  0.00    +0.123 HD
BRANCH   6  15
ATOM     15  C   UNL     1      -7.240 -12.202  19.392  0.00  0.00    +0.156 C 
BRANCH  15  16
ATOM      8  N   UNL     1      -9.122 -10.573  19.673  0.00  0.00    -0.347 N 
ATOM      9  N   UNL     1      -9.624 -12.703  20.050  0.00  0.00    -0.240 NA
ATOM     16  C   UNL     1      -8.672 -11.863  19.712  0.00  0.00    +0.121 A 
ATOM     20  C   UNL     1     -10.447 -10.592  20.009  0.00  0.00    +0.104 A 
ATOM     21  C   UNL     1     -10.734 -11.917  20.236  0.00  0.00    +0.130 A 
ATOM     28  H   UNL     1      -8.578  -9.754  19.440  0.00  0.00    +0.167 HD
ENDBRANCH  15  16
ENDBRANCH   6  15
ENDBRANCH  10   6
BRANCH  12  14
ATOM     14  C   UNL     1      -3.871 -12.134  15.794  0.00  0.00    +0.140 C 
BRANCH  14   7
ATOM      7  N   UNL     1      -4.051 -11.506  14.470  0.00  0.00    -0.187 NA
ATOM     26  H   UNL     1      -4.945 -11.703  14.001  0.00  0.00    +0.148 HD
BRANCH   7   1
ATOM      1  S   UNL     1      -2.696 -11.139  13.509  0.00  0.00    +0.058 S 
ATOM      4  O   UNL     1      -2.130 -12.368  12.987  0.00  0.00    -0.153 OA
ATOM      5  O   UNL     1      -1.858 -10.193  14.219  0.00  0.00    -0.153 OA
BRANCH   1  17
ATOM     17  C   UNL     1      -3.433 -10.265  12.161  0.00  0.00    +0.105 A 
ATOM     18  C   UNL     1      -4.791  -9.945  12.196  0.00  0.00    +0.028 A 
ATOM     19  C   UNL     1      -2.659  -9.901  11.059  0.00  0.00    +0.028 A 
ATOM     22  C   UNL     1      -5.373  -9.259  11.130  0.00  0.00    +0.002 A 
ATOM     23  C   UNL     1      -3.242  -9.214   9.993  0.00  0.00    +0.002 A 
ATOM     24  C   UNL     1      -4.599  -8.893  10.029  0.00  0.00    +0.000 A 
ENDBRANCH   1  17
ENDBRANCH   7   1
ENDBRANCH  14   7
ENDBRANCH  12  14
TORSDOF 8
ENDMDL
MODEL 9
REMARK VINA RESULT:      -5.9     27.553     29.356
REMARK  Name = 75367098
REMARK  8 active torsions:
REMARK  status: ('A' for Active; 'I' for Inactive)
REMARK    1  A    between atoms: S_1  and  N_7
REMARK    2  A    between atoms: S_1  and  C_17
REMARK    3  A    between atoms: O_3  and  C_11
REMARK    4  A    between atoms: N_6  and  C_10
REMARK    5  A    between atoms: N_6  and  C_15
REMARK    6  A    between atoms: N_7  and  C_14
REMARK    7  A    between atoms: C_12  and  C_14
REMARK    8  A    between atoms: C_15  and  C_16
REMARK                            x       y       z     vdW  Elec       q    Type
REMARK                         _______ _______ _______ _____ _____    ______ ____
ROOT
ATOM      2  O   UNL     1     -11.109  -9.836  17.190  0.00  0.00    -0.371 OA
ATOM     10  C   UNL     1     -10.028  -8.129  15.941  0.00  0.00    +0.111 C 
ATOM     11  C   UNL     1      -9.061  -8.670  16.977  0.00  0.00    +0.164 C 
ATOM     12  C   UNL     1      -9.686 -10.024  17.283  0.00  0.00    +0.164 C 
ATOM     13  C   UNL     1     -11.362  -8.601  16.497  0.00  0.00    +0.181 C 
ENDROOT
BRANCH  11   3
ATOM      3  O   UNL     1      -7.743  -8.798  16.482  0.00  0.00    -0.388 OA
ATOM     27  H   UNL     1      -7.539  -9.744  16.395  0.00  0.00    +0.210 HD
ENDBRANCH  11   3
BRANCH  10   6
ATOM      6  N   UNL     1      -9.962  -6.686  15.778  0.00  0.00    -0.302 NA
ATOM     25  H   UNL     1      -9.517  -6.471  14.885  0.00  0.00    +0.123 HD
BRANCH   6  15
ATOM     15  C   UNL     1     -11.293  -6.094  15.797  0.00  0.00    +0.156 C 
BRANCH  15  16
ATOM      8  N   UNL     1     -11.762  -4.619  13.827  0.00  0.00    -0.347 N 
ATOM      9  N   UNL     1     -12.375  -6.743  13.611  0.00  0.00    -0.240 NA
ATOM     16  C   UNL     1     -11.821  -5.855  14.407  0.00  0.00    +0.121 A 
ATOM     20  C   UNL     1     -12.314  -4.725  12.581  0.00  0.00    +0.104 A 
ATOM     21  C   UNL     1     -12.684  -6.045  12.471  0.00  0.00    +0.130 A 
ATOM     28  H   UNL     1     -11.381  -3.779  14.241  0.00  0.00    +0.167 HD
ENDBRANCH  15  16
ENDBRANCH   6  15
ENDBRANCH  10   6
BRANCH  12  14
ATOM     14  C   UNL     1      -9.328 -10.555  18.660  0.00  0.00    +0.140 C 
BRANCH  14   7
ATOM      7  N   UNL     1      -7.910 -10.265  18.950  0.00  0.00    -0.187 NA
ATOM     26  H   UNL     1      -7.507  -9.464  18.447  0.00  0.00    +0.148 HD
BRANCH   7   1
ATOM      1  S   UNL     1      -6.870 -11.515  19.450  0.00  0.00    +0.058 S 
ATOM      4  O   UNL     1      -7.610 -12.760  19.514  0.00  0.00    -0.153 OA
ATOM      5  O   UNL     1      -6.105 -11.061  20.595  0.00  0.00    -0.153 OA
BRANCH   1  17
ATOM     17  C   UNL     1      -5.747 -11.618  18.089  0.00  0.00    +0.105 A 
ATOM     18  C   UNL     1      -4.928 -10.533  17.776  0.00  0.00    +0.028 A 
ATOM     19  C   UNL     1      -5.684 -12.783  17.324  0.00  0.00    +0.028 A 
ATOM     22  C   UNL     1      -4.045 -10.614  16.699  0.00  0.00    +0.002 A 
ATOM     23  C   UNL     1      -4.800 -12.863  16.247  0.00  0.00    +0.002 A 
ATOM     24  C   UNL     1      -3.981 -11.779  15.935  0.00  0.00    +0.000 A 
ENDBRANCH   1  17
ENDBRANCH   7   1
ENDBRANCH  14   7
ENDBRANCH  12  14
TORSDOF 8
ENDMDL
MODEL 10
REMARK VINA RESULT:      -5.8     26.652     29.621
REMARK  Name = 75367098
REMARK  8 active torsions:
REMARK  status: ('A' for Active; 'I' for Inactive)
REMARK    1  A    between atoms: S_1  and  N_7
REMARK    2  A    between atoms: S_1  and  C_17
REMARK    3  A    between atoms: O_3  and  C_11
REMARK    4  A    between atoms: N_6  and  C_10
REMARK    5  A    between atoms: N_6  and  C_15
REMARK    6  A    between atoms: N_7  and  C_14
REMARK    7  A    between atoms: C_12  and  C_14
REMARK    8  A    between atoms: C_15  and  C_16
REMARK                            x       y       z     vdW  Elec       q    Type
REMARK                         _______ _______ _______ _____ _____    ______ ____
ROOT
ATOM      2  O   UNL     1     -17.026   3.540  22.240  0.00  0.00    -0.371 OA
ATOM     10  C   UNL     1     -16.900   2.571  24.405  0.00  0.00    +0.111 C 
ATOM     11  C   UNL     1     -15.688   3.458  24.189  0.00  0.00    +0.164 C 
ATOM     12  C   UNL     1     -16.180   4.360  23.065  0.00  0.00    +0.164 C 
ATOM     13  C   UNL     1     -17.373   2.355  22.976  0.00  0.00    +0.181 C 
ENDROOT
BRANCH  11   3
ATOM      3  O   UNL     1     -15.339   4.197  25.343  0.00  0.00    -0.388 OA
ATOM     27  H   UNL     1     -14.537   4.709  25.147  0.00  0.00    +0.210 HD
ENDBRANCH  11   3
BRANCH  10   6
ATOM      6  N   UNL     1     -16.598   1.328  25.095  0.00  0.00    -0.302 NA
ATOM     25  H   UNL     1     -15.603   1.305  25.322  0.00  0.00    +0.123 HD
BRANCH   6  15
ATOM     15  C   UNL     1     -17.366   1.212  26.328  0.00  0.00    +0.156 C 
BRANCH  15  16
ATOM      8  N   UNL     1     -16.012   2.709  27.812  0.00  0.00    -0.347 N 
ATOM      9  N   UNL     1     -16.163   0.591  28.458  0.00  0.00    -0.240 NA
ATOM     16  C   UNL     1     -16.516   1.467  27.545  0.00  0.00    +0.121 A 
ATOM     20  C   UNL     1     -15.291   2.619  28.970  0.00  0.00    +0.104 A 
ATOM     21  C   UNL     1     -15.400   1.301  29.350  0.00  0.00    +0.130 A 
ATOM     28  H   UNL     1     -16.146   3.544  27.257  0.00  0.00    +0.167 HD
ENDBRANCH  15  16
ENDBRANCH   6  15
ENDBRANCH  10   6
BRANCH  12  14
ATOM     14  C   UNL     1     -15.058   4.944  22.228  0.00  0.00    +0.140 C 
BRANCH  14   7
ATOM      7  N   UNL     1     -14.468   6.103  22.928  0.00  0.00    -0.187 NA
ATOM     26  H   UNL     1     -14.250   5.959  23.922  0.00  0.00    +0.148 HD
BRANCH   7   1
ATOM      1  S   UNL     1     -14.801   7.683  22.392  0.00  0.00    +0.058 S 
ATOM      4  O   UNL     1     -14.844   8.578  23.532  0.00  0.00    -0.153 OA
ATOM      5  O   UNL     1     -15.908   7.639  21.456  0.00  0.00    -0.153 OA
BRANCH   1  17
ATOM     17  C   UNL     1     -13.350   8.062  21.456  0.00  0.00    +0.105 A 
ATOM     18  C   UNL     1     -13.018   9.390  21.191  0.00  0.00    +0.028 A 
ATOM     19  C   UNL     1     -12.540   7.031  20.979  0.00  0.00    +0.028 A 
ATOM     22  C   UNL     1     -11.875   9.689  20.449  0.00  0.00    +0.002 A 
ATOM     23  C   UNL     1     -11.396   7.331  20.236  0.00  0.00    +0.002 A 
ATOM     24  C   UNL     1     -11.064   8.659  19.972  0.00  0.00    +0.000 A 
ENDBRANCH   1  17
ENDBRANCH   7   1
ENDBRANCH  14   7
ENDBRANCH  12  14
TORSDOF 8
ENDMDL
