MODEL 1
REMARK VINA RESULT:      -7.1      0.000      0.000
REMARK  Name = 26742708
REMARK  6 active torsions:
REMARK  status: ('A' for Active; 'I' for Inactive)
REMARK    1  A    between atoms: O_3  and  C_29
REMARK    2  A    between atoms: O_3  and  C_30
REMARK    3  A    between atoms: N_5  and  C_16
REMARK    4  A    between atoms: C_15  and  C_17
REMARK    5  A    between atoms: C_16  and  C_18
REMARK    6  A    between atoms: C_17  and  C_19
REMARK                            x       y       z     vdW  Elec       q    Type
REMARK                         _______ _______ _______ _____ _____    ______ ____
ROOT
ATOM      1  O   UNL     1      -1.889 -10.221  16.137  0.00  0.00    -0.276 OA
ATOM      2  O   UNL     1      -3.800  -8.744   9.566  0.00  0.00    -0.275 OA
ATOM      4  N   UNL     1      -3.217 -10.722  10.637  0.00  0.00    -0.301 N 
ATOM      5  N   UNL     1      -3.958 -11.011  15.448  0.00  0.00    -0.297 N 
ATOM      6  C   UNL     1      -3.422 -12.329  12.526  0.00  0.00    +0.011 C 
ATOM      7  C   UNL     1      -2.074 -11.801  13.068  0.00  0.00    +0.004 C 
ATOM      8  C   UNL     1      -1.818 -10.346  12.631  0.00  0.00    +0.023 C 
ATOM      9  C   UNL     1      -3.483 -12.120  10.999  0.00  0.00    +0.111 C 
ATOM     10  C   UNL     1      -4.677 -11.729  13.189  0.00  0.00    +0.024 C 
ATOM     11  C   UNL     1      -1.876 -12.016  14.574  0.00  0.00    +0.100 C 
ATOM     12  C   UNL     1      -1.937 -10.200  11.115  0.00  0.00    +0.108 C 
ATOM     13  C   UNL     1      -4.747 -11.981  14.691  0.00  0.00    +0.108 C 
ATOM     14  C   UNL     1      -2.569 -10.999  15.462  0.00  0.00    +0.216 C 
ATOM     15  C   UNL     1      -4.058  -9.910   9.878  0.00  0.00    +0.220 C 
ENDROOT
BRANCH   5  16
ATOM     16  C   UNL     1      -4.704 -10.014  16.206  0.00  0.00    +0.142 C 
BRANCH  16  18
ATOM     18  C   UNL     1      -5.311 -10.593  17.451  0.00  0.00    -0.030 A 
ATOM     20  C   UNL     1      -6.674 -10.431  17.704  0.00  0.00    +0.005 A 
ATOM     21  C   UNL     1      -4.513 -11.295  18.355  0.00  0.00    +0.005 A 
ATOM     24  C   UNL     1      -7.238 -10.969  18.861  0.00  0.00    +0.000 A 
ATOM     25  C   UNL     1      -5.077 -11.833  19.512  0.00  0.00    +0.000 A 
ATOM     26  C   UNL     1      -6.440 -11.670  19.765  0.00  0.00    +0.000 A 
ENDBRANCH  16  18
ENDBRANCH   5  16
BRANCH  15  17
ATOM     17  C   UNL     1      -5.361 -10.521   9.426  0.00  0.00    +0.131 C 
BRANCH  17  19
ATOM     19  C   UNL     1      -5.311 -10.851   7.968  0.00  0.00    -0.038 A 
ATOM     22  C   UNL     1      -6.085 -10.126   7.062  0.00  0.00    +0.007 A 
ATOM     23  C   UNL     1      -4.490 -11.883   7.514  0.00  0.00    +0.007 A 
ATOM     27  C   UNL     1      -6.038 -10.433   5.701  0.00  0.00    +0.046 A 
ATOM     28  C   UNL     1      -4.442 -12.190   6.154  0.00  0.00    +0.046 A 
ATOM     29  C   UNL     1      -5.217 -11.465   5.248  0.00  0.00    +0.120 A 
BRANCH  29   3
ATOM      3  O   UNL     1      -5.168 -11.763   3.921  0.00  0.00    -0.495 OA
ATOM     30  C   UNL     1      -4.016 -12.464   3.453  0.00  0.00    +0.277 C 
ENDBRANCH  29   3
ENDBRANCH  17  19
ENDBRANCH  15  17
TORSDOF 5
ENDMDL
MODEL 2
REMARK VINA RESULT:      -6.9      3.016      4.964
REMARK  Name = 26742708
REMARK  6 active torsions:
REMARK  status: ('A' for Active; 'I' for Inactive)
REMARK    1  A    between atoms: O_3  and  C_29
REMARK    2  A    between atoms: O_3  and  C_30
REMARK    3  A    between atoms: N_5  and  C_16
REMARK    4  A    between atoms: C_15  and  C_17
REMARK    5  A    between atoms: C_16  and  C_18
REMARK    6  A    between atoms: C_17  and  C_19
REMARK                            x       y       z     vdW  Elec       q    Type
REMARK                         _______ _______ _______ _____ _____    ______ ____
ROOT
ATOM      1  O   UNL     1      -6.545  -9.921  18.767  0.00  0.00    -0.276 OA
ATOM      2  O   UNL     1      -1.554  -9.836  13.859  0.00  0.00    -0.275 OA
ATOM      4  N   UNL     1      -2.682 -11.557  14.937  0.00  0.00    -0.301 N 
ATOM      5  N   UNL     1      -7.155 -10.629  16.644  0.00  0.00    -0.297 N 
ATOM      6  C   UNL     1      -4.780 -12.646  15.718  0.00  0.00    +0.011 C 
ATOM      7  C   UNL     1      -4.457 -12.149  17.147  0.00  0.00    +0.004 C 
ATOM      8  C   UNL     1      -3.596 -10.872  17.122  0.00  0.00    +0.023 C 
ATOM      9  C   UNL     1      -3.471 -12.795  14.914  0.00  0.00    +0.111 C 
ATOM     10  C   UNL     1      -5.782 -11.779  14.932  0.00  0.00    +0.024 C 
ATOM     11  C   UNL     1      -5.684 -12.024  18.059  0.00  0.00    +0.100 C 
ATOM     12  C   UNL     1      -2.340 -11.074  16.275  0.00  0.00    +0.108 C 
ATOM     13  C   UNL     1      -7.143 -11.663  15.610  0.00  0.00    +0.108 C 
ATOM     14  C   UNL     1      -6.501 -10.760  17.863  0.00  0.00    +0.216 C 
ATOM     15  C   UNL     1      -2.238 -10.863  13.813  0.00  0.00    +0.220 C 
ENDROOT
BRANCH   5  16
ATOM     16  C   UNL     1      -7.893  -9.411  16.339  0.00  0.00    +0.142 C 
BRANCH  16  18
ATOM     18  C   UNL     1      -9.363  -9.562  16.604  0.00  0.00    -0.030 A 
ATOM     20  C   UNL     1     -10.238  -9.833  15.552  0.00  0.00    +0.005 A 
ATOM     21  C   UNL     1      -9.855  -9.433  17.904  0.00  0.00    +0.005 A 
ATOM     24  C   UNL     1     -11.604  -9.973  15.798  0.00  0.00    +0.000 A 
ATOM     25  C   UNL     1     -11.220  -9.574  18.150  0.00  0.00    +0.000 A 
ATOM     26  C   UNL     1     -12.095  -9.844  17.097  0.00  0.00    +0.000 A 
ENDBRANCH  16  18
ENDBRANCH   5  16
BRANCH  15  17
ATOM     17  C   UNL     1      -2.636 -11.422  12.471  0.00  0.00    +0.131 C 
BRANCH  17  19
ATOM     19  C   UNL     1      -3.454 -10.430  11.706  0.00  0.00    -0.038 A 
ATOM     22  C   UNL     1      -4.713 -10.055  12.175  0.00  0.00    +0.007 A 
ATOM     23  C   UNL     1      -2.957  -9.879  10.525  0.00  0.00    +0.007 A 
ATOM     27  C   UNL     1      -5.475  -9.128  11.463  0.00  0.00    +0.046 A 
ATOM     28  C   UNL     1      -3.719  -8.953   9.813  0.00  0.00    +0.046 A 
ATOM     29  C   UNL     1      -4.978  -8.577  10.283  0.00  0.00    +0.120 A 
BRANCH  29   3
ATOM      3  O   UNL     1      -5.721  -7.672   9.589  0.00  0.00    -0.495 OA
ATOM     30  C   UNL     1      -6.941  -8.137   9.012  0.00  0.00    +0.277 C 
ENDBRANCH  29   3
ENDBRANCH  17  19
ENDBRANCH  15  17
TORSDOF 5
ENDMDL
MODEL 3
REMARK VINA RESULT:      -6.8      2.572      7.599
REMARK  Name = 26742708
REMARK  6 active torsions:
REMARK  status: ('A' for Active; 'I' for Inactive)
REMARK    1  A    between atoms: O_3  and  C_29
REMARK    2  A    between atoms: O_3  and  C_30
REMARK    3  A    between atoms: N_5  and  C_16
REMARK    4  A    between atoms: C_15  and  C_17
REMARK    5  A    between atoms: C_16  and  C_18
REMARK    6  A    between atoms: C_17  and  C_19
REMARK                            x       y       z     vdW  Elec       q    Type
REMARK                         _______ _______ _______ _____ _____    ______ ____
ROOT
ATOM      1  O   UNL     1      -6.731 -11.487   8.635  0.00  0.00    -0.276 OA
ATOM      2  O   UNL     1      -3.549 -13.566  14.513  0.00  0.00    -0.275 OA
ATOM      4  N   UNL     1      -2.847 -12.293  12.701  0.00  0.00    -0.301 N 
ATOM      5  N   UNL     1      -6.236  -9.841  10.193  0.00  0.00    -0.297 N 
ATOM      6  C   UNL     1      -3.166 -10.427  11.085  0.00  0.00    +0.011 C 
ATOM      7  C   UNL     1      -3.563 -11.473  10.018  0.00  0.00    +0.004 C 
ATOM      8  C   UNL     1      -4.155 -12.741  10.661  0.00  0.00    +0.023 C 
ATOM      9  C   UNL     1      -2.242 -11.081  12.133  0.00  0.00    +0.111 C 
ATOM     10  C   UNL     1      -4.344  -9.727  11.788  0.00  0.00    +0.024 C 
ATOM     11  C   UNL     1      -4.434 -10.915   8.885  0.00  0.00    +0.100 C 
ATOM     12  C   UNL     1      -3.213 -13.313  11.718  0.00  0.00    +0.108 C 
ATOM     13  C   UNL     1      -5.254  -8.965  10.831  0.00  0.00    +0.108 C 
ATOM     14  C   UNL     1      -5.908 -10.777   9.220  0.00  0.00    +0.216 C 
ATOM     15  C   UNL     1      -3.060 -12.528  14.058  0.00  0.00    +0.220 C 
ENDROOT
BRANCH   5  16
ATOM     16  C   UNL     1      -7.617  -9.703  10.636  0.00  0.00    +0.142 C 
BRANCH  16  18
ATOM     18  C   UNL     1      -7.884 -10.473  11.896  0.00  0.00    -0.030 A 
ATOM     20  C   UNL     1      -7.319 -11.737  12.075  0.00  0.00    +0.005 A 
ATOM     21  C   UNL     1      -8.695  -9.926  12.891  0.00  0.00    +0.005 A 
ATOM     24  C   UNL     1      -7.567 -12.453  13.246  0.00  0.00    +0.000 A 
ATOM     25  C   UNL     1      -8.942 -10.641  14.062  0.00  0.00    +0.000 A 
ATOM     26  C   UNL     1      -8.378 -11.905  14.240  0.00  0.00    +0.000 A 
ENDBRANCH  16  18
ENDBRANCH   5  16
BRANCH  15  17
ATOM     17  C   UNL     1      -2.660 -11.427  15.007  0.00  0.00    +0.131 C 
BRANCH  17  19
ATOM     19  C   UNL     1      -3.831 -10.987  15.828  0.00  0.00    -0.038 A 
ATOM     22  C   UNL     1      -4.875 -10.281  15.232  0.00  0.00    +0.007 A 
ATOM     23  C   UNL     1      -3.878 -11.284  17.190  0.00  0.00    +0.007 A 
ATOM     27  C   UNL     1      -5.968  -9.872  15.998  0.00  0.00    +0.046 A 
ATOM     28  C   UNL     1      -4.970 -10.875  17.956  0.00  0.00    +0.046 A 
ATOM     29  C   UNL     1      -6.015 -10.169  17.359  0.00  0.00    +0.120 A 
BRANCH  29   3
ATOM      3  O   UNL     1      -7.081  -9.773  18.106  0.00  0.00    -0.495 OA
ATOM     30  C   UNL     1      -8.203  -9.237  17.405  0.00  0.00    +0.277 C 
ENDBRANCH  29   3
ENDBRANCH  17  19
ENDBRANCH  15  17
TORSDOF 5
ENDMDL
MODEL 4
REMARK VINA RESULT:      -6.5      2.694      5.567
REMARK  Name = 26742708
REMARK  6 active torsions:
REMARK  status: ('A' for Active; 'I' for Inactive)
REMARK    1  A    between atoms: O_3  and  C_29
REMARK    2  A    between atoms: O_3  and  C_30
REMARK    3  A    between atoms: N_5  and  C_16
REMARK    4  A    between atoms: C_15  and  C_17
REMARK    5  A    between atoms: C_16  and  C_18
REMARK    6  A    between atoms: C_17  and  C_19
REMARK                            x       y       z     vdW  Elec       q    Type
REMARK                         _______ _______ _______ _____ _____    ______ ____
ROOT
ATOM      1  O   UNL     1      -9.359 -11.806  14.731  0.00  0.00    -0.276 OA
ATOM      2  O   UNL     1      -5.505 -12.238   8.904  0.00  0.00    -0.275 OA
ATOM      4  N   UNL     1      -6.373 -10.443  10.096  0.00  0.00    -0.301 N 
ATOM      5  N   UNL     1      -7.170 -11.051  14.868  0.00  0.00    -0.297 N 
ATOM      6  C   UNL     1      -6.752  -9.208  12.224  0.00  0.00    +0.011 C 
ATOM      7  C   UNL     1      -8.208  -9.730  12.219  0.00  0.00    +0.004 C 
ATOM      8  C   UNL     1      -8.329 -11.065  11.460  0.00  0.00    +0.023 C 
ATOM      9  C   UNL     1      -6.218  -9.150  10.778  0.00  0.00    +0.111 C 
ATOM     10  C   UNL     1      -5.774  -9.999  13.113  0.00  0.00    +0.024 C 
ATOM     11  C   UNL     1      -8.865  -9.769  13.605  0.00  0.00    +0.100 C 
ATOM     12  C   UNL     1      -7.744 -10.951  10.054  0.00  0.00    +0.108 C 
ATOM     13  C   UNL     1      -6.175 -10.019  14.584  0.00  0.00    +0.108 C 
ATOM     14  C   UNL     1      -8.495 -10.970  14.455  0.00  0.00    +0.216 C 
ATOM     15  C   UNL     1      -5.345 -11.164   9.493  0.00  0.00    +0.220 C 
ENDROOT
BRANCH   5  16
ATOM     16  C   UNL     1      -6.709 -12.213  15.617  0.00  0.00    +0.142 C 
BRANCH  16  18
ATOM     18  C   UNL     1      -6.332 -11.861  17.026  0.00  0.00    -0.030 A 
ATOM     20  C   UNL     1      -5.009 -11.999  17.450  0.00  0.00    +0.005 A 
ATOM     21  C   UNL     1      -7.303 -11.394  17.913  0.00  0.00    +0.005 A 
ATOM     24  C   UNL     1      -4.658 -11.671  18.760  0.00  0.00    +0.000 A 
ATOM     25  C   UNL     1      -6.952 -11.066  19.222  0.00  0.00    +0.000 A 
ATOM     26  C   UNL     1      -5.629 -11.205  19.646  0.00  0.00    +0.000 A 
ENDBRANCH  16  18
ENDBRANCH   5  16
BRANCH  15  17
ATOM     17  C   UNL     1      -3.960 -10.575   9.583  0.00  0.00    +0.131 C 
BRANCH  17  19
ATOM     19  C   UNL     1      -3.286 -11.001  10.849  0.00  0.00    -0.038 A 
ATOM     22  C   UNL     1      -3.331 -12.337  11.248  0.00  0.00    +0.007 A 
ATOM     23  C   UNL     1      -2.609 -10.063  11.629  0.00  0.00    +0.007 A 
ATOM     27  C   UNL     1      -2.701 -12.735  12.427  0.00  0.00    +0.046 A 
ATOM     28  C   UNL     1      -1.978 -10.461  12.807  0.00  0.00    +0.046 A 
ATOM     29  C   UNL     1      -2.024 -11.797  13.206  0.00  0.00    +0.120 A 
BRANCH  29   3
ATOM      3  O   UNL     1      -1.407 -12.185  14.356  0.00  0.00    -0.495 OA
ATOM     30  C   UNL     1      -1.200 -11.185  15.352  0.00  0.00    +0.277 C 
ENDBRANCH  29   3
ENDBRANCH  17  19
ENDBRANCH  15  17
TORSDOF 5
ENDMDL
MODEL 5
REMARK VINA RESULT:      -6.5     23.534     26.137
REMARK  Name = 26742708
REMARK  6 active torsions:
REMARK  status: ('A' for Active; 'I' for Inactive)
REMARK    1  A    between atoms: O_3  and  C_29
REMARK    2  A    between atoms: O_3  and  C_30
REMARK    3  A    between atoms: N_5  and  C_16
REMARK    4  A    between atoms: C_15  and  C_17
REMARK    5  A    between atoms: C_16  and  C_18
REMARK    6  A    between atoms: C_17  and  C_19
REMARK                            x       y       z     vdW  Elec       q    Type
REMARK                         _______ _______ _______ _____ _____    ______ ____
ROOT
ATOM      1  O   UNL     1      15.419   6.853   4.457  0.00  0.00    -0.276 OA
ATOM      2  O   UNL     1       9.035   5.616   7.051  0.00  0.00    -0.275 OA
ATOM      4  N   UNL     1      10.605   7.284   7.442  0.00  0.00    -0.301 N 
ATOM      5  N   UNL     1      13.742   8.341   3.861  0.00  0.00    -0.297 N 
ATOM      6  C   UNL     1      12.197   9.021   6.639  0.00  0.00    +0.011 C 
ATOM      7  C   UNL     1      13.356   8.048   6.960  0.00  0.00    +0.004 C 
ATOM      8  C   UNL     1      12.900   6.579   6.885  0.00  0.00    +0.023 C 
ATOM      9  C   UNL     1      10.987   8.699   7.540  0.00  0.00    +0.111 C 
ATOM     10  C   UNL     1      11.758   9.054   5.163  0.00  0.00    +0.024 C 
ATOM     11  C   UNL     1      14.640   8.317   6.164  0.00  0.00    +0.100 C 
ATOM     12  C   UNL     1      11.674   6.339   7.763  0.00  0.00    +0.108 C 
ATOM     13  C   UNL     1      12.875   9.466   4.209  0.00  0.00    +0.108 C 
ATOM     14  C   UNL     1      14.642   7.767   4.750  0.00  0.00    +0.216 C 
ATOM     15  C   UNL     1       9.338   6.812   7.103  0.00  0.00    +0.220 C 
ENDROOT
BRANCH   5  16
ATOM     16  C   UNL     1      13.619   7.818   2.507  0.00  0.00    +0.142 C 
BRANCH  16  18
ATOM     18  C   UNL     1      12.989   6.456   2.485  0.00  0.00    -0.030 A 
ATOM     20  C   UNL     1      11.839   6.206   3.235  0.00  0.00    +0.005 A 
ATOM     21  C   UNL     1      13.552   5.438   1.713  0.00  0.00    +0.005 A 
ATOM     24  C   UNL     1      11.254   4.940   3.215  0.00  0.00    +0.000 A 
ATOM     25  C   UNL     1      12.966   4.173   1.693  0.00  0.00    +0.000 A 
ATOM     26  C   UNL     1      11.816   3.924   2.444  0.00  0.00    +0.000 A 
ENDBRANCH  16  18
ENDBRANCH   5  16
BRANCH  15  17
ATOM     17  C   UNL     1       8.293   7.849   6.782  0.00  0.00    +0.131 C 
BRANCH  17  19
ATOM     19  C   UNL     1       8.371   8.250   5.342  0.00  0.00    -0.038 A 
ATOM     22  C   UNL     1       8.225   9.590   4.982  0.00  0.00    +0.007 A 
ATOM     23  C   UNL     1       8.592   7.284   4.360  0.00  0.00    +0.007 A 
ATOM     27  C   UNL     1       8.300   9.964   3.640  0.00  0.00    +0.046 A 
ATOM     28  C   UNL     1       8.667   7.658   3.019  0.00  0.00    +0.046 A 
ATOM     29  C   UNL     1       8.521   8.999   2.659  0.00  0.00    +0.120 A 
BRANCH  29   3
ATOM      3  O   UNL     1       8.597   9.364   1.350  0.00  0.00    -0.495 OA
ATOM     30  C   UNL     1       9.415   8.563   0.498  0.00  0.00    +0.277 C 
ENDBRANCH  29   3
ENDBRANCH  17  19
ENDBRANCH  15  17
TORSDOF 5
ENDMDL
MODEL 6
REMARK VINA RESULT:      -6.5     20.810     22.297
REMARK  Name = 26742708
REMARK  6 active torsions:
REMARK  status: ('A' for Active; 'I' for Inactive)
REMARK    1  A    between atoms: O_3  and  C_29
REMARK    2  A    between atoms: O_3  and  C_30
REMARK    3  A    between atoms: N_5  and  C_16
REMARK    4  A    between atoms: C_15  and  C_17
REMARK    5  A    between atoms: C_16  and  C_18
REMARK    6  A    between atoms: C_17  and  C_19
REMARK                            x       y       z     vdW  Elec       q    Type
REMARK                         _______ _______ _______ _____ _____    ______ ____
ROOT
ATOM      1  O   UNL     1     -13.565   5.239  22.363  0.00  0.00    -0.276 OA
ATOM      2  O   UNL     1     -17.241   5.189  16.406  0.00  0.00    -0.275 OA
ATOM      4  N   UNL     1     -17.359   6.493  18.325  0.00  0.00    -0.301 N 
ATOM      5  N   UNL     1     -13.286   7.055  20.947  0.00  0.00    -0.297 N 
ATOM      6  C   UNL     1     -16.297   7.910  20.075  0.00  0.00    +0.011 C 
ATOM      7  C   UNL     1     -16.402   6.714  21.049  0.00  0.00    +0.004 C 
ATOM      8  C   UNL     1     -16.399   5.369  20.298  0.00  0.00    +0.023 C 
ATOM      9  C   UNL     1     -17.397   7.798  18.998  0.00  0.00    +0.111 C 
ATOM     10  C   UNL     1     -14.923   8.093  19.405  0.00  0.00    +0.024 C 
ATOM     11  C   UNL     1     -15.393   6.755  22.204  0.00  0.00    +0.100 C 
ATOM     12  C   UNL     1     -17.479   5.341  19.219  0.00  0.00    +0.108 C 
ATOM     13  C   UNL     1     -13.789   8.314  20.400  0.00  0.00    +0.108 C 
ATOM     14  C   UNL     1     -13.997   6.276  21.851  0.00  0.00    +0.216 C 
ATOM     15  C   UNL     1     -17.247   6.297  16.950  0.00  0.00    +0.220 C 
ENDROOT
BRANCH   5  16
ATOM     16  C   UNL     1     -11.971   6.625  20.489  0.00  0.00    +0.142 C 
BRANCH  16  18
ATOM     18  C   UNL     1     -11.333   7.635  19.580  0.00  0.00    -0.030 A 
ATOM     20  C   UNL     1     -10.830   8.826  20.105  0.00  0.00    +0.005 A 
ATOM     21  C   UNL     1     -11.242   7.383  18.211  0.00  0.00    +0.005 A 
ATOM     24  C   UNL     1     -10.237   9.765  19.261  0.00  0.00    +0.000 A 
ATOM     25  C   UNL     1     -10.648   8.321  17.367  0.00  0.00    +0.000 A 
ATOM     26  C   UNL     1     -10.146   9.513  17.892  0.00  0.00    +0.000 A 
ENDBRANCH  16  18
ENDBRANCH   5  16
BRANCH  15  17
ATOM     17  C   UNL     1     -17.122   7.535  16.098  0.00  0.00    +0.131 C 
BRANCH  17  19
ATOM     19  C   UNL     1     -15.825   7.535  15.352  0.00  0.00    -0.038 A 
ATOM     22  C   UNL     1     -15.739   6.924  14.102  0.00  0.00    +0.007 A 
ATOM     23  C   UNL     1     -14.702   8.149  15.907  0.00  0.00    +0.007 A 
ATOM     27  C   UNL     1     -14.530   6.926  13.405  0.00  0.00    +0.046 A 
ATOM     28  C   UNL     1     -13.493   8.151  15.211  0.00  0.00    +0.046 A 
ATOM     29  C   UNL     1     -13.408   7.539  13.960  0.00  0.00    +0.120 A 
BRANCH  29   3
ATOM      3  O   UNL     1     -12.228   7.543  13.280  0.00  0.00    -0.495 OA
ATOM     30  C   UNL     1     -11.305   8.587  13.586  0.00  0.00    +0.277 C 
ENDBRANCH  29   3
ENDBRANCH  17  19
ENDBRANCH  15  17
TORSDOF 5
ENDMDL
MODEL 7
REMARK VINA RESULT:      -6.5      5.266      9.127
REMARK  Name = 26742708
REMARK  6 active torsions:
REMARK  status: ('A' for Active; 'I' for Inactive)
REMARK    1  A    between atoms: O_3  and  C_29
REMARK    2  A    between atoms: O_3  and  C_30
REMARK    3  A    between atoms: N_5  and  C_16
REMARK    4  A    between atoms: C_15  and  C_17
REMARK    5  A    between atoms: C_16  and  C_18
REMARK    6  A    between atoms: C_17  and  C_19
REMARK                            x       y       z     vdW  Elec       q    Type
REMARK                         _______ _______ _______ _____ _____    ______ ____
ROOT
ATOM      1  O   UNL     1      -4.779 -12.722  14.770  0.00  0.00    -0.276 OA
ATOM      2  O   UNL     1     -10.536 -12.441  18.744  0.00  0.00    -0.275 OA
ATOM      4  N   UNL     1      -8.315 -11.880  19.135  0.00  0.00    -0.301 N 
ATOM      5  N   UNL     1      -5.579 -10.611  15.303  0.00  0.00    -0.297 N 
ATOM      6  C   UNL     1      -6.203 -10.730  18.490  0.00  0.00    +0.011 C 
ATOM      7  C   UNL     1      -5.636 -12.103  18.061  0.00  0.00    +0.004 C 
ATOM      8  C   UNL     1      -6.756 -13.075  17.647  0.00  0.00    +0.023 C 
ATOM      9  C   UNL     1      -7.282 -10.932  19.575  0.00  0.00    +0.111 C 
ATOM     10  C   UNL     1      -6.765  -9.865  17.346  0.00  0.00    +0.024 C 
ATOM     11  C   UNL     1      -4.505 -12.019  17.027  0.00  0.00    +0.100 C 
ATOM     12  C   UNL     1      -7.811 -13.196  18.745  0.00  0.00    +0.108 C 
ATOM     13  C   UNL     1      -5.731  -9.531  16.277  0.00  0.00    +0.108 C 
ATOM     14  C   UNL     1      -4.963 -11.822  15.594  0.00  0.00    +0.216 C 
ATOM     15  C   UNL     1      -9.684 -11.619  19.095  0.00  0.00    +0.220 C 
ENDROOT
BRANCH   5  16
ATOM     16  C   UNL     1      -6.124 -10.370  13.973  0.00  0.00    +0.142 C 
BRANCH  16  18
ATOM     18  C   UNL     1      -7.620 -10.490  13.948  0.00  0.00    -0.030 A 
ATOM     20  C   UNL     1      -8.247 -11.545  14.612  0.00  0.00    +0.005 A 
ATOM     21  C   UNL     1      -8.384  -9.545  13.262  0.00  0.00    +0.005 A 
ATOM     24  C   UNL     1      -9.637 -11.656  14.589  0.00  0.00    +0.000 A 
ATOM     25  C   UNL     1      -9.774  -9.656  13.239  0.00  0.00    +0.000 A 
ATOM     26  C   UNL     1     -10.401 -10.712  13.903  0.00  0.00    +0.000 A 
ENDBRANCH  16  18
ENDBRANCH   5  16
BRANCH  15  17
ATOM     17  C   UNL     1     -10.122 -10.237  19.508  0.00  0.00    +0.131 C 
BRANCH  17  19
ATOM     19  C   UNL     1     -10.634  -9.470  18.330  0.00  0.00    -0.038 A 
ATOM     22  C   UNL     1      -9.764  -8.672  17.586  0.00  0.00    +0.007 A 
ATOM     23  C   UNL     1     -11.980  -9.554  17.973  0.00  0.00    +0.007 A 
ATOM     27  C   UNL     1     -10.241  -7.958  16.485  0.00  0.00    +0.046 A 
ATOM     28  C   UNL     1     -12.456  -8.841  16.874  0.00  0.00    +0.046 A 
ATOM     29  C   UNL     1     -11.586  -8.043  16.130  0.00  0.00    +0.120 A 
BRANCH  29   3
ATOM      3  O   UNL     1     -12.051  -7.348  15.055  0.00  0.00    -0.495 OA
ATOM     30  C   UNL     1     -12.724  -6.118  15.318  0.00  0.00    +0.277 C 
ENDBRANCH  29   3
ENDBRANCH  17  19
ENDBRANCH  15  17
TORSDOF 5
ENDMDL
MODEL 8
REMARK VINA RESULT:      -6.4     21.205     22.129
REMARK  Name = 26742708
REMARK  6 active torsions:
REMARK  status: ('A' for Active; 'I' for Inactive)
REMARK    1  A    between atoms: O_3  and  C_29
REMARK    2  A    between atoms: O_3  and  C_30
REMARK    3  A    between atoms: N_5  and  C_16
REMARK    4  A    between atoms: C_15  and  C_17
REMARK    5  A    between atoms: C_16  and  C_18
REMARK    6  A    between atoms: C_17  and  C_19
REMARK                            x       y       z     vdW  Elec       q    Type
REMARK                         _______ _______ _______ _____ _____    ______ ____
ROOT
ATOM      1  O   UNL     1     -11.666  10.827  20.736  0.00  0.00    -0.276 OA
ATOM      2  O   UNL     1     -12.689  10.409  13.823  0.00  0.00    -0.275 OA
ATOM      4  N   UNL     1     -11.130   9.448  15.252  0.00  0.00    -0.301 N 
ATOM      5  N   UNL     1     -12.411   8.792  19.911  0.00  0.00    -0.297 N 
ATOM      6  C   UNL     1     -10.538   8.199  17.322  0.00  0.00    +0.011 C 
ATOM      7  C   UNL     1     -10.080   9.537  17.949  0.00  0.00    +0.004 C 
ATOM      8  C   UNL     1     -10.824  10.736  17.331  0.00  0.00    +0.023 C 
ATOM      9  C   UNL     1     -10.418   8.279  15.786  0.00  0.00    +0.111 C 
ATOM     10  C   UNL     1     -11.955   7.741  17.714  0.00  0.00    +0.024 C 
ATOM     11  C   UNL     1     -10.098   9.549  19.483  0.00  0.00    +0.100 C 
ATOM     12  C   UNL     1     -10.703  10.731  15.808  0.00  0.00    +0.108 C 
ATOM     13  C   UNL     1     -12.131   7.537  19.215  0.00  0.00    +0.108 C 
ATOM     14  C   UNL     1     -11.461   9.787  20.105  0.00  0.00    +0.216 C 
ATOM     15  C   UNL     1     -12.122   9.410  14.274  0.00  0.00    +0.220 C 
ENDROOT
BRANCH   5  16
ATOM     16  C   UNL     1     -13.771   8.975  20.402  0.00  0.00    +0.142 C 
BRANCH  16  18
ATOM     18  C   UNL     1     -14.405   7.674  20.802  0.00  0.00    -0.030 A 
ATOM     20  C   UNL     1     -13.950   6.995  21.934  0.00  0.00    +0.005 A 
ATOM     21  C   UNL     1     -15.450   7.144  20.045  0.00  0.00    +0.005 A 
ATOM     24  C   UNL     1     -14.539   5.787  22.306  0.00  0.00    +0.000 A 
ATOM     25  C   UNL     1     -16.039   5.936  20.417  0.00  0.00    +0.000 A 
ATOM     26  C   UNL     1     -15.583   5.257  21.548  0.00  0.00    +0.000 A 
ENDBRANCH  16  18
ENDBRANCH   5  16
BRANCH  15  17
ATOM     17  C   UNL     1     -12.509   8.048  13.754  0.00  0.00    +0.131 C 
BRANCH  17  19
ATOM     19  C   UNL     1     -13.869   7.662  14.245  0.00  0.00    -0.038 A 
ATOM     22  C   UNL     1     -14.699   6.872  13.450  0.00  0.00    +0.007 A 
ATOM     23  C   UNL     1     -14.306   8.091  15.499  0.00  0.00    +0.007 A 
ATOM     27  C   UNL     1     -15.966   6.510  13.909  0.00  0.00    +0.046 A 
ATOM     28  C   UNL     1     -15.572   7.729  15.957  0.00  0.00    +0.046 A 
ATOM     29  C   UNL     1     -16.402   6.938  15.162  0.00  0.00    +0.120 A 
BRANCH  29   3
ATOM      3  O   UNL     1     -17.638   6.584  15.610  0.00  0.00    -0.495 OA
ATOM     30  C   UNL     1     -17.993   5.205  15.515  0.00  0.00    +0.277 C 
ENDBRANCH  29   3
ENDBRANCH  17  19
ENDBRANCH  15  17
TORSDOF 5
ENDMDL
MODEL 9
REMARK VINA RESULT:      -6.4      2.736      8.745
REMARK  Name = 26742708
REMARK  6 active torsions:
REMARK  status: ('A' for Active; 'I' for Inactive)
REMARK    1  A    between atoms: O_3  and  C_29
REMARK    2  A    between atoms: O_3  and  C_30
REMARK    3  A    between atoms: N_5  and  C_16
REMARK    4  A    between atoms: C_15  and  C_17
REMARK    5  A    between atoms: C_16  and  C_18
REMARK    6  A    between atoms: C_17  and  C_19
REMARK                            x       y       z     vdW  Elec       q    Type
REMARK                         _______ _______ _______ _____ _____    ______ ____
ROOT
ATOM      1  O   UNL     1      -6.371 -11.506   8.534  0.00  0.00    -0.276 OA
ATOM      2  O   UNL     1      -3.610 -13.264  14.722  0.00  0.00    -0.275 OA
ATOM      4  N   UNL     1      -2.815 -12.011  12.935  0.00  0.00    -0.301 N 
ATOM      5  N   UNL     1      -6.085  -9.796  10.075  0.00  0.00    -0.297 N 
ATOM      6  C   UNL     1      -3.079 -10.208  11.238  0.00  0.00    +0.011 C 
ATOM      7  C   UNL     1      -3.336 -11.302  10.176  0.00  0.00    +0.004 C 
ATOM      8  C   UNL     1      -3.923 -12.579  10.808  0.00  0.00    +0.023 C 
ATOM      9  C   UNL     1      -2.218 -10.788  12.380  0.00  0.00    +0.111 C 
ATOM     10  C   UNL     1      -4.343  -9.546  11.818  0.00  0.00    +0.024 C 
ATOM     11  C   UNL     1      -4.132 -10.818   8.957  0.00  0.00    +0.100 C 
ATOM     12  C   UNL     1      -3.049 -13.074  11.958  0.00  0.00    +0.108 C 
ATOM     13  C   UNL     1      -5.202  -8.856  10.764  0.00  0.00    +0.108 C 
ATOM     14  C   UNL     1      -5.634 -10.742   9.163  0.00  0.00    +0.216 C 
ATOM     15  C   UNL     1      -3.131 -12.217  14.276  0.00  0.00    +0.220 C 
ENDROOT
BRANCH   5  16
ATOM     16  C   UNL     1      -7.504  -9.711  10.396  0.00  0.00    +0.142 C 
BRANCH  16  18
ATOM     18  C   UNL     1      -8.188  -8.613   9.633  0.00  0.00    -0.030 A 
ATOM     20  C   UNL     1      -7.449  -7.785   8.788  0.00  0.00    +0.005 A 
ATOM     21  C   UNL     1      -9.564  -8.422   9.768  0.00  0.00    +0.005 A 
ATOM     24  C   UNL     1      -8.085  -6.766   8.079  0.00  0.00    +0.000 A 
ATOM     25  C   UNL     1     -10.200  -7.404   9.059  0.00  0.00    +0.000 A 
ATOM     26  C   UNL     1      -9.460  -6.575   8.214  0.00  0.00    +0.000 A 
ENDBRANCH  16  18
ENDBRANCH   5  16
BRANCH  15  17
ATOM     17  C   UNL     1      -2.864 -11.072  15.219  0.00  0.00    +0.131 C 
BRANCH  17  19
ATOM     19  C   UNL     1      -4.075 -10.774  16.045  0.00  0.00    -0.038 A 
ATOM     22  C   UNL     1      -5.207 -10.219  15.448  0.00  0.00    +0.007 A 
ATOM     23  C   UNL     1      -4.073 -11.052  17.412  0.00  0.00    +0.007 A 
ATOM     27  C   UNL     1      -6.338  -9.942  16.218  0.00  0.00    +0.046 A 
ATOM     28  C   UNL     1      -5.203 -10.777  18.182  0.00  0.00    +0.046 A 
ATOM     29  C   UNL     1      -6.335 -10.222  17.585  0.00  0.00    +0.120 A 
BRANCH  29   3
ATOM      3  O   UNL     1      -7.439  -9.954  18.336  0.00  0.00    -0.495 OA
ATOM     30  C   UNL     1      -7.995 -11.036  19.082  0.00  0.00    +0.277 C 
ENDBRANCH  29   3
ENDBRANCH  17  19
ENDBRANCH  15  17
TORSDOF 5
ENDMDL
MODEL 10
REMARK VINA RESULT:      -6.3      3.793      8.650
REMARK  Name = 26742708
REMARK  6 active torsions:
REMARK  status: ('A' for Active; 'I' for Inactive)
REMARK    1  A    between atoms: O_3  and  C_29
REMARK    2  A    between atoms: O_3  and  C_30
REMARK    3  A    between atoms: N_5  and  C_16
REMARK    4  A    between atoms: C_15  and  C_17
REMARK    5  A    between atoms: C_16  and  C_18
REMARK    6  A    between atoms: C_17  and  C_19
REMARK                            x       y       z     vdW  Elec       q    Type
REMARK                         _______ _______ _______ _____ _____    ______ ____
ROOT
ATOM      1  O   UNL     1      -3.585 -12.546  14.743  0.00  0.00    -0.276 OA
ATOM      2  O   UNL     1      -9.114 -13.008  19.012  0.00  0.00    -0.275 OA
ATOM      4  N   UNL     1      -7.217 -11.666  19.021  0.00  0.00    -0.301 N 
ATOM      5  N   UNL     1      -5.057 -10.753  14.745  0.00  0.00    -0.297 N 
ATOM      6  C   UNL     1      -5.618 -10.133  17.886  0.00  0.00    +0.011 C 
ATOM      7  C   UNL     1      -4.616 -11.308  17.801  0.00  0.00    +0.004 C 
ATOM      8  C   UNL     1      -5.338 -12.668  17.780  0.00  0.00    +0.023 C 
ATOM      9  C   UNL     1      -6.569 -10.349  19.082  0.00  0.00    +0.111 C 
ATOM     10  C   UNL     1      -6.434  -9.872  16.606  0.00  0.00    +0.024 C 
ATOM     11  C   UNL     1      -3.576 -11.166  16.682  0.00  0.00    +0.100 C 
ATOM     12  C   UNL     1      -6.295 -12.800  18.963  0.00  0.00    +0.108 C 
ATOM     13  C   UNL     1      -5.570  -9.547  15.393  0.00  0.00    +0.108 C 
ATOM     14  C   UNL     1      -4.067 -11.556  15.300  0.00  0.00    +0.216 C 
ATOM     15  C   UNL     1      -8.593 -11.889  19.040  0.00  0.00    +0.220 C 
ENDROOT
BRANCH   5  16
ATOM     16  C   UNL     1      -5.644 -11.102  13.459  0.00  0.00    +0.142 C 
BRANCH  16  18
ATOM     18  C   UNL     1      -5.052 -10.304  12.334  0.00  0.00    -0.030 A 
ATOM     20  C   UNL     1      -3.793 -10.635  11.831  0.00  0.00    +0.005 A 
ATOM     21  C   UNL     1      -5.759  -9.231  11.790  0.00  0.00    +0.005 A 
ATOM     24  C   UNL     1      -3.242  -9.893  10.786  0.00  0.00    +0.000 A 
ATOM     25  C   UNL     1      -5.209  -8.491  10.744  0.00  0.00    +0.000 A 
ATOM     26  C   UNL     1      -3.949  -8.821  10.242  0.00  0.00    +0.000 A 
ENDBRANCH  16  18
ENDBRANCH   5  16
BRANCH  15  17
ATOM     17  C   UNL     1      -9.476 -10.669  19.096  0.00  0.00    +0.131 C 
BRANCH  17  19
ATOM     19  C   UNL     1      -9.782 -10.174  17.717  0.00  0.00    -0.038 A 
ATOM     22  C   UNL     1     -10.014 -11.083  16.685  0.00  0.00    +0.007 A 
ATOM     23  C   UNL     1      -9.836  -8.803  17.464  0.00  0.00    +0.007 A 
ATOM     27  C   UNL     1     -10.301 -10.622  15.400  0.00  0.00    +0.046 A 
ATOM     28  C   UNL     1     -10.123  -8.342  16.180  0.00  0.00    +0.046 A 
ATOM     29  C   UNL     1     -10.355  -9.252  15.147  0.00  0.00    +0.120 A 
BRANCH  29   3
ATOM      3  O   UNL     1     -10.637  -8.801  13.894  0.00  0.00    -0.495 OA
ATOM     30  C   UNL     1     -11.884  -8.131  13.710  0.00  0.00    +0.277 C 
ENDBRANCH  29   3
ENDBRANCH  17  19
ENDBRANCH  15  17
TORSDOF 5
ENDMDL
