MODEL 1
REMARK VINA RESULT:      -7.0      0.000      0.000
REMARK  Name = 75536521
REMARK  13 active torsions:
REMARK  status: ('A' for Active; 'I' for Inactive)
REMARK    1  A    between atoms: O_2  and  C_8
REMARK    2  A    between atoms: O_4  and  C_24
REMARK    3  A    between atoms: O_4  and  C_25
REMARK    4  A    between atoms: N_5  and  C_7
REMARK    5  A    between atoms: N_5  and  C_13
REMARK    6  A    between atoms: N_6  and  C_11
REMARK    7  A    between atoms: C_9  and  C_11
REMARK    8  A    between atoms: C_12  and  C_14
REMARK    9  A    between atoms: C_12  and  C_16
REMARK   10  A    between atoms: C_12  and  C_17
REMARK   11  A    between atoms: C_12  and  C_18
REMARK   12  A    between atoms: C_13  and  C_19
REMARK   13  A    between atoms: C_14  and  C_15
REMARK                            x       y       z     vdW  Elec       q    Type
REMARK                         _______ _______ _______ _____ _____    ______ ____
ROOT
ATOM      1  O   UNL     1      10.626   8.641  20.052  0.00  0.00    -0.371 OA
ATOM      7  C   UNL     1      12.428   7.247  19.382  0.00  0.00    +0.111 C 
ATOM      8  C   UNL     1      12.307   7.206  20.894  0.00  0.00    +0.164 C 
ATOM      9  C   UNL     1      10.870   7.673  21.086  0.00  0.00    +0.165 C 
ATOM     10  C   UNL     1      11.651   8.511  19.052  0.00  0.00    +0.181 C 
ENDROOT
BRANCH   8   2
ATOM      2  O   UNL     1      12.517   5.913  21.424  0.00  0.00    -0.388 OA
ATOM     28  H   UNL     1      12.941   6.004  22.295  0.00  0.00    +0.210 HD
ENDBRANCH   8   2
BRANCH   7   5
ATOM      5  N   UNL     1      13.802   7.287  18.907  0.00  0.00    -0.305 NA
ATOM     26  H   UNL     1      13.832   7.795  18.022  0.00  0.00    +0.123 HD
BRANCH   5  13
ATOM     13  C   UNL     1      14.671   7.957  19.866  0.00  0.00    +0.116 C 
BRANCH  13  19
ATOM     19  C   UNL     1      16.010   7.278  19.978  0.00  0.00    -0.033 A 
ATOM     20  C   UNL     1      16.372   6.295  19.056  0.00  0.00    +0.008 A 
ATOM     21  C   UNL     1      16.888   7.630  21.002  0.00  0.00    +0.008 A 
ATOM     22  C   UNL     1      17.612   5.665  19.159  0.00  0.00    +0.046 A 
ATOM     23  C   UNL     1      18.128   7.001  21.106  0.00  0.00    +0.046 A 
ATOM     24  C   UNL     1      18.491   6.019  20.184  0.00  0.00    +0.120 A 
BRANCH  24   4
ATOM      4  O   UNL     1      19.701   5.404  20.286  0.00  0.00    -0.495 OA
ATOM     25  C   UNL     1      20.660   5.999  21.159  0.00  0.00    +0.277 C 
ENDBRANCH  24   4
ENDBRANCH  13  19
ENDBRANCH   5  13
ENDBRANCH   7   5
BRANCH   9  11
ATOM     11  C   UNL     1      10.620   8.299  22.447  0.00  0.00    +0.138 C 
BRANCH  11   6
ATOM      3  O   UNL     1      12.660  10.351  22.579  0.00  0.00    -0.276 OA
ATOM      6  N   UNL     1      10.433   9.728  22.344  0.00  0.00    -0.313 N 
ATOM     15  C   UNL     1      11.476  10.637  22.419  0.00  0.00    +0.214 C 
ATOM     27  H   UNL     1       9.487  10.068  22.200  0.00  0.00    +0.149 HD
BRANCH  15  14
ATOM     14  C   UNL     1      11.017  12.081  22.292  0.00  0.00    +0.102 C 
BRANCH  14  12
ATOM     12  C   UNL     1      11.122  12.909  23.594  0.00  0.00    -0.029 C 
ATOM     16  C   UNL     1      12.504  13.572  23.719  0.00  0.00    +0.011 C 
ATOM     17  C   UNL     1      10.861  12.042  24.837  0.00  0.00    +0.011 C 
ATOM     18  C   UNL     1      10.053  14.019  23.542  0.00  0.00    +0.011 C 
ENDBRANCH  14  12
ENDBRANCH  15  14
ENDBRANCH  11   6
ENDBRANCH   9  11
TORSDOF 9
ENDMDL
MODEL 2
REMARK VINA RESULT:      -6.4     26.388     29.699
REMARK  Name = 75536521
REMARK  13 active torsions:
REMARK  status: ('A' for Active; 'I' for Inactive)
REMARK    1  A    between atoms: O_2  and  C_8
REMARK    2  A    between atoms: O_4  and  C_24
REMARK    3  A    between atoms: O_4  and  C_25
REMARK    4  A    between atoms: N_5  and  C_7
REMARK    5  A    between atoms: N_5  and  C_13
REMARK    6  A    between atoms: N_6  and  C_11
REMARK    7  A    between atoms: C_9  and  C_11
REMARK    8  A    between atoms: C_12  and  C_14
REMARK    9  A    between atoms: C_12  and  C_16
REMARK   10  A    between atoms: C_12  and  C_17
REMARK   11  A    between atoms: C_12  and  C_18
REMARK   12  A    between atoms: C_13  and  C_19
REMARK   13  A    between atoms: C_14  and  C_15
REMARK                            x       y       z     vdW  Elec       q    Type
REMARK                         _______ _______ _______ _____ _____    ______ ____
ROOT
ATOM      1  O   UNL     1     -17.187   5.156  25.342  0.00  0.00    -0.371 OA
ATOM      7  C   UNL     1     -16.173   3.968  23.553  0.00  0.00    +0.111 C 
ATOM      8  C   UNL     1     -15.779   3.317  24.865  0.00  0.00    +0.164 C 
ATOM      9  C   UNL     1     -16.879   3.824  25.787  0.00  0.00    +0.165 C 
ATOM     10  C   UNL     1     -16.641   5.335  24.023  0.00  0.00    +0.181 C 
ENDROOT
BRANCH   8   2
ATOM      2  O   UNL     1     -15.762   1.905  24.791  0.00  0.00    -0.388 OA
ATOM     28  H   UNL     1     -15.614   1.554  25.686  0.00  0.00    +0.210 HD
ENDBRANCH   8   2
BRANCH   7   5
ATOM      5  N   UNL     1     -15.089   4.042  22.587  0.00  0.00    -0.305 NA
ATOM     26  H   UNL     1     -15.468   4.325  21.683  0.00  0.00    +0.123 HD
BRANCH   5  13
ATOM     13  C   UNL     1     -14.083   5.013  23.001  0.00  0.00    +0.116 C 
BRANCH  13  19
ATOM     19  C   UNL     1     -13.660   5.902  21.861  0.00  0.00    -0.033 A 
ATOM     20  C   UNL     1     -14.623   6.588  21.119  0.00  0.00    +0.008 A 
ATOM     21  C   UNL     1     -12.309   6.041  21.549  0.00  0.00    +0.008 A 
ATOM     22  C   UNL     1     -14.232   7.411  20.064  0.00  0.00    +0.046 A 
ATOM     23  C   UNL     1     -11.918   6.865  20.493  0.00  0.00    +0.046 A 
ATOM     24  C   UNL     1     -12.879   7.550  19.751  0.00  0.00    +0.120 A 
BRANCH  24   4
ATOM      4  O   UNL     1     -12.498   8.354  18.721  0.00  0.00    -0.495 OA
ATOM     25  C   UNL     1     -11.340   7.961  17.985  0.00  0.00    +0.277 C 
ENDBRANCH  24   4
ENDBRANCH  13  19
ENDBRANCH   5  13
ENDBRANCH   7   5
BRANCH   9  11
ATOM     11  C   UNL     1     -16.470   3.853  27.250  0.00  0.00    +0.138 C 
BRANCH  11   6
ATOM      3  O   UNL     1     -16.868   2.714  29.883  0.00  0.00    -0.276 OA
ATOM      6  N   UNL     1     -16.064   2.544  27.709  0.00  0.00    -0.313 N 
ATOM     15  C   UNL     1     -16.299   2.085  28.995  0.00  0.00    +0.214 C 
ATOM     27  H   UNL     1     -15.592   1.940  27.043  0.00  0.00    +0.149 HD
BRANCH  15  14
ATOM     14  C   UNL     1     -15.765   0.681  29.231  0.00  0.00    +0.102 C 
BRANCH  14  12
ATOM     12  C   UNL     1     -14.509   0.610  30.130  0.00  0.00    -0.029 C 
ATOM     16  C   UNL     1     -13.756   1.952  30.137  0.00  0.00    +0.011 C 
ATOM     17  C   UNL     1     -13.553  -0.506  29.676  0.00  0.00    +0.011 C 
ATOM     18  C   UNL     1     -14.968   0.302  31.569  0.00  0.00    +0.011 C 
ENDBRANCH  14  12
ENDBRANCH  15  14
ENDBRANCH  11   6
ENDBRANCH   9  11
TORSDOF 9
ENDMDL
MODEL 3
REMARK VINA RESULT:      -6.4     26.558     29.178
REMARK  Name = 75536521
REMARK  13 active torsions:
REMARK  status: ('A' for Active; 'I' for Inactive)
REMARK    1  A    between atoms: O_2  and  C_8
REMARK    2  A    between atoms: O_4  and  C_24
REMARK    3  A    between atoms: O_4  and  C_25
REMARK    4  A    between atoms: N_5  and  C_7
REMARK    5  A    between atoms: N_5  and  C_13
REMARK    6  A    between atoms: N_6  and  C_11
REMARK    7  A    between atoms: C_9  and  C_11
REMARK    8  A    between atoms: C_12  and  C_14
REMARK    9  A    between atoms: C_12  and  C_16
REMARK   10  A    between atoms: C_12  and  C_17
REMARK   11  A    between atoms: C_12  and  C_18
REMARK   12  A    between atoms: C_13  and  C_19
REMARK   13  A    between atoms: C_14  and  C_15
REMARK                            x       y       z     vdW  Elec       q    Type
REMARK                         _______ _______ _______ _____ _____    ______ ____
ROOT
ATOM      1  O   UNL     1     -12.421  -7.551  16.653  0.00  0.00    -0.371 OA
ATOM      7  C   UNL     1     -10.046  -7.564  16.647  0.00  0.00    +0.111 C 
ATOM      8  C   UNL     1     -10.539  -6.719  15.488  0.00  0.00    +0.164 C 
ATOM      9  C   UNL     1     -11.955  -6.392  15.943  0.00  0.00    +0.165 C 
ATOM     10  C   UNL     1     -11.288  -8.375  16.978  0.00  0.00    +0.181 C 
ENDROOT
BRANCH   8   2
ATOM      2  O   UNL     1      -9.764  -5.552  15.294  0.00  0.00    -0.388 OA
ATOM     28  H   UNL     1      -9.211  -5.681  14.504  0.00  0.00    +0.210 HD
ENDBRANCH   8   2
BRANCH   7   5
ATOM      5  N   UNL     1      -8.899  -8.394  16.320  0.00  0.00    -0.305 NA
ATOM     26  H   UNL     1      -8.095  -7.793  16.138  0.00  0.00    +0.123 HD
BRANCH   5  13
ATOM     13  C   UNL     1      -8.574  -9.298  17.417  0.00  0.00    +0.116 C 
BRANCH  13  19
ATOM     19  C   UNL     1      -7.150  -9.783  17.340  0.00  0.00    -0.033 A 
ATOM     20  C   UNL     1      -6.557 -10.381  18.452  0.00  0.00    +0.008 A 
ATOM     21  C   UNL     1      -6.425  -9.634  16.158  0.00  0.00    +0.008 A 
ATOM     22  C   UNL     1      -5.238 -10.830  18.381  0.00  0.00    +0.046 A 
ATOM     23  C   UNL     1      -5.106 -10.083  16.087  0.00  0.00    +0.046 A 
ATOM     24  C   UNL     1      -4.513 -10.681  17.198  0.00  0.00    +0.120 A 
BRANCH  24   4
ATOM      4  O   UNL     1      -3.226 -11.119  17.129  0.00  0.00    -0.495 OA
ATOM     25  C   UNL     1      -2.450 -10.680  16.014  0.00  0.00    +0.277 C 
ENDBRANCH  24   4
ENDBRANCH  13  19
ENDBRANCH   5  13
ENDBRANCH   7   5
BRANCH   9  11
ATOM     11  C   UNL     1     -12.897  -6.078  14.795  0.00  0.00    +0.138 C 
BRANCH  11   6
ATOM      3  O   UNL     1     -13.971  -3.791  13.378  0.00  0.00    -0.276 OA
ATOM      6  N   UNL     1     -12.242  -5.291  13.775  0.00  0.00    -0.313 N 
ATOM     15  C   UNL     1     -12.839  -4.209  13.150  0.00  0.00    +0.214 C 
ATOM     27  H   UNL     1     -11.294  -5.552  13.520  0.00  0.00    +0.149 HD
BRANCH  15  14
ATOM     14  C   UNL     1     -11.945  -3.557  12.108  0.00  0.00    +0.102 C 
BRANCH  14  12
ATOM     12  C   UNL     1     -12.211  -4.012  10.653  0.00  0.00    -0.029 C 
ATOM     16  C   UNL     1     -12.228  -5.546  10.547  0.00  0.00    +0.011 C 
ATOM     17  C   UNL     1     -11.158  -3.448   9.685  0.00  0.00    +0.011 C 
ATOM     18  C   UNL     1     -13.595  -3.479  10.231  0.00  0.00    +0.011 C 
ENDBRANCH  14  12
ENDBRANCH  15  14
ENDBRANCH  11   6
ENDBRANCH   9  11
TORSDOF 9
ENDMDL
MODEL 4
REMARK VINA RESULT:      -6.0     26.513     29.261
REMARK  Name = 75536521
REMARK  13 active torsions:
REMARK  status: ('A' for Active; 'I' for Inactive)
REMARK    1  A    between atoms: O_2  and  C_8
REMARK    2  A    between atoms: O_4  and  C_24
REMARK    3  A    between atoms: O_4  and  C_25
REMARK    4  A    between atoms: N_5  and  C_7
REMARK    5  A    between atoms: N_5  and  C_13
REMARK    6  A    between atoms: N_6  and  C_11
REMARK    7  A    between atoms: C_9  and  C_11
REMARK    8  A    between atoms: C_12  and  C_14
REMARK    9  A    between atoms: C_12  and  C_16
REMARK   10  A    between atoms: C_12  and  C_17
REMARK   11  A    between atoms: C_12  and  C_18
REMARK   12  A    between atoms: C_13  and  C_19
REMARK   13  A    between atoms: C_14  and  C_15
REMARK                            x       y       z     vdW  Elec       q    Type
REMARK                         _______ _______ _______ _____ _____    ______ ____
ROOT
ATOM      1  O   UNL     1      -4.607 -12.080  17.576  0.00  0.00    -0.371 OA
ATOM      7  C   UNL     1      -6.511 -10.667  17.429  0.00  0.00    +0.111 C 
ATOM      8  C   UNL     1      -5.343  -9.999  16.727  0.00  0.00    +0.164 C 
ATOM      9  C   UNL     1      -4.440 -11.195  16.456  0.00  0.00    +0.165 C 
ATOM     10  C   UNL     1      -5.795 -11.696  18.290  0.00  0.00    +0.181 C 
ENDROOT
BRANCH   8   2
ATOM      2  O   UNL     1      -5.726  -9.346  15.532  0.00  0.00    -0.388 OA
ATOM     28  H   UNL     1      -5.496  -8.404  15.612  0.00  0.00    +0.210 HD
ENDBRANCH   8   2
BRANCH   7   5
ATOM      5  N   UNL     1      -7.328  -9.750  18.206  0.00  0.00    -0.305 NA
ATOM     26  H   UNL     1      -7.386  -8.858  17.714  0.00  0.00    +0.123 HD
BRANCH   5  13
ATOM     13  C   UNL     1      -8.676 -10.275  18.391  0.00  0.00    +0.116 C 
BRANCH  13  19
ATOM     19  C   UNL     1      -9.716  -9.379  17.772  0.00  0.00    -0.033 A 
ATOM     20  C   UNL     1     -11.070  -9.696  17.894  0.00  0.00    +0.008 A 
ATOM     21  C   UNL     1      -9.327  -8.234  17.078  0.00  0.00    +0.008 A 
ATOM     22  C   UNL     1     -12.033  -8.866  17.321  0.00  0.00    +0.046 A 
ATOM     23  C   UNL     1     -10.291  -7.405  16.505  0.00  0.00    +0.046 A 
ATOM     24  C   UNL     1     -11.644  -7.720  16.626  0.00  0.00    +0.120 A 
BRANCH  24   4
ATOM      4  O   UNL     1     -12.584  -6.911  16.067  0.00  0.00    -0.495 OA
ATOM     25  C   UNL     1     -12.121  -5.901  15.170  0.00  0.00    +0.277 C 
ENDBRANCH  24   4
ENDBRANCH  13  19
ENDBRANCH   5  13
ENDBRANCH   7   5
BRANCH   9  11
ATOM     11  C   UNL     1      -2.975 -10.819  16.311  0.00  0.00    +0.138 C 
BRANCH  11   6
ATOM      3  O   UNL     1      -2.201 -12.384  14.000  0.00  0.00    -0.276 OA
ATOM      6  N   UNL     1      -2.685 -10.334  14.981  0.00  0.00    -0.313 N 
ATOM     15  C   UNL     1      -2.320 -11.162  13.933  0.00  0.00    +0.214 C 
ATOM     27  H   UNL     1      -2.765  -9.334  14.820  0.00  0.00    +0.149 HD
BRANCH  15  14
ATOM     14  C   UNL     1      -2.059 -10.407  12.641  0.00  0.00    +0.102 C 
BRANCH  14  12
ATOM     12  C   UNL     1      -3.196 -10.501  11.596  0.00  0.00    -0.029 C 
ATOM     16  C   UNL     1      -4.564 -10.214  12.239  0.00  0.00    +0.011 C 
ATOM     17  C   UNL     1      -3.232 -11.884  10.925  0.00  0.00    +0.011 C 
ATOM     18  C   UNL     1      -2.936  -9.439  10.509  0.00  0.00    +0.011 C 
ENDBRANCH  14  12
ENDBRANCH  15  14
ENDBRANCH  11   6
ENDBRANCH   9  11
TORSDOF 9
ENDMDL
MODEL 5
REMARK VINA RESULT:      -6.0     26.254     28.695
REMARK  Name = 75536521
REMARK  13 active torsions:
REMARK  status: ('A' for Active; 'I' for Inactive)
REMARK    1  A    between atoms: O_2  and  C_8
REMARK    2  A    between atoms: O_4  and  C_24
REMARK    3  A    between atoms: O_4  and  C_25
REMARK    4  A    between atoms: N_5  and  C_7
REMARK    5  A    between atoms: N_5  and  C_13
REMARK    6  A    between atoms: N_6  and  C_11
REMARK    7  A    between atoms: C_9  and  C_11
REMARK    8  A    between atoms: C_12  and  C_14
REMARK    9  A    between atoms: C_12  and  C_16
REMARK   10  A    between atoms: C_12  and  C_17
REMARK   11  A    between atoms: C_12  and  C_18
REMARK   12  A    between atoms: C_13  and  C_19
REMARK   13  A    between atoms: C_14  and  C_15
REMARK                            x       y       z     vdW  Elec       q    Type
REMARK                         _______ _______ _______ _____ _____    ______ ____
ROOT
ATOM      1  O   UNL     1      -1.787 -11.203  12.775  0.00  0.00    -0.371 OA
ATOM      7  C   UNL     1      -1.938 -11.626  15.108  0.00  0.00    +0.111 C 
ATOM      8  C   UNL     1      -2.672 -12.722  14.358  0.00  0.00    +0.164 C 
ATOM      9  C   UNL     1      -2.044 -12.603  12.975  0.00  0.00    +0.165 C 
ATOM     10  C   UNL     1      -1.858 -10.538  14.049  0.00  0.00    +0.181 C 
ENDROOT
BRANCH   8   2
ATOM      2  O   UNL     1      -2.467 -14.002  14.922  0.00  0.00    -0.388 OA
ATOM     28  H   UNL     1      -1.512 -14.186  14.923  0.00  0.00    +0.210 HD
ENDBRANCH   8   2
BRANCH   7   5
ATOM      5  N   UNL     1      -2.617 -11.189  16.317  0.00  0.00    -0.305 NA
ATOM     26  H   UNL     1      -1.984 -10.602  16.860  0.00  0.00    +0.123 HD
BRANCH   5  13
ATOM     13  C   UNL     1      -3.816 -10.422  15.999  0.00  0.00    +0.116 C 
BRANCH  13  19
ATOM     19  C   UNL     1      -4.867 -10.557  17.069  0.00  0.00    -0.033 A 
ATOM     20  C   UNL     1      -6.123  -9.975  16.889  0.00  0.00    +0.008 A 
ATOM     21  C   UNL     1      -4.587 -11.264  18.237  0.00  0.00    +0.008 A 
ATOM     22  C   UNL     1      -7.097 -10.101  17.879  0.00  0.00    +0.046 A 
ATOM     23  C   UNL     1      -5.561 -11.389  19.228  0.00  0.00    +0.046 A 
ATOM     24  C   UNL     1      -6.816 -10.808  19.049  0.00  0.00    +0.120 A 
BRANCH  24   4
ATOM      4  O   UNL     1      -7.766 -10.929  20.015  0.00  0.00    -0.495 OA
ATOM     25  C   UNL     1      -9.119 -11.070  19.582  0.00  0.00    +0.277 C 
ENDBRANCH  24   4
ENDBRANCH  13  19
ENDBRANCH   5  13
ENDBRANCH   7   5
BRANCH   9  11
ATOM     11  C   UNL     1      -2.937 -13.126  11.864  0.00  0.00    +0.138 C 
BRANCH  11   6
ATOM      3  O   UNL     1      -3.926 -12.527   9.208  0.00  0.00    -0.276 OA
ATOM      6  N   UNL     1      -3.950 -12.161  11.503  0.00  0.00    -0.313 N 
ATOM     15  C   UNL     1      -4.360 -11.943  10.198  0.00  0.00    +0.214 C 
ATOM     27  H   UNL     1      -4.380 -11.630  12.255  0.00  0.00    +0.149 HD
BRANCH  15  14
ATOM     14  C   UNL     1      -5.430 -10.869  10.083  0.00  0.00    +0.102 C 
BRANCH  14  12
ATOM     12  C   UNL     1      -4.973  -9.575   9.369  0.00  0.00    -0.029 C 
ATOM     16  C   UNL     1      -5.096  -9.714   7.841  0.00  0.00    +0.011 C 
ATOM     17  C   UNL     1      -3.524  -9.213   9.731  0.00  0.00    +0.011 C 
ATOM     18  C   UNL     1      -5.892  -8.426   9.829  0.00  0.00    +0.011 C 
ENDBRANCH  14  12
ENDBRANCH  15  14
ENDBRANCH  11   6
ENDBRANCH   9  11
TORSDOF 9
ENDMDL
MODEL 6
REMARK VINA RESULT:      -5.8      3.410     10.447
REMARK  Name = 75536521
REMARK  13 active torsions:
REMARK  status: ('A' for Active; 'I' for Inactive)
REMARK    1  A    between atoms: O_2  and  C_8
REMARK    2  A    between atoms: O_4  and  C_24
REMARK    3  A    between atoms: O_4  and  C_25
REMARK    4  A    between atoms: N_5  and  C_7
REMARK    5  A    between atoms: N_5  and  C_13
REMARK    6  A    between atoms: N_6  and  C_11
REMARK    7  A    between atoms: C_9  and  C_11
REMARK    8  A    between atoms: C_12  and  C_14
REMARK    9  A    between atoms: C_12  and  C_16
REMARK   10  A    between atoms: C_12  and  C_17
REMARK   11  A    between atoms: C_12  and  C_18
REMARK   12  A    between atoms: C_13  and  C_19
REMARK   13  A    between atoms: C_14  and  C_15
REMARK                            x       y       z     vdW  Elec       q    Type
REMARK                         _______ _______ _______ _____ _____    ______ ____
ROOT
ATOM      1  O   UNL     1      19.659   7.341  22.231  0.00  0.00    -0.371 OA
ATOM      7  C   UNL     1      17.930   6.604  20.779  0.00  0.00    +0.111 C 
ATOM      8  C   UNL     1      19.255   6.047  20.293  0.00  0.00    +0.164 C 
ATOM      9  C   UNL     1      20.098   6.150  21.557  0.00  0.00    +0.165 C 
ATOM     10  C   UNL     1      18.392   7.739  21.678  0.00  0.00    +0.181 C 
ENDROOT
BRANCH   8   2
ATOM      2  O   UNL     1      19.152   4.713  19.835  0.00  0.00    -0.388 OA
ATOM     28  H   UNL     1      19.059   4.131  20.608  0.00  0.00    +0.210 HD
ENDBRANCH   8   2
BRANCH   7   5
ATOM      5  N   UNL     1      17.055   7.052  19.708  0.00  0.00    -0.305 NA
ATOM     26  H   UNL     1      16.418   6.294  19.461  0.00  0.00    +0.123 HD
BRANCH   5  13
ATOM     13  C   UNL     1      16.273   8.211  20.118  0.00  0.00    +0.116 C 
BRANCH  13  19
ATOM     19  C   UNL     1      14.828   7.857  20.353  0.00  0.00    -0.033 A 
ATOM     20  C   UNL     1      14.099   7.206  19.356  0.00  0.00    +0.008 A 
ATOM     21  C   UNL     1      14.219   8.180  21.565  0.00  0.00    +0.008 A 
ATOM     22  C   UNL     1      12.761   6.878  19.574  0.00  0.00    +0.046 A 
ATOM     23  C   UNL     1      12.880   7.852  21.782  0.00  0.00    +0.046 A 
ATOM     24  C   UNL     1      12.152   7.201  20.787  0.00  0.00    +0.120 A 
BRANCH  24   4
ATOM      4  O   UNL     1      10.846   6.882  20.999  0.00  0.00    -0.495 OA
ATOM     25  C   UNL     1      10.233   7.401  22.179  0.00  0.00    +0.277 C 
ENDBRANCH  24   4
ENDBRANCH  13  19
ENDBRANCH   5  13
ENDBRANCH   7   5
BRANCH   9  11
ATOM     11  C   UNL     1      21.589   6.236  21.278  0.00  0.00    +0.138 C 
BRANCH  11   6
ATOM      3  O   UNL     1      21.971   3.910  22.959  0.00  0.00    -0.276 OA
ATOM      6  N   UNL     1      22.128   4.953  20.889  0.00  0.00    -0.313 N 
ATOM     15  C   UNL     1      22.274   3.893  21.769  0.00  0.00    +0.214 C 
ATOM     27  H   UNL     1      22.400   4.835  19.918  0.00  0.00    +0.149 HD
BRANCH  15  14
ATOM     14  C   UNL     1      22.873   2.658  21.117  0.00  0.00    +0.102 C 
BRANCH  14  12
ATOM     12  C   UNL     1      24.417   2.658  21.029  0.00  0.00    -0.029 C 
ATOM     16  C   UNL     1      25.030   3.637  22.046  0.00  0.00    +0.011 C 
ATOM     17  C   UNL     1      24.902   3.025  19.617  0.00  0.00    +0.011 C 
ATOM     18  C   UNL     1      24.915   1.237  21.361  0.00  0.00    +0.011 C 
ENDBRANCH  14  12
ENDBRANCH  15  14
ENDBRANCH  11   6
ENDBRANCH   9  11
TORSDOF 9
ENDMDL
MODEL 7
REMARK VINA RESULT:      -5.8     26.962     29.504
REMARK  Name = 75536521
REMARK  13 active torsions:
REMARK  status: ('A' for Active; 'I' for Inactive)
REMARK    1  A    between atoms: O_2  and  C_8
REMARK    2  A    between atoms: O_4  and  C_24
REMARK    3  A    between atoms: O_4  and  C_25
REMARK    4  A    between atoms: N_5  and  C_7
REMARK    5  A    between atoms: N_5  and  C_13
REMARK    6  A    between atoms: N_6  and  C_11
REMARK    7  A    between atoms: C_9  and  C_11
REMARK    8  A    between atoms: C_12  and  C_14
REMARK    9  A    between atoms: C_12  and  C_16
REMARK   10  A    between atoms: C_12  and  C_17
REMARK   11  A    between atoms: C_12  and  C_18
REMARK   12  A    between atoms: C_13  and  C_19
REMARK   13  A    between atoms: C_14  and  C_15
REMARK                            x       y       z     vdW  Elec       q    Type
REMARK                         _______ _______ _______ _____ _____    ______ ____
ROOT
ATOM      1  O   UNL     1     -10.087 -12.857  18.762  0.00  0.00    -0.371 OA
ATOM      7  C   UNL     1      -8.603 -11.320  19.799  0.00  0.00    +0.111 C 
ATOM      8  C   UNL     1      -9.985 -10.700  19.726  0.00  0.00    +0.164 C 
ATOM      9  C   UNL     1     -10.855 -11.939  19.557  0.00  0.00    +0.165 C 
ATOM     10  C   UNL     1      -8.715 -12.428  18.764  0.00  0.00    +0.181 C 
ENDROOT
BRANCH   8   2
ATOM      2  O   UNL     1     -10.322  -9.974  20.891  0.00  0.00    -0.388 OA
ATOM     28  H   UNL     1      -9.896  -9.101  20.841  0.00  0.00    +0.210 HD
ENDBRANCH   8   2
BRANCH   7   5
ATOM      5  N   UNL     1      -7.526 -10.386  19.514  0.00  0.00    -0.305 NA
ATOM     26  H   UNL     1      -7.577  -9.610  20.175  0.00  0.00    +0.123 HD
BRANCH   5  13
ATOM     13  C   UNL     1      -6.225 -11.030  19.641  0.00  0.00    +0.116 C 
BRANCH  13  19
ATOM     19  C   UNL     1      -5.415 -10.908  18.377  0.00  0.00    -0.033 A 
ATOM     20  C   UNL     1      -5.923 -10.198  17.289  0.00  0.00    +0.008 A 
ATOM     21  C   UNL     1      -4.157 -11.505  18.294  0.00  0.00    +0.008 A 
ATOM     22  C   UNL     1      -5.173 -10.085  16.118  0.00  0.00    +0.046 A 
ATOM     23  C   UNL     1      -3.407 -11.392  17.123  0.00  0.00    +0.046 A 
ATOM     24  C   UNL     1      -3.915 -10.682  16.036  0.00  0.00    +0.120 A 
BRANCH  24   4
ATOM      4  O   UNL     1      -3.183 -10.573  14.893  0.00  0.00    -0.495 OA
ATOM     25  C   UNL     1      -1.770 -10.438  15.038  0.00  0.00    +0.277 C 
ENDBRANCH  24   4
ENDBRANCH  13  19
ENDBRANCH   5  13
ENDBRANCH   7   5
BRANCH   9  11
ATOM     11  C   UNL     1     -12.182 -11.652  18.875  0.00  0.00    +0.138 C 
BRANCH  11   6
ATOM      3  O   UNL     1     -12.058 -10.646  16.162  0.00  0.00    -0.276 OA
ATOM      6  N   UNL     1     -12.268 -10.275  18.446  0.00  0.00    -0.313 N 
ATOM     15  C   UNL     1     -12.198  -9.888  17.119  0.00  0.00    +0.214 C 
ATOM     27  H   UNL     1     -12.394  -9.568  19.165  0.00  0.00    +0.149 HD
BRANCH  15  14
ATOM     14  C   UNL     1     -12.303  -8.383  16.932  0.00  0.00    +0.102 C 
BRANCH  14  12
ATOM     12  C   UNL     1     -11.036  -7.713  16.349  0.00  0.00    -0.029 C 
ATOM     16  C   UNL     1     -10.817  -8.126  14.883  0.00  0.00    +0.011 C 
ATOM     17  C   UNL     1      -9.784  -8.067  17.169  0.00  0.00    +0.011 C 
ATOM     18  C   UNL     1     -11.236  -6.186  16.400  0.00  0.00    +0.011 C 
ENDBRANCH  14  12
ENDBRANCH  15  14
ENDBRANCH  11   6
ENDBRANCH   9  11
TORSDOF 9
ENDMDL
MODEL 8
REMARK VINA RESULT:      -5.8     26.260     28.486
REMARK  Name = 75536521
REMARK  13 active torsions:
REMARK  status: ('A' for Active; 'I' for Inactive)
REMARK    1  A    between atoms: O_2  and  C_8
REMARK    2  A    between atoms: O_4  and  C_24
REMARK    3  A    between atoms: O_4  and  C_25
REMARK    4  A    between atoms: N_5  and  C_7
REMARK    5  A    between atoms: N_5  and  C_13
REMARK    6  A    between atoms: N_6  and  C_11
REMARK    7  A    between atoms: C_9  and  C_11
REMARK    8  A    between atoms: C_12  and  C_14
REMARK    9  A    between atoms: C_12  and  C_16
REMARK   10  A    between atoms: C_12  and  C_17
REMARK   11  A    between atoms: C_12  and  C_18
REMARK   12  A    between atoms: C_13  and  C_19
REMARK   13  A    between atoms: C_14  and  C_15
REMARK                            x       y       z     vdW  Elec       q    Type
REMARK                         _______ _______ _______ _____ _____    ______ ____
ROOT
ATOM      1  O   UNL     1      -5.018 -11.686  15.796  0.00  0.00    -0.371 OA
ATOM      7  C   UNL     1      -2.982 -11.132  14.705  0.00  0.00    +0.111 C 
ATOM      8  C   UNL     1      -2.856 -10.806  16.181  0.00  0.00    +0.164 C 
ATOM      9  C   UNL     1      -3.960 -11.676  16.769  0.00  0.00    +0.165 C 
ATOM     10  C   UNL     1      -4.491 -11.216  14.542  0.00  0.00    +0.181 C 
ENDROOT
BRANCH   8   2
ATOM      2  O   UNL     1      -1.587 -11.138  16.708  0.00  0.00    -0.388 OA
ATOM     28  H   UNL     1      -1.066 -10.320  16.786  0.00  0.00    +0.210 HD
ENDBRANCH   8   2
BRANCH   7   5
ATOM      5  N   UNL     1      -2.374 -10.140  13.833  0.00  0.00    -0.305 NA
ATOM     26  H   UNL     1      -1.650  -9.642  14.351  0.00  0.00    +0.123 HD
BRANCH   5  13
ATOM     13  C   UNL     1      -1.772 -10.767  12.663  0.00  0.00    +0.116 C 
BRANCH  13  19
ATOM     19  C   UNL     1      -2.639 -10.618  11.440  0.00  0.00    -0.033 A 
ATOM     20  C   UNL     1      -3.346 -11.717  10.950  0.00  0.00    +0.008 A 
ATOM     21  C   UNL     1      -2.734  -9.385  10.798  0.00  0.00    +0.008 A 
ATOM     22  C   UNL     1      -4.149 -11.580   9.818  0.00  0.00    +0.046 A 
ATOM     23  C   UNL     1      -3.537  -9.247   9.665  0.00  0.00    +0.046 A 
ATOM     24  C   UNL     1      -4.244 -10.345   9.175  0.00  0.00    +0.120 A 
BRANCH  24   4
ATOM      4  O   UNL     1      -5.027 -10.211   8.070  0.00  0.00    -0.495 OA
ATOM     25  C   UNL     1      -5.979 -11.244   7.820  0.00  0.00    +0.277 C 
ENDBRANCH  24   4
ENDBRANCH  13  19
ENDBRANCH   5  13
ENDBRANCH   7   5
BRANCH   9  11
ATOM     11  C   UNL     1      -4.487 -11.160  18.096  0.00  0.00    +0.138 C 
BRANCH  11   6
ATOM      3  O   UNL     1      -6.440 -10.372  20.085  0.00  0.00    -0.276 OA
ATOM      6  N   UNL     1      -5.649 -11.904  18.527  0.00  0.00    -0.313 N 
ATOM     15  C   UNL     1      -6.531 -11.443  19.490  0.00  0.00    +0.214 C 
ATOM     27  H   UNL     1      -5.820 -12.803  18.086  0.00  0.00    +0.149 HD
BRANCH  15  14
ATOM     14  C   UNL     1      -7.665 -12.415  19.772  0.00  0.00    +0.102 C 
BRANCH  14  12
ATOM     12  C   UNL     1      -8.999 -12.073  19.067  0.00  0.00    -0.029 C 
ATOM     16  C   UNL     1      -9.870 -13.329  18.889  0.00  0.00    +0.011 C 
ATOM     17  C   UNL     1      -8.761 -11.422  17.694  0.00  0.00    +0.011 C 
ATOM     18  C   UNL     1      -9.765 -11.071  19.954  0.00  0.00    +0.011 C 
ENDBRANCH  14  12
ENDBRANCH  15  14
ENDBRANCH  11   6
ENDBRANCH   9  11
TORSDOF 9
ENDMDL
MODEL 9
REMARK VINA RESULT:      -5.7     26.021     28.494
REMARK  Name = 75536521
REMARK  13 active torsions:
REMARK  status: ('A' for Active; 'I' for Inactive)
REMARK    1  A    between atoms: O_2  and  C_8
REMARK    2  A    between atoms: O_4  and  C_24
REMARK    3  A    between atoms: O_4  and  C_25
REMARK    4  A    between atoms: N_5  and  C_7
REMARK    5  A    between atoms: N_5  and  C_13
REMARK    6  A    between atoms: N_6  and  C_11
REMARK    7  A    between atoms: C_9  and  C_11
REMARK    8  A    between atoms: C_12  and  C_14
REMARK    9  A    between atoms: C_12  and  C_16
REMARK   10  A    between atoms: C_12  and  C_17
REMARK   11  A    between atoms: C_12  and  C_18
REMARK   12  A    between atoms: C_13  and  C_19
REMARK   13  A    between atoms: C_14  and  C_15
REMARK                            x       y       z     vdW  Elec       q    Type
REMARK                         _______ _______ _______ _____ _____    ______ ____
ROOT
ATOM      1  O   UNL     1      -7.843 -12.891  18.450  0.00  0.00    -0.371 OA
ATOM      7  C   UNL     1      -5.964 -11.449  18.286  0.00  0.00    +0.111 C 
ATOM      8  C   UNL     1      -7.063 -10.742  19.056  0.00  0.00    +0.164 C 
ATOM      9  C   UNL     1      -7.909 -11.924  19.511  0.00  0.00    +0.165 C 
ATOM     10  C   UNL     1      -6.745 -12.550  17.587  0.00  0.00    +0.181 C 
ENDROOT
BRANCH   8   2
ATOM      2  O   UNL     1      -6.571  -9.994  20.149  0.00  0.00    -0.388 OA
ATOM     28  H   UNL     1      -7.071  -9.161  20.199  0.00  0.00    +0.210 HD
ENDBRANCH   8   2
BRANCH   7   5
ATOM      5  N   UNL     1      -5.251 -10.585  17.359  0.00  0.00    -0.305 NA
ATOM     26  H   UNL     1      -5.330  -9.619  17.677  0.00  0.00    +0.123 HD
BRANCH   5  13
ATOM     13  C   UNL     1      -3.840 -10.944  17.286  0.00  0.00    +0.116 C 
BRANCH  13  19
ATOM     19  C   UNL     1      -3.292 -10.780  15.892  0.00  0.00    -0.033 A 
ATOM     20  C   UNL     1      -4.149 -10.854  14.793  0.00  0.00    +0.008 A 
ATOM     21  C   UNL     1      -1.929 -10.553  15.701  0.00  0.00    +0.008 A 
ATOM     22  C   UNL     1      -3.641 -10.702  13.503  0.00  0.00    +0.046 A 
ATOM     23  C   UNL     1      -1.422 -10.401  14.410  0.00  0.00    +0.046 A 
ATOM     24  C   UNL     1      -2.278 -10.476  13.312  0.00  0.00    +0.120 A 
BRANCH  24   4
ATOM      4  O   UNL     1      -1.783 -10.328  12.053  0.00  0.00    -0.495 OA
ATOM     25  C   UNL     1      -2.697  -9.908  11.040  0.00  0.00    +0.277 C 
ENDBRANCH  24   4
ENDBRANCH  13  19
ENDBRANCH   5  13
ENDBRANCH   7   5
BRANCH   9  11
ATOM     11  C   UNL     1      -9.357 -11.556  19.783  0.00  0.00    +0.138 C 
BRANCH  11   6
ATOM      3  O   UNL     1     -11.428 -11.071  17.817  0.00  0.00    -0.276 OA
ATOM      6  N   UNL     1      -9.705 -10.295  19.169  0.00  0.00    -0.313 N 
ATOM     15  C   UNL     1     -10.717 -10.160  18.233  0.00  0.00    +0.214 C 
ATOM     27  H   UNL     1      -9.179  -9.474  19.454  0.00  0.00    +0.149 HD
BRANCH  15  14
ATOM     14  C   UNL     1     -10.877  -8.734  17.733  0.00  0.00    +0.102 C 
BRANCH  14  12
ATOM     12  C   UNL     1     -10.304  -8.476  16.319  0.00  0.00    -0.029 C 
ATOM     16  C   UNL     1      -8.890  -9.067  16.179  0.00  0.00    +0.011 C 
ATOM     17  C   UNL     1     -10.260  -6.974  15.993  0.00  0.00    +0.011 C 
ATOM     18  C   UNL     1     -11.225  -9.170  15.296  0.00  0.00    +0.011 C 
ENDBRANCH  14  12
ENDBRANCH  15  14
ENDBRANCH  11   6
ENDBRANCH   9  11
TORSDOF 9
ENDMDL
MODEL 10
REMARK VINA RESULT:      -5.5     15.123     17.246
REMARK  Name = 75536521
REMARK  13 active torsions:
REMARK  status: ('A' for Active; 'I' for Inactive)
REMARK    1  A    between atoms: O_2  and  C_8
REMARK    2  A    between atoms: O_4  and  C_24
REMARK    3  A    between atoms: O_4  and  C_25
REMARK    4  A    between atoms: N_5  and  C_7
REMARK    5  A    between atoms: N_5  and  C_13
REMARK    6  A    between atoms: N_6  and  C_11
REMARK    7  A    between atoms: C_9  and  C_11
REMARK    8  A    between atoms: C_12  and  C_14
REMARK    9  A    between atoms: C_12  and  C_16
REMARK   10  A    between atoms: C_12  and  C_17
REMARK   11  A    between atoms: C_12  and  C_18
REMARK   12  A    between atoms: C_13  and  C_19
REMARK   13  A    between atoms: C_14  and  C_15
REMARK                            x       y       z     vdW  Elec       q    Type
REMARK                         _______ _______ _______ _____ _____    ______ ____
ROOT
ATOM      1  O   UNL     1       8.242   6.805   6.031  0.00  0.00    -0.371 OA
ATOM      7  C   UNL     1       9.713   4.987   5.617  0.00  0.00    +0.111 C 
ATOM      8  C   UNL     1      10.233   5.785   6.798  0.00  0.00    +0.164 C 
ATOM      9  C   UNL     1       8.971   6.518   7.235  0.00  0.00    +0.165 C 
ATOM     10  C   UNL     1       8.767   5.986   4.971  0.00  0.00    +0.181 C 
ENDROOT
BRANCH   8   2
ATOM      2  O   UNL     1      10.749   4.965   7.827  0.00  0.00    -0.388 OA
ATOM     28  H   UNL     1      11.656   4.707   7.587  0.00  0.00    +0.210 HD
ENDBRANCH   8   2
BRANCH   7   5
ATOM      5  N   UNL     1      10.757   4.532   4.714  0.00  0.00    -0.305 NA
ATOM     26  H   UNL     1      10.657   3.526   4.571  0.00  0.00    +0.123 HD
BRANCH   5  13
ATOM     13  C   UNL     1      10.665   5.203   3.423  0.00  0.00    +0.116 C 
BRANCH  13  19
ATOM     19  C   UNL     1      11.797   4.815   2.508  0.00  0.00    -0.033 A 
ATOM     20  C   UNL     1      12.637   5.799   1.984  0.00  0.00    +0.008 A 
ATOM     21  C   UNL     1      12.007   3.475   2.187  0.00  0.00    +0.008 A 
ATOM     22  C   UNL     1      13.685   5.440   1.137  0.00  0.00    +0.046 A 
ATOM     23  C   UNL     1      13.055   3.116   1.340  0.00  0.00    +0.046 A 
ATOM     24  C   UNL     1      13.894   4.098   0.815  0.00  0.00    +0.120 A 
BRANCH  24   4
ATOM      4  O   UNL     1      14.917   3.748  -0.012  0.00  0.00    -0.495 OA
ATOM     25  C   UNL     1      15.986   4.683  -0.154  0.00  0.00    +0.277 C 
ENDBRANCH  24   4
ENDBRANCH  13  19
ENDBRANCH   5  13
ENDBRANCH   7   5
BRANCH   9  11
ATOM     11  C   UNL     1       9.257   7.808   7.984  0.00  0.00    +0.138 C 
BRANCH  11   6
ATOM      3  O   UNL     1      10.509   9.677   6.160  0.00  0.00    -0.276 OA
ATOM      6  N   UNL     1      10.656   8.160   7.914  0.00  0.00    -0.313 N 
ATOM     15  C   UNL     1      11.166   9.070   7.002  0.00  0.00    +0.214 C 
ATOM     27  H   UNL     1      11.285   7.717   8.578  0.00  0.00    +0.149 HD
BRANCH  15  14
ATOM     14  C   UNL     1      12.669   9.258   7.127  0.00  0.00    +0.102 C 
BRANCH  14  12
ATOM     12  C   UNL     1      13.516   8.265   6.296  0.00  0.00    -0.029 C 
ATOM     16  C   UNL     1      12.862   7.986   4.932  0.00  0.00    +0.011 C 
ATOM     17  C   UNL     1      13.718   6.936   7.043  0.00  0.00    +0.011 C 
ATOM     18  C   UNL     1      14.898   8.902   6.053  0.00  0.00    +0.011 C 
ENDBRANCH  14  12
ENDBRANCH  15  14
ENDBRANCH  11   6
ENDBRANCH   9  11
TORSDOF 9
ENDMDL
