MODEL 1
REMARK VINA RESULT:      -7.2      0.000      0.000
REMARK  Name = 38030644
REMARK  11 active torsions:
REMARK  status: ('A' for Active; 'I' for Inactive)
REMARK    1  A    between atoms: O_1  and  C_21
REMARK    2  A    between atoms: N_3  and  C_11
REMARK    3  A    between atoms: C_6  and  C_10
REMARK    4  A    between atoms: C_7  and  C_11
REMARK    5  A    between atoms: C_9  and  C_14
REMARK    6  A    between atoms: C_10  and  C_17
REMARK    7  A    between atoms: C_10  and  C_18
REMARK    8  A    between atoms: C_13  and  C_22
REMARK    9  A    between atoms: C_14  and  C_23
REMARK   10  A    between atoms: C_24  and  C_25
REMARK   11  A    between atoms: C_30  and  C_31
REMARK                            x       y       z     vdW  Elec       q    Type
REMARK                         _______ _______ _______ _____ _____    ______ ____
ROOT
ATOM      6  C   UNL     1      14.932  10.236  20.899  0.00  0.00    +0.000 C 
ATOM      7  C   UNL     1      13.558  10.950  20.861  0.00  0.00    +0.029 C 
ATOM      8  C   UNL     1      15.254   9.617  19.530  0.00  0.00    +0.012 C 
ATOM      9  C   UNL     1      14.186   8.599  19.086  0.00  0.00    +0.024 C 
ATOM     12  C   UNL     1      12.522  10.196  20.059  0.00  0.00    -0.023 C 
ATOM     13  C   UNL     1      12.782   9.136  19.272  0.00  0.00    -0.073 C 
ATOM     22  C   UNL     1      11.687   8.456  18.499  0.00  0.00    +0.039 C 
ENDROOT
BRANCH   6  10
ATOM     10  C   UNL     1      16.057  11.189  21.314  0.00  0.00    -0.013 C 
ATOM     17  C   UNL     1      17.393  10.453  21.348  0.00  0.00    +0.007 C 
ATOM     18  C   UNL     1      16.121  12.381  20.366  0.00  0.00    +0.007 C 
ENDBRANCH   6  10
BRANCH   7  11
ATOM     11  C   UNL     1      13.025  11.201  22.276  0.00  0.00    +0.092 C 
BRANCH  11   3
ATOM      3  N   UNL     1      11.568  11.307  22.270  0.00  0.00    -0.302 NA
ATOM     15  C   UNL     1      10.951  10.530  23.354  0.00  0.00    +0.087 C 
ATOM     16  C   UNL     1      11.112  12.703  22.287  0.00  0.00    +0.087 C 
ATOM     19  C   UNL     1      11.119  11.151  24.741  0.00  0.00    +0.046 C 
ATOM     20  C   UNL     1      11.286  13.400  23.637  0.00  0.00    +0.046 C 
ATOM     21  C   UNL     1      10.635  12.598  24.762  0.00  0.00    +0.117 C 
BRANCH  21   1
ATOM      1  O   UNL     1      10.958  13.177  26.020  0.00  0.00    -0.392 OA
ATOM     32  H   UNL     1      11.850  13.558  25.947  0.00  0.00    +0.210 HD
ENDBRANCH  21   1
ENDBRANCH  11   3
ENDBRANCH   7  11
BRANCH   9  14
ATOM     14  C   UNL     1      14.362   7.261  19.814  0.00  0.00    +0.105 C 
BRANCH  14  23
ATOM      2  O   UNL     1      16.650   6.836  20.549  0.00  0.00    -0.420 OA
ATOM      4  N   UNL     1      16.172   6.018  18.523  0.00  0.00    -0.112 NA
ATOM      5  N   UNL     1      17.489   5.708  18.809  0.00  0.00    -0.107 NA
ATOM     23  C   UNL     1      15.723   6.676  19.565  0.00  0.00    +0.218 A 
ATOM     24  C   UNL     1      17.724   6.204  20.001  0.00  0.00    +0.248 A 
BRANCH  24  25
ATOM     25  C   UNL     1      18.916   6.185  20.799  0.00  0.00    +0.038 A 
ATOM     26  C   UNL     1      19.977   5.351  20.447  0.00  0.00    +0.013 A 
ATOM     27  C   UNL     1      19.013   7.000  21.927  0.00  0.00    +0.013 A 
ATOM     28  C   UNL     1      21.136   5.333  21.223  0.00  0.00    +0.004 A 
ATOM     29  C   UNL     1      20.172   6.981  22.704  0.00  0.00    +0.004 A 
ATOM     30  C   UNL     1      21.233   6.147  22.352  0.00  0.00    -0.050 A 
ATOM     31  C   UNL     1      22.472   6.126  23.181  0.00  0.00    +0.044 C 
ENDBRANCH  24  25
ENDBRANCH  14  23
ENDBRANCH   9  14
TORSDOF 7
ENDMDL
MODEL 2
REMARK VINA RESULT:      -7.1      3.058      4.767
REMARK  Name = 38030644
REMARK  11 active torsions:
REMARK  status: ('A' for Active; 'I' for Inactive)
REMARK    1  A    between atoms: O_1  and  C_21
REMARK    2  A    between atoms: N_3  and  C_11
REMARK    3  A    between atoms: C_6  and  C_10
REMARK    4  A    between atoms: C_7  and  C_11
REMARK    5  A    between atoms: C_9  and  C_14
REMARK    6  A    between atoms: C_10  and  C_17
REMARK    7  A    between atoms: C_10  and  C_18
REMARK    8  A    between atoms: C_13  and  C_22
REMARK    9  A    between atoms: C_14  and  C_23
REMARK   10  A    between atoms: C_24  and  C_25
REMARK   11  A    between atoms: C_30  and  C_31
REMARK                            x       y       z     vdW  Elec       q    Type
REMARK                         _______ _______ _______ _____ _____    ______ ____
ROOT
ATOM      6  C   UNL     1      16.174   8.756  21.429  0.00  0.00    +0.000 C 
ATOM      7  C   UNL     1      15.314   7.857  20.506  0.00  0.00    +0.029 C 
ATOM      8  C   UNL     1      17.580   8.943  20.839  0.00  0.00    +0.012 C 
ATOM      9  C   UNL     1      18.312   7.601  20.644  0.00  0.00    +0.024 C 
ATOM     12  C   UNL     1      16.092   6.706  19.910  0.00  0.00    -0.023 C 
ATOM     13  C   UNL     1      17.429   6.569  19.974  0.00  0.00    -0.073 C 
ATOM     22  C   UNL     1      18.120   5.395  19.339  0.00  0.00    +0.039 C 
ENDROOT
BRANCH   6  10
ATOM     10  C   UNL     1      15.523  10.124  21.658  0.00  0.00    -0.013 C 
ATOM     17  C   UNL     1      16.460  11.034  22.444  0.00  0.00    +0.007 C 
ATOM     18  C   UNL     1      15.140  10.760  20.327  0.00  0.00    +0.007 C 
ENDBRANCH   6  10
BRANCH   7  11
ATOM     11  C   UNL     1      14.088   7.314  21.247  0.00  0.00    +0.092 C 
BRANCH  11   3
ATOM      3  N   UNL     1      12.979   7.091  20.323  0.00  0.00    -0.302 NA
ATOM     15  C   UNL     1      11.886   6.329  20.941  0.00  0.00    +0.087 C 
ATOM     16  C   UNL     1      12.489   8.343  19.730  0.00  0.00    +0.087 C 
ATOM     19  C   UNL     1      11.056   7.129  21.945  0.00  0.00    +0.046 C 
ATOM     20  C   UNL     1      11.680   9.214  20.693  0.00  0.00    +0.046 C 
ATOM     21  C   UNL     1      10.537   8.424  21.327  0.00  0.00    +0.117 C 
BRANCH  21   1
ATOM      1  O   UNL     1       9.912   9.203  22.339  0.00  0.00    -0.392 OA
ATOM     32  H   UNL     1       9.716  10.077  21.958  0.00  0.00    +0.210 HD
ENDBRANCH  21   1
ENDBRANCH  11   3
ENDBRANCH   7  11
BRANCH   9  14
ATOM     14  C   UNL     1      18.861   7.074  21.974  0.00  0.00    +0.105 C 
BRANCH  14  23
ATOM      2  O   UNL     1      20.675   5.447  21.856  0.00  0.00    -0.420 OA
ATOM      4  N   UNL     1      21.352   7.579  21.810  0.00  0.00    -0.112 NA
ATOM      5  N   UNL     1      22.473   6.773  21.739  0.00  0.00    -0.107 NA
ATOM     23  C   UNL     1      20.327   6.763  21.878  0.00  0.00    +0.218 A 
ATOM     24  C   UNL     1      22.031   5.538  21.768  0.00  0.00    +0.248 A 
BRANCH  24  25
ATOM     25  C   UNL     1      22.742   4.294  21.723  0.00  0.00    +0.038 A 
ATOM     26  C   UNL     1      23.514   3.971  20.607  0.00  0.00    +0.013 A 
ATOM     27  C   UNL     1      22.662   3.405  22.796  0.00  0.00    +0.013 A 
ATOM     28  C   UNL     1      24.206   2.761  20.564  0.00  0.00    +0.004 A 
ATOM     29  C   UNL     1      23.354   2.194  22.753  0.00  0.00    +0.004 A 
ATOM     30  C   UNL     1      24.126   1.872  21.636  0.00  0.00    -0.050 A 
ATOM     31  C   UNL     1      24.865   0.579  21.589  0.00  0.00    +0.044 C 
ENDBRANCH  24  25
ENDBRANCH  14  23
ENDBRANCH   9  14
TORSDOF 7
ENDMDL
MODEL 3
REMARK VINA RESULT:      -7.0     26.325     28.438
REMARK  Name = 38030644
REMARK  11 active torsions:
REMARK  status: ('A' for Active; 'I' for Inactive)
REMARK    1  A    between atoms: O_1  and  C_21
REMARK    2  A    between atoms: N_3  and  C_11
REMARK    3  A    between atoms: C_6  and  C_10
REMARK    4  A    between atoms: C_7  and  C_11
REMARK    5  A    between atoms: C_9  and  C_14
REMARK    6  A    between atoms: C_10  and  C_17
REMARK    7  A    between atoms: C_10  and  C_18
REMARK    8  A    between atoms: C_13  and  C_22
REMARK    9  A    between atoms: C_14  and  C_23
REMARK   10  A    between atoms: C_24  and  C_25
REMARK   11  A    between atoms: C_30  and  C_31
REMARK                            x       y       z     vdW  Elec       q    Type
REMARK                         _______ _______ _______ _____ _____    ______ ____
ROOT
ATOM      6  C   UNL     1     -11.811  10.418  18.379  0.00  0.00    +0.000 C 
ATOM      7  C   UNL     1     -11.588   9.072  17.646  0.00  0.00    +0.029 C 
ATOM      8  C   UNL     1     -11.146  10.393  19.763  0.00  0.00    +0.012 C 
ATOM      9  C   UNL     1     -11.692   9.258  20.650  0.00  0.00    +0.024 C 
ATOM     12  C   UNL     1     -11.694   7.876  18.563  0.00  0.00    -0.023 C 
ATOM     13  C   UNL     1     -11.755   7.940  19.906  0.00  0.00    -0.073 C 
ATOM     22  C   UNL     1     -11.845   6.693  20.740  0.00  0.00    +0.039 C 
ENDROOT
BRANCH   6  10
ATOM     10  C   UNL     1     -11.274  11.603  17.569  0.00  0.00    -0.013 C 
ATOM     17  C   UNL     1     -11.581  12.917  18.280  0.00  0.00    +0.007 C 
ATOM     18  C   UNL     1      -9.775  11.452  17.335  0.00  0.00    +0.007 C 
ENDBRANCH   6  10
BRANCH   7  11
ATOM     11  C   UNL     1     -12.567   8.908  16.479  0.00  0.00    +0.092 C 
BRANCH  11   3
ATOM      3  N   UNL     1     -11.976   9.392  15.233  0.00  0.00    -0.302 NA
ATOM     15  C   UNL     1     -10.622   8.862  15.020  0.00  0.00    +0.087 C 
ATOM     16  C   UNL     1     -12.838   9.136  14.072  0.00  0.00    +0.087 C 
ATOM     19  C   UNL     1     -10.585   7.387  14.616  0.00  0.00    +0.046 C 
ATOM     20  C   UNL     1     -12.879   7.671  13.635  0.00  0.00    +0.046 C 
ATOM     21  C   UNL     1     -11.472   7.123  13.403  0.00  0.00    +0.117 C 
BRANCH  21   1
ATOM      1  O   UNL     1     -11.530   5.722  13.166  0.00  0.00    -0.392 OA
ATOM     32  H   UNL     1     -12.148   5.341  13.813  0.00  0.00    +0.210 HD
ENDBRANCH  21   1
ENDBRANCH  11   3
ENDBRANCH   7  11
BRANCH   9  14
ATOM     14  C   UNL     1     -13.062   9.624  21.234  0.00  0.00    +0.105 C 
BRANCH  14  23
ATOM      2  O   UNL     1     -12.685   9.956  23.621  0.00  0.00    -0.420 OA
ATOM      4  N   UNL     1     -13.008  11.848  22.474  0.00  0.00    -0.112 NA
ATOM      5  N   UNL     1     -12.811  12.182  23.800  0.00  0.00    -0.107 NA
ATOM     23  C   UNL     1     -12.927  10.540  22.416  0.00  0.00    +0.218 A 
ATOM     24  C   UNL     1     -12.625  11.047  24.433  0.00  0.00    +0.248 A 
BRANCH  24  25
ATOM     25  C   UNL     1     -12.375  10.785  25.820  0.00  0.00    +0.038 A 
ATOM     26  C   UNL     1     -13.431  10.791  26.732  0.00  0.00    +0.013 A 
ATOM     27  C   UNL     1     -11.077  10.524  26.259  0.00  0.00    +0.013 A 
ATOM     28  C   UNL     1     -13.187  10.535  28.082  0.00  0.00    +0.004 A 
ATOM     29  C   UNL     1     -10.833  10.270  27.608  0.00  0.00    +0.004 A 
ATOM     30  C   UNL     1     -11.888  10.275  28.520  0.00  0.00    -0.050 A 
ATOM     31  C   UNL     1     -11.629  10.003  29.962  0.00  0.00    +0.044 C 
ENDBRANCH  24  25
ENDBRANCH  14  23
ENDBRANCH   9  14
TORSDOF 7
ENDMDL
MODEL 4
REMARK VINA RESULT:      -6.7     27.383     31.175
REMARK  Name = 38030644
REMARK  11 active torsions:
REMARK  status: ('A' for Active; 'I' for Inactive)
REMARK    1  A    between atoms: O_1  and  C_21
REMARK    2  A    between atoms: N_3  and  C_11
REMARK    3  A    between atoms: C_6  and  C_10
REMARK    4  A    between atoms: C_7  and  C_11
REMARK    5  A    between atoms: C_9  and  C_14
REMARK    6  A    between atoms: C_10  and  C_17
REMARK    7  A    between atoms: C_10  and  C_18
REMARK    8  A    between atoms: C_13  and  C_22
REMARK    9  A    between atoms: C_14  and  C_23
REMARK   10  A    between atoms: C_24  and  C_25
REMARK   11  A    between atoms: C_30  and  C_31
REMARK                            x       y       z     vdW  Elec       q    Type
REMARK                         _______ _______ _______ _____ _____    ______ ____
ROOT
ATOM      6  C   UNL     1      -3.450 -10.805  14.713  0.00  0.00    +0.000 C 
ATOM      7  C   UNL     1      -4.187 -11.327  13.454  0.00  0.00    +0.029 C 
ATOM      8  C   UNL     1      -3.825 -11.647  15.942  0.00  0.00    +0.012 C 
ATOM      9  C   UNL     1      -5.340 -11.628  16.220  0.00  0.00    +0.024 C 
ATOM     12  C   UNL     1      -5.612 -11.744  13.735  0.00  0.00    -0.023 C 
ATOM     13  C   UNL     1      -6.148 -11.871  14.962  0.00  0.00    -0.073 C 
ATOM     22  C   UNL     1      -7.575 -12.306  15.146  0.00  0.00    +0.039 C 
ENDROOT
BRANCH   6  10
ATOM     10  C   UNL     1      -1.930 -10.812  14.525  0.00  0.00    -0.013 C 
ATOM     17  C   UNL     1      -1.234 -10.330  15.794  0.00  0.00    +0.007 C 
ATOM     18  C   UNL     1      -1.447 -12.206  14.139  0.00  0.00    +0.007 C 
ENDBRANCH   6  10
BRANCH   7  11
ATOM     11  C   UNL     1      -4.173 -10.283  12.332  0.00  0.00    +0.092 C 
BRANCH  11   3
ATOM      3  N   UNL     1      -3.280 -10.695  11.252  0.00  0.00    -0.302 NA
ATOM     15  C   UNL     1      -3.914 -11.663  10.346  0.00  0.00    +0.087 C 
ATOM     16  C   UNL     1      -2.736  -9.548  10.512  0.00  0.00    +0.087 C 
ATOM     19  C   UNL     1      -4.966 -11.054   9.418  0.00  0.00    +0.046 C 
ATOM     20  C   UNL     1      -3.747  -8.865   9.589  0.00  0.00    +0.046 C 
ATOM     21  C   UNL     1      -4.398  -9.869   8.640  0.00  0.00    +0.117 C 
BRANCH  21   1
ATOM      1  O   UNL     1      -5.450  -9.242   7.918  0.00  0.00    -0.392 OA
ATOM     32  H   UNL     1      -6.252  -9.290   8.466  0.00  0.00    +0.210 HD
ENDBRANCH  21   1
ENDBRANCH  11   3
ENDBRANCH   7  11
BRANCH   9  14
ATOM     14  C   UNL     1      -5.760 -10.318  16.897  0.00  0.00    +0.105 C 
BRANCH  14  23
ATOM      2  O   UNL     1      -8.025 -10.222  17.798  0.00  0.00    -0.420 OA
ATOM      4  N   UNL     1      -6.516 -11.076  19.209  0.00  0.00    -0.112 NA
ATOM      5  N   UNL     1      -7.743 -11.080  19.844  0.00  0.00    -0.107 NA
ATOM     23  C   UNL     1      -6.727 -10.566  18.019  0.00  0.00    +0.218 A 
ATOM     24  C   UNL     1      -8.595 -10.574  18.983  0.00  0.00    +0.248 A 
BRANCH  24  25
ATOM     25  C   UNL     1     -10.005 -10.338  19.098  0.00  0.00    +0.038 A 
ATOM     26  C   UNL     1     -10.668  -9.589  18.125  0.00  0.00    +0.013 A 
ATOM     27  C   UNL     1     -10.714 -10.858  20.181  0.00  0.00    +0.013 A 
ATOM     28  C   UNL     1     -12.039  -9.360  18.237  0.00  0.00    +0.004 A 
ATOM     29  C   UNL     1     -12.085 -10.628  20.293  0.00  0.00    +0.004 A 
ATOM     30  C   UNL     1     -12.748  -9.879  19.321  0.00  0.00    -0.050 A 
ATOM     31  C   UNL     1     -14.213  -9.633  19.439  0.00  0.00    +0.044 C 
ENDBRANCH  24  25
ENDBRANCH  14  23
ENDBRANCH   9  14
TORSDOF 7
ENDMDL
MODEL 5
REMARK VINA RESULT:      -6.6     27.429     30.430
REMARK  Name = 38030644
REMARK  11 active torsions:
REMARK  status: ('A' for Active; 'I' for Inactive)
REMARK    1  A    between atoms: O_1  and  C_21
REMARK    2  A    between atoms: N_3  and  C_11
REMARK    3  A    between atoms: C_6  and  C_10
REMARK    4  A    between atoms: C_7  and  C_11
REMARK    5  A    between atoms: C_9  and  C_14
REMARK    6  A    between atoms: C_10  and  C_17
REMARK    7  A    between atoms: C_10  and  C_18
REMARK    8  A    between atoms: C_13  and  C_22
REMARK    9  A    between atoms: C_14  and  C_23
REMARK   10  A    between atoms: C_24  and  C_25
REMARK   11  A    between atoms: C_30  and  C_31
REMARK                            x       y       z     vdW  Elec       q    Type
REMARK                         _______ _______ _______ _____ _____    ______ ____
ROOT
ATOM      6  C   UNL     1      -8.738 -10.863  15.952  0.00  0.00    +0.000 C 
ATOM      7  C   UNL     1     -10.245 -10.618  16.210  0.00  0.00    +0.029 C 
ATOM      8  C   UNL     1      -8.178 -11.875  16.963  0.00  0.00    +0.012 C 
ATOM      9  C   UNL     1      -8.353 -11.401  18.419  0.00  0.00    +0.024 C 
ATOM     12  C   UNL     1     -10.591 -10.556  17.680  0.00  0.00    -0.023 C 
ATOM     13  C   UNL     1      -9.755 -10.889  18.680  0.00  0.00    -0.073 C 
ATOM     22  C   UNL     1     -10.191 -10.810  20.117  0.00  0.00    +0.039 C 
ENDROOT
BRANCH   6  10
ATOM     10  C   UNL     1      -8.478 -11.358  14.526  0.00  0.00    -0.013 C 
ATOM     17  C   UNL     1      -7.748 -10.291  13.717  0.00  0.00    +0.007 C 
ATOM     18  C   UNL     1      -7.681 -12.657  14.551  0.00  0.00    +0.007 C 
ENDBRANCH   6  10
BRANCH   7  11
ATOM     11  C   UNL     1     -10.724  -9.336  15.520  0.00  0.00    +0.092 C 
BRANCH  11   3
ATOM      3  N   UNL     1     -11.333  -8.424  16.484  0.00  0.00    -0.302 NA
ATOM     15  C   UNL     1     -10.490  -7.249  16.746  0.00  0.00    +0.087 C 
ATOM     16  C   UNL     1     -12.693  -8.028  16.093  0.00  0.00    +0.087 C 
ATOM     19  C   UNL     1     -10.465  -6.231  15.605  0.00  0.00    +0.046 C 
ATOM     20  C   UNL     1     -12.745  -7.038  14.929  0.00  0.00    +0.046 C 
ATOM     21  C   UNL     1     -11.877  -5.811  15.206  0.00  0.00    +0.117 C 
BRANCH  21   1
ATOM      1  O   UNL     1     -11.807  -4.994  14.045  0.00  0.00    -0.392 OA
ATOM     32  H   UNL     1     -12.701  -4.654  13.871  0.00  0.00    +0.210 HD
ENDBRANCH  21   1
ENDBRANCH  11   3
ENDBRANCH   7  11
BRANCH   9  14
ATOM     14  C   UNL     1      -7.306 -10.344  18.786  0.00  0.00    +0.105 C 
BRANCH  14  23
ATOM      2  O   UNL     1      -5.552 -10.419  17.092  0.00  0.00    -0.420 OA
ATOM      4  N   UNL     1      -5.010 -11.422  19.016  0.00  0.00    -0.112 NA
ATOM      5  N   UNL     1      -3.934 -11.541  18.155  0.00  0.00    -0.107 NA
ATOM     23  C   UNL     1      -5.930 -10.762  18.353  0.00  0.00    +0.218 A 
ATOM     24  C   UNL     1      -4.295 -10.940  17.045  0.00  0.00    +0.248 A 
BRANCH  24  25
ATOM     25  C   UNL     1      -3.583 -10.754  15.814  0.00  0.00    +0.038 A 
ATOM     26  C   UNL     1      -4.259 -10.840  14.597  0.00  0.00    +0.013 A 
ATOM     27  C   UNL     1      -2.214 -10.485  15.834  0.00  0.00    +0.013 A 
ATOM     28  C   UNL     1      -3.566 -10.658  13.400  0.00  0.00    +0.004 A 
ATOM     29  C   UNL     1      -1.520 -10.304  14.637  0.00  0.00    +0.004 A 
ATOM     30  C   UNL     1      -2.197 -10.391  13.420  0.00  0.00    -0.050 A 
ATOM     31  C   UNL     1      -1.457 -10.197  12.141  0.00  0.00    +0.044 C 
ENDBRANCH  24  25
ENDBRANCH  14  23
ENDBRANCH   9  14
TORSDOF 7
ENDMDL
MODEL 6
REMARK VINA RESULT:      -6.5     28.209     30.142
REMARK  Name = 38030644
REMARK  11 active torsions:
REMARK  status: ('A' for Active; 'I' for Inactive)
REMARK    1  A    between atoms: O_1  and  C_21
REMARK    2  A    between atoms: N_3  and  C_11
REMARK    3  A    between atoms: C_6  and  C_10
REMARK    4  A    between atoms: C_7  and  C_11
REMARK    5  A    between atoms: C_9  and  C_14
REMARK    6  A    between atoms: C_10  and  C_17
REMARK    7  A    between atoms: C_10  and  C_18
REMARK    8  A    between atoms: C_13  and  C_22
REMARK    9  A    between atoms: C_14  and  C_23
REMARK   10  A    between atoms: C_24  and  C_25
REMARK   11  A    between atoms: C_30  and  C_31
REMARK                            x       y       z     vdW  Elec       q    Type
REMARK                         _______ _______ _______ _____ _____    ______ ____
ROOT
ATOM      6  C   UNL     1      -6.332 -10.892  15.380  0.00  0.00    +0.000 C 
ATOM      7  C   UNL     1      -7.118 -10.692  16.700  0.00  0.00    +0.029 C 
ATOM      8  C   UNL     1      -5.388 -12.099  15.495  0.00  0.00    +0.012 C 
ATOM      9  C   UNL     1      -4.376 -11.938  16.646  0.00  0.00    +0.024 C 
ATOM     12  C   UNL     1      -6.276 -10.936  17.931  0.00  0.00    -0.023 C 
ATOM     13  C   UNL     1      -5.045 -11.479  17.925  0.00  0.00    -0.073 C 
ATOM     22  C   UNL     1      -4.286 -11.697  19.203  0.00  0.00    +0.039 C 
ENDROOT
BRANCH   6  10
ATOM     10  C   UNL     1      -7.270 -11.081  14.183  0.00  0.00    -0.013 C 
ATOM     17  C   UNL     1      -7.004 -10.014  13.126  0.00  0.00    +0.007 C 
ATOM     18  C   UNL     1      -7.107 -12.478  13.595  0.00  0.00    +0.007 C 
ENDBRANCH   6  10
BRANCH   7  11
ATOM     11  C   UNL     1      -7.732  -9.290  16.771  0.00  0.00    +0.092 C 
BRANCH  11   3
ATOM      3  N   UNL     1      -9.062  -9.336  17.374  0.00  0.00    -0.302 NA
ATOM     15  C   UNL     1      -9.691  -8.010  17.433  0.00  0.00    +0.087 C 
ATOM     16  C   UNL     1      -9.938 -10.314  16.713  0.00  0.00    +0.087 C 
ATOM     19  C   UNL     1     -10.181  -7.490  16.081  0.00  0.00    +0.046 C 
ATOM     20  C   UNL     1     -10.436  -9.874  15.335  0.00  0.00    +0.046 C 
ATOM     21  C   UNL     1     -11.100  -8.500  15.399  0.00  0.00    +0.117 C 
BRANCH  21   1
ATOM      1  O   UNL     1     -11.397  -8.044  14.086  0.00  0.00    -0.392 OA
ATOM     32  H   UNL     1     -10.584  -8.121  13.557  0.00  0.00    +0.210 HD
ENDBRANCH  21   1
ENDBRANCH  11   3
ENDBRANCH   7  11
BRANCH   9  14
ATOM     14  C   UNL     1      -3.237 -10.991  16.251  0.00  0.00    +0.105 C 
BRANCH  14  23
ATOM      2  O   UNL     1      -3.556 -10.761  13.843  0.00  0.00    -0.420 OA
ATOM      4  N   UNL     1      -1.706 -11.878  14.419  0.00  0.00    -0.112 NA
ATOM      5  N   UNL     1      -1.760 -11.825  13.039  0.00  0.00    -0.107 NA
ATOM     23  C   UNL     1      -2.774 -11.246  14.846  0.00  0.00    +0.218 A 
ATOM     24  C   UNL     1      -2.855 -11.163  12.747  0.00  0.00    +0.248 A 
BRANCH  24  25
ATOM     25  C   UNL     1      -3.417 -10.807  11.477  0.00  0.00    +0.038 A 
ATOM     26  C   UNL     1      -4.340 -11.653  10.861  0.00  0.00    +0.013 A 
ATOM     27  C   UNL     1      -3.042  -9.615  10.857  0.00  0.00    +0.013 A 
ATOM     28  C   UNL     1      -4.887 -11.305   9.626  0.00  0.00    +0.004 A 
ATOM     29  C   UNL     1      -3.588  -9.268   9.621  0.00  0.00    +0.004 A 
ATOM     30  C   UNL     1      -4.511 -10.114   9.005  0.00  0.00    -0.050 A 
ATOM     31  C   UNL     1      -5.095  -9.744   7.685  0.00  0.00    +0.044 C 
ENDBRANCH  24  25
ENDBRANCH  14  23
ENDBRANCH   9  14
TORSDOF 7
ENDMDL
MODEL 7
REMARK VINA RESULT:      -6.5      3.581      5.561
REMARK  Name = 38030644
REMARK  11 active torsions:
REMARK  status: ('A' for Active; 'I' for Inactive)
REMARK    1  A    between atoms: O_1  and  C_21
REMARK    2  A    between atoms: N_3  and  C_11
REMARK    3  A    between atoms: C_6  and  C_10
REMARK    4  A    between atoms: C_7  and  C_11
REMARK    5  A    between atoms: C_9  and  C_14
REMARK    6  A    between atoms: C_10  and  C_17
REMARK    7  A    between atoms: C_10  and  C_18
REMARK    8  A    between atoms: C_13  and  C_22
REMARK    9  A    between atoms: C_14  and  C_23
REMARK   10  A    between atoms: C_24  and  C_25
REMARK   11  A    between atoms: C_30  and  C_31
REMARK                            x       y       z     vdW  Elec       q    Type
REMARK                         _______ _______ _______ _____ _____    ______ ____
ROOT
ATOM      6  C   UNL     1      16.777   8.253  20.250  0.00  0.00    +0.000 C 
ATOM      7  C   UNL     1      15.737   9.386  20.437  0.00  0.00    +0.029 C 
ATOM      8  C   UNL     1      17.608   8.071  21.529  0.00  0.00    +0.012 C 
ATOM      9  C   UNL     1      18.354   9.359  21.926  0.00  0.00    +0.024 C 
ATOM     12  C   UNL     1      16.278  10.563  21.213  0.00  0.00    -0.023 C 
ATOM     13  C   UNL     1      17.451  10.574  21.873  0.00  0.00    -0.073 C 
ATOM     22  C   UNL     1      17.904  11.790  22.633  0.00  0.00    +0.039 C 
ENDROOT
BRANCH   6  10
ATOM     10  C   UNL     1      16.111   6.926  19.873  0.00  0.00    -0.013 C 
ATOM     17  C   UNL     1      17.120   5.994  19.209  0.00  0.00    +0.007 C 
ATOM     18  C   UNL     1      15.497   6.269  21.105  0.00  0.00    +0.007 C 
ENDBRANCH   6  10
BRANCH   7  11
ATOM     11  C   UNL     1      15.198   9.870  19.086  0.00  0.00    +0.092 C 
BRANCH  11   3
ATOM      3  N   UNL     1      13.806  10.298  19.207  0.00  0.00    -0.302 NA
ATOM     15  C   UNL     1      13.177  10.514  17.897  0.00  0.00    +0.087 C 
ATOM     16  C   UNL     1      13.012   9.381  20.036  0.00  0.00    +0.087 C 
ATOM     19  C   UNL     1      12.849   9.226  17.141  0.00  0.00    +0.046 C 
ATOM     20  C   UNL     1      12.679   8.053  19.354  0.00  0.00    +0.046 C 
ATOM     21  C   UNL     1      12.015   8.278  17.997  0.00  0.00    +0.117 C 
BRANCH  21   1
ATOM      1  O   UNL     1      11.874   7.039  17.315  0.00  0.00    -0.392 OA
ATOM     32  H   UNL     1      12.754   6.627  17.268  0.00  0.00    +0.210 HD
ENDBRANCH  21   1
ENDBRANCH  11   3
ENDBRANCH   7  11
BRANCH   9  14
ATOM     14  C   UNL     1      19.601   9.564  21.057  0.00  0.00    +0.105 C 
BRANCH  14  23
ATOM      2  O   UNL     1      20.908   7.507  21.153  0.00  0.00    -0.420 OA
ATOM      4  N   UNL     1      21.712   9.162  22.425  0.00  0.00    -0.112 NA
ATOM      5  N   UNL     1      22.542   8.067  22.575  0.00  0.00    -0.107 NA
ATOM     23  C   UNL     1      20.773   8.790  21.588  0.00  0.00    +0.218 A 
ATOM     24  C   UNL     1      22.036   7.125  21.815  0.00  0.00    +0.248 A 
BRANCH  24  25
ATOM     25  C   UNL     1      22.478   5.782  21.579  0.00  0.00    +0.038 A 
ATOM     26  C   UNL     1      21.816   4.713  22.185  0.00  0.00    +0.013 A 
ATOM     27  C   UNL     1      23.568   5.542  20.743  0.00  0.00    +0.013 A 
ATOM     28  C   UNL     1      22.246   3.406  21.955  0.00  0.00    +0.004 A 
ATOM     29  C   UNL     1      23.999   4.236  20.513  0.00  0.00    +0.004 A 
ATOM     30  C   UNL     1      23.338   3.167  21.119  0.00  0.00    -0.050 A 
ATOM     31  C   UNL     1      23.797   1.770  20.875  0.00  0.00    +0.044 C 
ENDBRANCH  24  25
ENDBRANCH  14  23
ENDBRANCH   9  14
TORSDOF 7
ENDMDL
MODEL 8
REMARK VINA RESULT:      -6.4     27.846     31.494
REMARK  Name = 38030644
REMARK  11 active torsions:
REMARK  status: ('A' for Active; 'I' for Inactive)
REMARK    1  A    between atoms: O_1  and  C_21
REMARK    2  A    between atoms: N_3  and  C_11
REMARK    3  A    between atoms: C_6  and  C_10
REMARK    4  A    between atoms: C_7  and  C_11
REMARK    5  A    between atoms: C_9  and  C_14
REMARK    6  A    between atoms: C_10  and  C_17
REMARK    7  A    between atoms: C_10  and  C_18
REMARK    8  A    between atoms: C_13  and  C_22
REMARK    9  A    between atoms: C_14  and  C_23
REMARK   10  A    between atoms: C_24  and  C_25
REMARK   11  A    between atoms: C_30  and  C_31
REMARK                            x       y       z     vdW  Elec       q    Type
REMARK                         _______ _______ _______ _____ _____    ______ ____
ROOT
ATOM      6  C   UNL     1      -5.338 -10.700   6.861  0.00  0.00    +0.000 C 
ATOM      7  C   UNL     1      -6.782 -10.140   6.881  0.00  0.00    +0.029 C 
ATOM      8  C   UNL     1      -5.036 -11.454   8.165  0.00  0.00    +0.012 C 
ATOM      9  C   UNL     1      -5.194 -10.555   9.406  0.00  0.00    +0.024 C 
ATOM     12  C   UNL     1      -7.186  -9.597   8.232  0.00  0.00    -0.023 C 
ATOM     13  C   UNL     1      -6.483  -9.760   9.367  0.00  0.00    -0.073 C 
ATOM     22  C   UNL     1      -6.970  -9.194  10.672  0.00  0.00    +0.039 C 
ENDROOT
BRANCH   6  10
ATOM     10  C   UNL     1      -5.104 -11.625   5.662  0.00  0.00    -0.013 C 
ATOM     17  C   UNL     1      -3.724 -12.269   5.749  0.00  0.00    +0.007 C 
ATOM     18  C   UNL     1      -6.193 -12.689   5.590  0.00  0.00    +0.007 C 
ENDBRANCH   6  10
BRANCH   7  11
ATOM     11  C   UNL     1      -6.969  -9.053   5.817  0.00  0.00    +0.092 C 
BRANCH  11   3
ATOM      3  N   UNL     1      -8.365  -8.979   5.391  0.00  0.00    -0.302 NA
ATOM     15  C   UNL     1      -8.642  -7.768   4.607  0.00  0.00    +0.087 C 
ATOM     16  C   UNL     1      -8.792 -10.188   4.675  0.00  0.00    +0.087 C 
ATOM     19  C   UNL     1      -8.076  -7.800   3.187  0.00  0.00    +0.046 C 
ATOM     20  C   UNL     1      -8.231 -10.305   3.257  0.00  0.00    +0.046 C 
ATOM     21  C   UNL     1      -8.529  -9.050   2.438  0.00  0.00    +0.117 C 
BRANCH  21   1
ATOM      1  O   UNL     1      -7.853  -9.113   1.189  0.00  0.00    -0.392 OA
ATOM     32  H   UNL     1      -7.182  -8.409   1.183  0.00  0.00    +0.210 HD
ENDBRANCH  21   1
ENDBRANCH  11   3
ENDBRANCH   7  11
BRANCH   9  14
ATOM     14  C   UNL     1      -3.983  -9.629   9.574  0.00  0.00    +0.105 C 
BRANCH  14  23
ATOM      2  O   UNL     1      -3.988 -10.076  11.973  0.00  0.00    -0.420 OA
ATOM      4  N   UNL     1      -1.952 -10.061  11.049  0.00  0.00    -0.112 NA
ATOM      5  N   UNL     1      -1.806 -10.322  12.399  0.00  0.00    -0.107 NA
ATOM     23  C   UNL     1      -3.241  -9.923  10.846  0.00  0.00    +0.218 A 
ATOM     24  C   UNL     1      -3.020 -10.322  12.898  0.00  0.00    +0.248 A 
BRANCH  24  25
ATOM     25  C   UNL     1      -3.474 -10.537  14.241  0.00  0.00    +0.038 A 
ATOM     26  C   UNL     1      -4.839 -10.509  14.529  0.00  0.00    +0.013 A 
ATOM     27  C   UNL     1      -2.551 -10.773  15.260  0.00  0.00    +0.013 A 
ATOM     28  C   UNL     1      -5.280 -10.718  15.835  0.00  0.00    +0.004 A 
ATOM     29  C   UNL     1      -2.992 -10.982  16.567  0.00  0.00    +0.004 A 
ATOM     30  C   UNL     1      -4.357 -10.954  16.855  0.00  0.00    -0.050 A 
ATOM     31  C   UNL     1      -4.829 -11.176  18.251  0.00  0.00    +0.044 C 
ENDBRANCH  24  25
ENDBRANCH  14  23
ENDBRANCH   9  14
TORSDOF 7
ENDMDL
MODEL 9
REMARK VINA RESULT:      -6.3     27.566     31.697
REMARK  Name = 38030644
REMARK  11 active torsions:
REMARK  status: ('A' for Active; 'I' for Inactive)
REMARK    1  A    between atoms: O_1  and  C_21
REMARK    2  A    between atoms: N_3  and  C_11
REMARK    3  A    between atoms: C_6  and  C_10
REMARK    4  A    between atoms: C_7  and  C_11
REMARK    5  A    between atoms: C_9  and  C_14
REMARK    6  A    between atoms: C_10  and  C_17
REMARK    7  A    between atoms: C_10  and  C_18
REMARK    8  A    between atoms: C_13  and  C_22
REMARK    9  A    between atoms: C_14  and  C_23
REMARK   10  A    between atoms: C_24  and  C_25
REMARK   11  A    between atoms: C_30  and  C_31
REMARK                            x       y       z     vdW  Elec       q    Type
REMARK                         _______ _______ _______ _____ _____    ______ ____
ROOT
ATOM      6  C   UNL     1      -6.365 -10.432  17.517  0.00  0.00    +0.000 C 
ATOM      7  C   UNL     1      -5.790 -10.954  16.177  0.00  0.00    +0.029 C 
ATOM      8  C   UNL     1      -7.860 -10.767  17.627  0.00  0.00    +0.012 C 
ATOM      9  C   UNL     1      -8.679 -10.157  16.473  0.00  0.00    +0.024 C 
ATOM     12  C   UNL     1      -6.739 -10.771  15.015  0.00  0.00    -0.023 C 
ATOM     13  C   UNL     1      -8.027 -10.402  15.127  0.00  0.00    -0.073 C 
ATOM     22  C   UNL     1      -8.903 -10.257  13.914  0.00  0.00    +0.039 C 
ENDROOT
BRANCH   6  10
ATOM     10  C   UNL     1      -5.615 -11.011  18.722  0.00  0.00    -0.013 C 
ATOM     17  C   UNL     1      -6.328 -10.642  20.019  0.00  0.00    +0.007 C 
ATOM     18  C   UNL     1      -5.482 -12.523  18.589  0.00  0.00    +0.007 C 
ENDBRANCH   6  10
BRANCH   7  11
ATOM     11  C   UNL     1      -4.449 -10.286  15.852  0.00  0.00    +0.092 C 
BRANCH  11   3
ATOM      3  N   UNL     1      -3.353 -11.247  15.951  0.00  0.00    -0.302 NA
ATOM     15  C   UNL     1      -3.559 -12.415  15.084  0.00  0.00    +0.087 C 
ATOM     16  C   UNL     1      -2.045 -10.624  15.707  0.00  0.00    +0.087 C 
ATOM     19  C   UNL     1      -3.348 -12.133  13.596  0.00  0.00    +0.046 C 
ATOM     20  C   UNL     1      -1.782 -10.280  14.240  0.00  0.00    +0.046 C 
ATOM     21  C   UNL     1      -1.985 -11.497  13.340  0.00  0.00    +0.117 C 
BRANCH  21   1
ATOM      1  O   UNL     1      -1.902 -11.110  11.975  0.00  0.00    -0.392 OA
ATOM     32  H   UNL     1      -2.728 -10.649  11.750  0.00  0.00    +0.210 HD
ENDBRANCH  21   1
ENDBRANCH  11   3
ENDBRANCH   7  11
BRANCH   9  14
ATOM     14  C   UNL     1      -8.922  -8.660  16.700  0.00  0.00    +0.105 C 
BRANCH  14  23
ATOM      2  O   UNL     1     -10.684  -7.362  15.622  0.00  0.00    -0.420 OA
ATOM      4  N   UNL     1     -11.420  -8.787  17.181  0.00  0.00    -0.112 NA
ATOM      5  N   UNL     1     -12.514  -8.124  16.659  0.00  0.00    -0.107 NA
ATOM     23  C   UNL     1     -10.374  -8.311  16.548  0.00  0.00    +0.218 A 
ATOM     24  C   UNL     1     -12.038  -7.303  15.752  0.00  0.00    +0.248 A 
BRANCH  24  25
ATOM     25  C   UNL     1     -12.711  -6.370  14.895  0.00  0.00    +0.038 A 
ATOM     26  C   UNL     1     -14.099  -6.419  14.765  0.00  0.00    +0.013 A 
ATOM     27  C   UNL     1     -11.978  -5.414  14.192  0.00  0.00    +0.013 A 
ATOM     28  C   UNL     1     -14.753  -5.511  13.932  0.00  0.00    +0.004 A 
ATOM     29  C   UNL     1     -12.631  -4.507  13.358  0.00  0.00    +0.004 A 
ATOM     30  C   UNL     1     -14.020  -4.556  13.228  0.00  0.00    -0.050 A 
ATOM     31  C   UNL     1     -14.719  -3.587  12.338  0.00  0.00    +0.044 C 
ENDBRANCH  24  25
ENDBRANCH  14  23
ENDBRANCH   9  14
TORSDOF 7
ENDMDL
MODEL 10
REMARK VINA RESULT:      -6.3     15.327     18.364
REMARK  Name = 38030644
REMARK  11 active torsions:
REMARK  status: ('A' for Active; 'I' for Inactive)
REMARK    1  A    between atoms: O_1  and  C_21
REMARK    2  A    between atoms: N_3  and  C_11
REMARK    3  A    between atoms: C_6  and  C_10
REMARK    4  A    between atoms: C_7  and  C_11
REMARK    5  A    between atoms: C_9  and  C_14
REMARK    6  A    between atoms: C_10  and  C_17
REMARK    7  A    between atoms: C_10  and  C_18
REMARK    8  A    between atoms: C_13  and  C_22
REMARK    9  A    between atoms: C_14  and  C_23
REMARK   10  A    between atoms: C_24  and  C_25
REMARK   11  A    between atoms: C_30  and  C_31
REMARK                            x       y       z     vdW  Elec       q    Type
REMARK                         _______ _______ _______ _____ _____    ______ ____
ROOT
ATOM      6  C   UNL     1       9.788   6.738   5.158  0.00  0.00    +0.000 C 
ATOM      7  C   UNL     1       9.944   6.396   3.655  0.00  0.00    +0.029 C 
ATOM      8  C   UNL     1       8.343   7.160   5.465  0.00  0.00    +0.012 C 
ATOM      9  C   UNL     1       7.906   8.384   4.638  0.00  0.00    +0.024 C 
ATOM     12  C   UNL     1       9.174   7.332   2.753  0.00  0.00    -0.023 C 
ATOM     13  C   UNL     1       8.271   8.235   3.175  0.00  0.00    -0.073 C 
ATOM     22  C   UNL     1       7.541   9.118   2.201  0.00  0.00    +0.039 C 
ENDROOT
BRANCH   6  10
ATOM     10  C   UNL     1      10.185   5.560   6.054  0.00  0.00    -0.013 C 
ATOM     17  C   UNL     1       9.511   5.678   7.417  0.00  0.00    +0.007 C 
ATOM     18  C   UNL     1       9.825   4.238   5.385  0.00  0.00    +0.007 C 
ENDBRANCH   6  10
BRANCH   7  11
ATOM     11  C   UNL     1      11.419   6.385   3.240  0.00  0.00    +0.092 C 
BRANCH  11   3
ATOM      3  N   UNL     1      11.558   6.048   1.825  0.00  0.00    -0.302 NA
ATOM     15  C   UNL     1      12.886   6.391   1.300  0.00  0.00    +0.087 C 
ATOM     16  C   UNL     1      11.222   4.644   1.553  0.00  0.00    +0.087 C 
ATOM     19  C   UNL     1      14.002   5.454   1.765  0.00  0.00    +0.046 C 
ATOM     20  C   UNL     1      12.280   3.646   2.028  0.00  0.00    +0.046 C 
ATOM     21  C   UNL     1      13.660   3.996   1.473  0.00  0.00    +0.117 C 
BRANCH  21   1
ATOM      1  O   UNL     1      14.646   3.160   2.063  0.00  0.00    -0.392 OA
ATOM     32  H   UNL     1      14.788   2.406   1.466  0.00  0.00    +0.210 HD
ENDBRANCH  21   1
ENDBRANCH  11   3
ENDBRANCH   7  11
BRANCH   9  14
ATOM     14  C   UNL     1       8.486   9.679   5.219  0.00  0.00    +0.105 C 
BRANCH  14  23
ATOM      2  O   UNL     1      10.864   9.353   5.659  0.00  0.00    -0.420 OA
ATOM      4  N   UNL     1       9.565   9.178   7.471  0.00  0.00    -0.112 NA
ATOM      5  N   UNL     1      10.875   8.972   7.863  0.00  0.00    -0.107 NA
ATOM     23  C   UNL     1       9.606   9.396   6.178  0.00  0.00    +0.218 A 
ATOM     24  C   UNL     1      11.598   9.084   6.773  0.00  0.00    +0.248 A 
BRANCH  24  25
ATOM     25  C   UNL     1      13.014   8.968   6.580  0.00  0.00    +0.038 A 
ATOM     26  C   UNL     1      13.600   7.708   6.457  0.00  0.00    +0.013 A 
ATOM     27  C   UNL     1      13.806  10.115   6.514  0.00  0.00    +0.013 A 
ATOM     28  C   UNL     1      14.977   7.596   6.268  0.00  0.00    +0.004 A 
ATOM     29  C   UNL     1      15.183  10.002   6.327  0.00  0.00    +0.004 A 
ATOM     30  C   UNL     1      15.769   8.742   6.204  0.00  0.00    -0.050 A 
ATOM     31  C   UNL     1      17.241   8.621   6.003  0.00  0.00    +0.044 C 
ENDBRANCH  24  25
ENDBRANCH  14  23
ENDBRANCH   9  14
TORSDOF 7
ENDMDL
