MODEL 1
REMARK VINA RESULT:      -5.2      0.000      0.000
REMARK  Name = 56775539
REMARK  8 active torsions:
REMARK  status: ('A' for Active; 'I' for Inactive)
REMARK    1  A    between atoms: O_3  and  C_20
REMARK    2  A    between atoms: O_3  and  C_21
REMARK    3  A    between atoms: N_4  and  C_6
REMARK    4  A    between atoms: N_4  and  C_8
REMARK    5  A    between atoms: C_6  and  C_13
REMARK    6  A    between atoms: C_7  and  C_8
REMARK    7  A    between atoms: C_13  and  C_17
REMARK    8  A    between atoms: C_19  and  C_20
REMARK                            x       y       z     vdW  Elec       q    Type
REMARK                         _______ _______ _______ _____ _____    ______ ____
ROOT
ATOM      1  O   UNL     1      -0.844 -11.320  15.490  0.00  0.00    -0.376 OA
ATOM      6  C   UNL     1      -2.924 -11.343  15.013  0.00  0.00    +0.072 C 
ATOM     11  C   UNL     1      -2.006 -10.627  15.998  0.00  0.00    +0.184 C 
ATOM     12  C   UNL     1      -1.642 -11.962  14.469  0.00  0.00    +0.184 C 
ENDROOT
BRANCH   6   4
ATOM      4  N   UNL     1      -3.427 -10.365  14.040  0.00  0.00    -0.306 NA
ATOM     22  H   UNL     1      -3.916  -9.567  14.443  0.00  0.00    +0.123 HD
BRANCH   4   8
ATOM      8  C   UNL     1      -4.286 -11.038  13.077  0.00  0.00    +0.085 C 
BRANCH   8   7
ATOM      7  C   UNL     1      -4.500 -10.169  11.839  0.00  0.00    +0.003 C 
ATOM      9  C   UNL     1      -3.181  -9.972  11.081  0.00  0.00    +0.005 C 
ATOM     10  C   UNL     1      -5.570 -10.782  10.926  0.00  0.00    +0.005 C 
ATOM     14  C   UNL     1      -3.379  -9.151   9.809  0.00  0.00    +0.000 C 
ATOM     15  C   UNL     1      -5.764  -9.960   9.654  0.00  0.00    +0.000 C 
ATOM     16  C   UNL     1      -4.449  -9.759   8.907  0.00  0.00    +0.000 C 
ENDBRANCH   8   7
ENDBRANCH   4   8
ENDBRANCH   6   4
BRANCH   6  13
ATOM     13  C   UNL     1      -3.997 -12.244  15.543  0.00  0.00    +0.085 C 
BRANCH  13  17
ATOM      2  O   UNL     1      -6.287 -10.101  17.336  0.00  0.00    -0.357 OA
ATOM      5  N   UNL     1      -5.661 -10.533  16.173  0.00  0.00    -0.083 NA
ATOM     17  C   UNL     1      -4.852 -11.522  16.563  0.00  0.00    +0.086 A 
ATOM     18  C   UNL     1      -4.923 -11.756  17.947  0.00  0.00    +0.073 A 
ATOM     19  C   UNL     1      -5.839 -10.836  18.386  0.00  0.00    +0.163 A 
BRANCH  19  20
ATOM     20  C   UNL     1      -6.401 -10.510  19.702  0.00  0.00    +0.236 C 
BRANCH  20   3
ATOM      3  O   UNL     1      -6.911 -11.689  20.329  0.00  0.00    -0.375 OA
ATOM     21  C   UNL     1      -8.133 -12.099  19.735  0.00  0.00    +0.194 C 
ENDBRANCH  20   3
ENDBRANCH  19  20
ENDBRANCH  13  17
ENDBRANCH   6  13
TORSDOF 7
ENDMDL
MODEL 2
REMARK VINA RESULT:      -5.0      2.992      6.938
REMARK  Name = 56775539
REMARK  8 active torsions:
REMARK  status: ('A' for Active; 'I' for Inactive)
REMARK    1  A    between atoms: O_3  and  C_20
REMARK    2  A    between atoms: O_3  and  C_21
REMARK    3  A    between atoms: N_4  and  C_6
REMARK    4  A    between atoms: N_4  and  C_8
REMARK    5  A    between atoms: C_6  and  C_13
REMARK    6  A    between atoms: C_7  and  C_8
REMARK    7  A    between atoms: C_13  and  C_17
REMARK    8  A    between atoms: C_19  and  C_20
REMARK                            x       y       z     vdW  Elec       q    Type
REMARK                         _______ _______ _______ _____ _____    ______ ____
ROOT
ATOM      1  O   UNL     1      -2.102 -14.056  12.868  0.00  0.00    -0.376 OA
ATOM      6  C   UNL     1      -2.387 -12.165  13.817  0.00  0.00    +0.072 C 
ATOM     11  C   UNL     1      -3.158 -13.068  12.860  0.00  0.00    +0.184 C 
ATOM     12  C   UNL     1      -1.362 -13.293  13.848  0.00  0.00    +0.184 C 
ENDROOT
BRANCH   6   4
ATOM      4  N   UNL     1      -3.090 -12.130  15.104  0.00  0.00    -0.306 NA
ATOM     22  H   UNL     1      -4.105 -12.202  15.044  0.00  0.00    +0.123 HD
BRANCH   4   8
ATOM      8  C   UNL     1      -2.721 -10.921  15.825  0.00  0.00    +0.085 C 
BRANCH   8   7
ATOM      7  C   UNL     1      -3.861 -10.459  16.732  0.00  0.00    +0.003 C 
ATOM      9  C   UNL     1      -5.127 -10.180  15.911  0.00  0.00    +0.005 C 
ATOM     10  C   UNL     1      -4.137 -11.498  17.826  0.00  0.00    +0.005 C 
ATOM     14  C   UNL     1      -6.297  -9.768  16.801  0.00  0.00    +0.000 C 
ATOM     15  C   UNL     1      -5.309 -11.085  18.714  0.00  0.00    +0.000 C 
ATOM     16  C   UNL     1      -6.563 -10.800  17.893  0.00  0.00    +0.000 C 
ENDBRANCH   8   7
ENDBRANCH   4   8
ENDBRANCH   6   4
BRANCH   6  13
ATOM     13  C   UNL     1      -1.958 -10.808  13.349  0.00  0.00    +0.085 C 
BRANCH  13  17
ATOM      2  O   UNL     1      -4.752  -9.690  11.348  0.00  0.00    -0.357 OA
ATOM      5  N   UNL     1      -4.201 -10.193  12.522  0.00  0.00    -0.083 NA
ATOM     17  C   UNL     1      -2.891 -10.290  12.275  0.00  0.00    +0.086 A 
ATOM     18  C   UNL     1      -2.560  -9.868  10.976  0.00  0.00    +0.073 A 
ATOM     19  C   UNL     1      -3.764  -9.502  10.435  0.00  0.00    +0.163 A 
BRANCH  19  20
ATOM     20  C   UNL     1      -4.174  -8.971   9.129  0.00  0.00    +0.236 C 
BRANCH  20   3
ATOM      3  O   UNL     1      -5.557  -9.248   8.893  0.00  0.00    -0.375 OA
ATOM     21  C   UNL     1      -5.738  -9.944   7.670  0.00  0.00    +0.194 C 
ENDBRANCH  20   3
ENDBRANCH  19  20
ENDBRANCH  13  17
ENDBRANCH   6  13
TORSDOF 7
ENDMDL
MODEL 3
REMARK VINA RESULT:      -4.9     20.566     23.686
REMARK  Name = 56775539
REMARK  8 active torsions:
REMARK  status: ('A' for Active; 'I' for Inactive)
REMARK    1  A    between atoms: O_3  and  C_20
REMARK    2  A    between atoms: O_3  and  C_21
REMARK    3  A    between atoms: N_4  and  C_6
REMARK    4  A    between atoms: N_4  and  C_8
REMARK    5  A    between atoms: C_6  and  C_13
REMARK    6  A    between atoms: C_7  and  C_8
REMARK    7  A    between atoms: C_13  and  C_17
REMARK    8  A    between atoms: C_19  and  C_20
REMARK                            x       y       z     vdW  Elec       q    Type
REMARK                         _______ _______ _______ _____ _____    ______ ____
ROOT
ATOM      1  O   UNL     1     -14.423  -1.007  30.123  0.00  0.00    -0.376 OA
ATOM      6  C   UNL     1     -14.739   1.059  30.557  0.00  0.00    +0.072 C 
ATOM     11  C   UNL     1     -14.989  -0.283  31.238  0.00  0.00    +0.184 C 
ATOM     12  C   UNL     1     -14.073   0.231  29.464  0.00  0.00    +0.184 C 
ENDROOT
BRANCH   6   4
ATOM      4  N   UNL     1     -13.701   1.781  31.302  0.00  0.00    -0.306 NA
ATOM     22  H   UNL     1     -13.716   1.640  32.311  0.00  0.00    +0.123 HD
BRANCH   4   8
ATOM      8  C   UNL     1     -13.788   3.202  31.000  0.00  0.00    +0.085 C 
BRANCH   8   7
ATOM      7  C   UNL     1     -13.751   4.034  32.281  0.00  0.00    +0.003 C 
ATOM      9  C   UNL     1     -14.439   5.388  32.068  0.00  0.00    +0.005 C 
ATOM     10  C   UNL     1     -14.399   3.268  33.442  0.00  0.00    +0.005 C 
ATOM     14  C   UNL     1     -14.463   6.217  33.350  0.00  0.00    +0.000 C 
ATOM     15  C   UNL     1     -14.422   4.100  34.722  0.00  0.00    +0.000 C 
ATOM     16  C   UNL     1     -15.100   5.450  34.504  0.00  0.00    +0.000 C 
ENDBRANCH   8   7
ENDBRANCH   4   8
ENDBRANCH   6   4
BRANCH   6  13
ATOM     13  C   UNL     1     -15.910   1.922  30.201  0.00  0.00    +0.085 C 
BRANCH  13  17
ATOM      2  O   UNL     1     -16.694   1.270  26.734  0.00  0.00    -0.357 OA
ATOM      5  N   UNL     1     -16.646   0.906  28.075  0.00  0.00    -0.083 NA
ATOM     17  C   UNL     1     -16.114   1.960  28.701  0.00  0.00    +0.086 A 
ATOM     18  C   UNL     1     -15.809   3.007  27.815  0.00  0.00    +0.073 A 
ATOM     19  C   UNL     1     -16.191   2.523  26.593  0.00  0.00    +0.163 A 
BRANCH  19  20
ATOM     20  C   UNL     1     -16.166   3.069  25.230  0.00  0.00    +0.236 C 
BRANCH  20   3
ATOM      3  O   UNL     1     -16.435   2.036  24.278  0.00  0.00    -0.375 OA
ATOM     21  C   UNL     1     -17.459   2.424  23.376  0.00  0.00    +0.194 C 
ENDBRANCH  20   3
ENDBRANCH  19  20
ENDBRANCH  13  17
ENDBRANCH   6  13
TORSDOF 7
ENDMDL
MODEL 4
REMARK VINA RESULT:      -4.9     20.100     22.264
REMARK  Name = 56775539
REMARK  8 active torsions:
REMARK  status: ('A' for Active; 'I' for Inactive)
REMARK    1  A    between atoms: O_3  and  C_20
REMARK    2  A    between atoms: O_3  and  C_21
REMARK    3  A    between atoms: N_4  and  C_6
REMARK    4  A    between atoms: N_4  and  C_8
REMARK    5  A    between atoms: C_6  and  C_13
REMARK    6  A    between atoms: C_7  and  C_8
REMARK    7  A    between atoms: C_13  and  C_17
REMARK    8  A    between atoms: C_19  and  C_20
REMARK                            x       y       z     vdW  Elec       q    Type
REMARK                         _______ _______ _______ _____ _____    ______ ____
ROOT
ATOM      1  O   UNL     1     -18.923  -0.527  25.149  0.00  0.00    -0.376 OA
ATOM      6  C   UNL     1     -17.872   1.027  26.168  0.00  0.00    +0.072 C 
ATOM     11  C   UNL     1     -19.052   0.101  26.445  0.00  0.00    +0.184 C 
ATOM     12  C   UNL     1     -17.741   0.254  24.861  0.00  0.00    +0.184 C 
ENDROOT
BRANCH   6   4
ATOM      4  N   UNL     1     -16.761   0.654  27.051  0.00  0.00    -0.306 NA
ATOM     22  H   UNL     1     -16.652  -0.346  27.209  0.00  0.00    +0.123 HD
BRANCH   4   8
ATOM      8  C   UNL     1     -16.903   1.343  28.325  0.00  0.00    +0.085 C 
BRANCH   8   7
ATOM      7  C   UNL     1     -15.583   1.342  29.094  0.00  0.00    +0.003 C 
ATOM      9  C   UNL     1     -15.211   2.764  29.534  0.00  0.00    +0.005 C 
ATOM     10  C   UNL     1     -15.661   0.399  30.302  0.00  0.00    +0.005 C 
ATOM     14  C   UNL     1     -13.922   2.782  30.352  0.00  0.00    +0.000 C 
ATOM     15  C   UNL     1     -14.371   0.420  31.119  0.00  0.00    +0.000 C 
ATOM     16  C   UNL     1     -14.000   1.837  31.547  0.00  0.00    +0.000 C 
ENDBRANCH   8   7
ENDBRANCH   4   8
ENDBRANCH   6   4
BRANCH   6  13
ATOM     13  C   UNL     1     -18.106   2.505  26.116  0.00  0.00    +0.085 C 
BRANCH  13  17
ATOM      2  O   UNL     1     -15.210   3.871  24.442  0.00  0.00    -0.357 OA
ATOM      5  N   UNL     1     -15.819   3.196  25.493  0.00  0.00    -0.083 NA
ATOM     17  C   UNL     1     -17.119   3.174  25.183  0.00  0.00    +0.086 A 
ATOM     18  C   UNL     1     -17.386   3.815  23.961  0.00  0.00    +0.073 A 
ATOM     19  C   UNL     1     -16.154   4.236  23.537  0.00  0.00    +0.163 A 
BRANCH  19  20
ATOM     20  C   UNL     1     -15.679   4.965  22.355  0.00  0.00    +0.236 C 
BRANCH  20   3
ATOM      3  O   UNL     1     -14.366   4.527  21.996  0.00  0.00    -0.375 OA
ATOM     21  C   UNL     1     -13.479   5.626  21.856  0.00  0.00    +0.194 C 
ENDBRANCH  20   3
ENDBRANCH  19  20
ENDBRANCH  13  17
ENDBRANCH   6  13
TORSDOF 7
ENDMDL
MODEL 5
REMARK VINA RESULT:      -4.9      1.420      1.842
REMARK  Name = 56775539
REMARK  8 active torsions:
REMARK  status: ('A' for Active; 'I' for Inactive)
REMARK    1  A    between atoms: O_3  and  C_20
REMARK    2  A    between atoms: O_3  and  C_21
REMARK    3  A    between atoms: N_4  and  C_6
REMARK    4  A    between atoms: N_4  and  C_8
REMARK    5  A    between atoms: C_6  and  C_13
REMARK    6  A    between atoms: C_7  and  C_8
REMARK    7  A    between atoms: C_13  and  C_17
REMARK    8  A    between atoms: C_19  and  C_20
REMARK                            x       y       z     vdW  Elec       q    Type
REMARK                         _______ _______ _______ _____ _____    ______ ____
ROOT
ATOM      1  O   UNL     1      -1.932 -14.003  14.090  0.00  0.00    -0.376 OA
ATOM      6  C   UNL     1      -2.634 -12.001  14.328  0.00  0.00    +0.072 C 
ATOM     11  C   UNL     1      -1.449 -12.705  13.675  0.00  0.00    +0.184 C 
ATOM     12  C   UNL     1      -3.126 -13.408  14.648  0.00  0.00    +0.184 C 
ENDROOT
BRANCH   6   4
ATOM      4  N   UNL     1      -3.483 -11.431  13.277  0.00  0.00    -0.306 NA
ATOM     22  H   UNL     1      -3.826 -12.099  12.588  0.00  0.00    +0.123 HD
BRANCH   4   8
ATOM      8  C   UNL     1      -2.769 -10.354  12.608  0.00  0.00    +0.085 C 
BRANCH   8   7
ATOM      7  C   UNL     1      -3.016 -10.390  11.101  0.00  0.00    +0.003 C 
ATOM      9  C   UNL     1      -3.778 -11.662  10.708  0.00  0.00    +0.005 C 
ATOM     10  C   UNL     1      -3.776  -9.136  10.647  0.00  0.00    +0.005 C 
ATOM     14  C   UNL     1      -4.085 -11.696   9.212  0.00  0.00    +0.000 C 
ATOM     15  C   UNL     1      -4.083  -9.173   9.152  0.00  0.00    +0.000 C 
ATOM     16  C   UNL     1      -4.833 -10.444   8.763  0.00  0.00    +0.000 C 
ENDBRANCH   8   7
ENDBRANCH   4   8
ENDBRANCH   6   4
BRANCH   6  13
ATOM     13  C   UNL     1      -2.381 -11.049  15.456  0.00  0.00    +0.085 C 
BRANCH  13  17
ATOM      2  O   UNL     1      -5.669 -10.255  16.728  0.00  0.00    -0.357 OA
ATOM      5  N   UNL     1      -4.718 -10.296  15.715  0.00  0.00    -0.083 NA
ATOM     17  C   UNL     1      -3.636 -10.842  16.278  0.00  0.00    +0.086 A 
ATOM     18  C   UNL     1      -3.842 -11.161  17.631  0.00  0.00    +0.073 A 
ATOM     19  C   UNL     1      -5.134 -10.771  17.865  0.00  0.00    +0.163 A 
BRANCH  19  20
ATOM     20  C   UNL     1      -6.009 -10.804  19.043  0.00  0.00    +0.236 C 
BRANCH  20   3
ATOM      3  O   UNL     1      -7.304 -10.293  18.714  0.00  0.00    -0.375 OA
ATOM     21  C   UNL     1      -8.328 -11.057  19.331  0.00  0.00    +0.194 C 
ENDBRANCH  20   3
ENDBRANCH  19  20
ENDBRANCH  13  17
ENDBRANCH   6  13
TORSDOF 7
ENDMDL
MODEL 6
REMARK VINA RESULT:      -4.8     19.819     21.351
REMARK  Name = 56775539
REMARK  8 active torsions:
REMARK  status: ('A' for Active; 'I' for Inactive)
REMARK    1  A    between atoms: O_3  and  C_20
REMARK    2  A    between atoms: O_3  and  C_21
REMARK    3  A    between atoms: N_4  and  C_6
REMARK    4  A    between atoms: N_4  and  C_8
REMARK    5  A    between atoms: C_6  and  C_13
REMARK    6  A    between atoms: C_7  and  C_8
REMARK    7  A    between atoms: C_13  and  C_17
REMARK    8  A    between atoms: C_19  and  C_20
REMARK                            x       y       z     vdW  Elec       q    Type
REMARK                         _______ _______ _______ _____ _____    ______ ____
ROOT
ATOM      1  O   UNL     1     -16.294   9.243  20.888  0.00  0.00    -0.376 OA
ATOM      6  C   UNL     1     -14.685   7.934  21.394  0.00  0.00    +0.072 C 
ATOM     11  C   UNL     1     -16.107   7.810  20.855  0.00  0.00    +0.184 C 
ATOM     12  C   UNL     1     -14.924   9.437  21.310  0.00  0.00    +0.184 C 
ENDROOT
BRANCH   6   4
ATOM      4  N   UNL     1     -13.744   7.544  20.338  0.00  0.00    -0.306 NA
ATOM     22  H   UNL     1     -13.992   6.698  19.829  0.00  0.00    +0.123 HD
BRANCH   4   8
ATOM      8  C   UNL     1     -12.410   7.410  20.903  0.00  0.00    +0.085 C 
BRANCH   8   7
ATOM      7  C   UNL     1     -11.353   7.941  19.936  0.00  0.00    +0.003 C 
ATOM      9  C   UNL     1     -11.640   7.467  18.506  0.00  0.00    +0.005 C 
ATOM     10  C   UNL     1     -11.283   9.473  20.000  0.00  0.00    +0.005 C 
ATOM     14  C   UNL     1     -10.627   8.030  17.512  0.00  0.00    +0.000 C 
ATOM     15  C   UNL     1     -10.272  10.033  19.003  0.00  0.00    +0.000 C 
ATOM     16  C   UNL     1     -10.555   9.552  17.583  0.00  0.00    +0.000 C 
ENDBRANCH   8   7
ENDBRANCH   4   8
ENDBRANCH   6   4
BRANCH   6  13
ATOM     13  C   UNL     1     -14.357   7.325  22.722  0.00  0.00    +0.085 C 
BRANCH  13  17
ATOM      2  O   UNL     1     -15.366   3.874  22.371  0.00  0.00    -0.357 OA
ATOM      5  N   UNL     1     -14.644   4.992  21.970  0.00  0.00    -0.083 NA
ATOM     17  C   UNL     1     -14.967   5.945  22.849  0.00  0.00    +0.086 A 
ATOM     18  C   UNL     1     -15.879   5.492  23.817  0.00  0.00    +0.073 A 
ATOM     19  C   UNL     1     -16.098   4.184  23.471  0.00  0.00    +0.163 A 
BRANCH  19  20
ATOM     20  C   UNL     1     -16.926   3.109  24.031  0.00  0.00    +0.236 C 
BRANCH  20   3
ATOM      3  O   UNL     1     -16.104   2.141  24.687  0.00  0.00    -0.375 OA
ATOM     21  C   UNL     1     -16.857   1.367  25.607  0.00  0.00    +0.194 C 
ENDBRANCH  20   3
ENDBRANCH  19  20
ENDBRANCH  13  17
ENDBRANCH   6  13
TORSDOF 7
ENDMDL
MODEL 7
REMARK VINA RESULT:      -4.7      3.267      5.603
REMARK  Name = 56775539
REMARK  8 active torsions:
REMARK  status: ('A' for Active; 'I' for Inactive)
REMARK    1  A    between atoms: O_3  and  C_20
REMARK    2  A    between atoms: O_3  and  C_21
REMARK    3  A    between atoms: N_4  and  C_6
REMARK    4  A    between atoms: N_4  and  C_8
REMARK    5  A    between atoms: C_6  and  C_13
REMARK    6  A    between atoms: C_7  and  C_8
REMARK    7  A    between atoms: C_13  and  C_17
REMARK    8  A    between atoms: C_19  and  C_20
REMARK                            x       y       z     vdW  Elec       q    Type
REMARK                         _______ _______ _______ _____ _____    ______ ____
ROOT
ATOM      1  O   UNL     1      -7.770 -12.628  19.589  0.00  0.00    -0.376 OA
ATOM      6  C   UNL     1      -6.749 -11.277  18.289  0.00  0.00    +0.072 C 
ATOM     11  C   UNL     1      -6.536 -11.880  19.674  0.00  0.00    +0.184 C 
ATOM     12  C   UNL     1      -7.985 -12.168  18.235  0.00  0.00    +0.184 C 
ENDROOT
BRANCH   6   4
ATOM      4  N   UNL     1      -5.735 -11.820  17.377  0.00  0.00    -0.306 NA
ATOM     22  H   UNL     1      -5.422 -12.765  17.593  0.00  0.00    +0.123 HD
BRANCH   4   8
ATOM      8  C   UNL     1      -4.594 -10.918  17.330  0.00  0.00    +0.085 C 
BRANCH   8   7
ATOM      7  C   UNL     1      -3.714 -11.219  16.118  0.00  0.00    +0.003 C 
ATOM      9  C   UNL     1      -4.318 -10.612  14.846  0.00  0.00    +0.005 C 
ATOM     10  C   UNL     1      -2.286 -10.703  16.345  0.00  0.00    +0.005 C 
ATOM     14  C   UNL     1      -3.428 -10.852  13.629  0.00  0.00    +0.000 C 
ATOM     15  C   UNL     1      -1.399 -10.944  15.126  0.00  0.00    +0.000 C 
ATOM     16  C   UNL     1      -2.008 -10.346  13.861  0.00  0.00    +0.000 C 
ENDBRANCH   8   7
ENDBRANCH   4   8
ENDBRANCH   6   4
BRANCH   6  13
ATOM     13  C   UNL     1      -6.917  -9.795  18.160  0.00  0.00    +0.085 C 
BRANCH  13  17
ATOM      2  O   UNL     1      -8.740  -9.319  15.077  0.00  0.00    -0.357 OA
ATOM      5  N   UNL     1      -7.633  -9.751  15.798  0.00  0.00    -0.083 NA
ATOM     17  C   UNL     1      -7.914  -9.459  17.071  0.00  0.00    +0.086 A 
ATOM     18  C   UNL     1      -9.172  -8.848  17.213  0.00  0.00    +0.073 A 
ATOM     19  C   UNL     1      -9.649  -8.782  15.931  0.00  0.00    +0.163 A 
BRANCH  19  20
ATOM     20  C   UNL     1     -10.889  -8.273  15.332  0.00  0.00    +0.236 C 
BRANCH  20   3
ATOM      3  O   UNL     1     -11.504  -7.319  16.201  0.00  0.00    -0.375 OA
ATOM     21  C   UNL     1     -11.131  -5.994  15.855  0.00  0.00    +0.194 C 
ENDBRANCH  20   3
ENDBRANCH  19  20
ENDBRANCH  13  17
ENDBRANCH   6  13
TORSDOF 7
ENDMDL
MODEL 8
REMARK VINA RESULT:      -4.7      3.354      7.104
REMARK  Name = 56775539
REMARK  8 active torsions:
REMARK  status: ('A' for Active; 'I' for Inactive)
REMARK    1  A    between atoms: O_3  and  C_20
REMARK    2  A    between atoms: O_3  and  C_21
REMARK    3  A    between atoms: N_4  and  C_6
REMARK    4  A    between atoms: N_4  and  C_8
REMARK    5  A    between atoms: C_6  and  C_13
REMARK    6  A    between atoms: C_7  and  C_8
REMARK    7  A    between atoms: C_13  and  C_17
REMARK    8  A    between atoms: C_19  and  C_20
REMARK                            x       y       z     vdW  Elec       q    Type
REMARK                         _______ _______ _______ _____ _____    ______ ____
ROOT
ATOM      1  O   UNL     1      -7.301 -12.563  19.263  0.00  0.00    -0.376 OA
ATOM      6  C   UNL     1      -7.000 -10.814  18.078  0.00  0.00    +0.072 C 
ATOM     11  C   UNL     1      -6.838 -12.322  17.915  0.00  0.00    +0.184 C 
ATOM     12  C   UNL     1      -7.566 -11.154  19.451  0.00  0.00    +0.184 C 
ENDROOT
BRANCH   6   4
ATOM      4  N   UNL     1      -8.095 -10.360  17.213  0.00  0.00    -0.306 NA
ATOM     22  H   UNL     1      -8.049 -10.688  16.250  0.00  0.00    +0.123 HD
BRANCH   4   8
ATOM      8  C   UNL     1      -8.163  -8.907  17.240  0.00  0.00    +0.085 C 
BRANCH   8   7
ATOM      7  C   UNL     1      -9.602  -8.433  17.437  0.00  0.00    +0.003 C 
ATOM      9  C   UNL     1     -10.081  -7.634  16.219  0.00  0.00    +0.005 C 
ATOM     10  C   UNL     1     -10.531  -9.624  17.710  0.00  0.00    +0.005 C 
ATOM     14  C   UNL     1     -11.536  -7.195  16.370  0.00  0.00    +0.000 C 
ATOM     15  C   UNL     1     -11.985  -9.182  17.858  0.00  0.00    +0.000 C 
ATOM     16  C   UNL     1     -12.455  -8.379  16.648  0.00  0.00    +0.000 C 
ENDBRANCH   8   7
ENDBRANCH   4   8
ENDBRANCH   6   4
BRANCH   6  13
ATOM     13  C   UNL     1      -5.787  -9.940  17.990  0.00  0.00    +0.085 C 
BRANCH  13  17
ATOM      2  O   UNL     1      -4.515 -10.426  14.643  0.00  0.00    -0.357 OA
ATOM      5  N   UNL     1      -5.500 -10.030  15.540  0.00  0.00    -0.083 NA
ATOM     17  C   UNL     1      -4.980 -10.260  16.749  0.00  0.00    +0.086 A 
ATOM     18  C   UNL     1      -3.683 -10.797  16.679  0.00  0.00    +0.073 A 
ATOM     19  C   UNL     1      -3.438 -10.882  15.334  0.00  0.00    +0.163 A 
BRANCH  19  20
ATOM     20  C   UNL     1      -2.296 -11.345  14.536  0.00  0.00    +0.236 C 
BRANCH  20   3
ATOM      3  O   UNL     1      -1.832 -10.296  13.681  0.00  0.00    -0.375 OA
ATOM     21  C   UNL     1      -1.849 -10.699  12.320  0.00  0.00    +0.194 C 
ENDBRANCH  20   3
ENDBRANCH  19  20
ENDBRANCH  13  17
ENDBRANCH   6  13
TORSDOF 7
ENDMDL
MODEL 9
REMARK VINA RESULT:      -4.7      5.035      8.002
REMARK  Name = 56775539
REMARK  8 active torsions:
REMARK  status: ('A' for Active; 'I' for Inactive)
REMARK    1  A    between atoms: O_3  and  C_20
REMARK    2  A    between atoms: O_3  and  C_21
REMARK    3  A    between atoms: N_4  and  C_6
REMARK    4  A    between atoms: N_4  and  C_8
REMARK    5  A    between atoms: C_6  and  C_13
REMARK    6  A    between atoms: C_7  and  C_8
REMARK    7  A    between atoms: C_13  and  C_17
REMARK    8  A    between atoms: C_19  and  C_20
REMARK                            x       y       z     vdW  Elec       q    Type
REMARK                         _______ _______ _______ _____ _____    ______ ____
ROOT
ATOM      1  O   UNL     1     -11.363 -12.731  17.489  0.00  0.00    -0.376 OA
ATOM      6  C   UNL     1     -10.136 -11.068  18.025  0.00  0.00    +0.072 C 
ATOM     11  C   UNL     1     -10.629 -12.356  18.677  0.00  0.00    +0.184 C 
ATOM     12  C   UNL     1     -10.855 -11.577  16.781  0.00  0.00    +0.184 C 
ENDROOT
BRANCH   6   4
ATOM      4  N   UNL     1      -8.689 -11.171  17.811  0.00  0.00    -0.306 NA
ATOM     22  H   UNL     1      -8.367 -12.073  17.461  0.00  0.00    +0.123 HD
BRANCH   4   8
ATOM      8  C   UNL     1      -7.991 -10.840  19.044  0.00  0.00    +0.085 C 
BRANCH   8   7
ATOM      7  C   UNL     1      -6.497 -10.651  18.790  0.00  0.00    +0.003 C 
ATOM      9  C   UNL     1      -5.711 -11.894  19.226  0.00  0.00    +0.005 C 
ATOM     10  C   UNL     1      -6.236 -10.329  17.312  0.00  0.00    +0.005 C 
ATOM     14  C   UNL     1      -4.220 -11.750  18.933  0.00  0.00    +0.000 C 
ATOM     15  C   UNL     1      -4.743 -10.188  17.022  0.00  0.00    +0.000 C 
ATOM     16  C   UNL     1      -3.964 -11.423  17.465  0.00  0.00    +0.000 C 
ENDBRANCH   8   7
ENDBRANCH   4   8
ENDBRANCH   6   4
BRANCH   6  13
ATOM     13  C   UNL     1     -10.548  -9.753  18.613  0.00  0.00    +0.085 C 
BRANCH  13  17
ATOM      2  O   UNL     1      -9.599  -7.289  16.146  0.00  0.00    -0.357 OA
ATOM      5  N   UNL     1      -9.304  -8.303  17.050  0.00  0.00    -0.083 NA
ATOM     17  C   UNL     1     -10.482  -8.654  17.573  0.00  0.00    +0.086 A 
ATOM     18  C   UNL     1     -11.545  -7.904  17.044  0.00  0.00    +0.073 A 
ATOM     19  C   UNL     1     -10.938  -7.060  16.153  0.00  0.00    +0.163 A 
BRANCH  19  20
ATOM     20  C   UNL     1     -11.427  -6.011  15.249  0.00  0.00    +0.236 C 
BRANCH  20   3
ATOM      3  O   UNL     1     -12.855  -6.038  15.186  0.00  0.00    -0.375 OA
ATOM     21  C   UNL     1     -13.329  -5.373  14.026  0.00  0.00    +0.194 C 
ENDBRANCH  20   3
ENDBRANCH  19  20
ENDBRANCH  13  17
ENDBRANCH   6  13
TORSDOF 7
ENDMDL
MODEL 10
REMARK VINA RESULT:      -4.7     20.176     22.915
REMARK  Name = 56775539
REMARK  8 active torsions:
REMARK  status: ('A' for Active; 'I' for Inactive)
REMARK    1  A    between atoms: O_3  and  C_20
REMARK    2  A    between atoms: O_3  and  C_21
REMARK    3  A    between atoms: N_4  and  C_6
REMARK    4  A    between atoms: N_4  and  C_8
REMARK    5  A    between atoms: C_6  and  C_13
REMARK    6  A    between atoms: C_7  and  C_8
REMARK    7  A    between atoms: C_13  and  C_17
REMARK    8  A    between atoms: C_19  and  C_20
REMARK                            x       y       z     vdW  Elec       q    Type
REMARK                         _______ _______ _______ _____ _____    ______ ____
ROOT
ATOM      1  O   UNL     1     -19.457   1.775  27.427  0.00  0.00    -0.376 OA
ATOM      6  C   UNL     1     -17.415   2.388  27.318  0.00  0.00    +0.072 C 
ATOM     11  C   UNL     1     -18.732   2.744  26.636  0.00  0.00    +0.184 C 
ATOM     12  C   UNL     1     -18.262   1.457  28.178  0.00  0.00    +0.184 C 
ENDROOT
BRANCH   6   4
ATOM      4  N   UNL     1     -16.984   3.527  28.136  0.00  0.00    -0.306 NA
ATOM     22  H   UNL     1     -17.076   4.439  27.691  0.00  0.00    +0.123 HD
BRANCH   4   8
ATOM      8  C   UNL     1     -15.609   3.322  28.565  0.00  0.00    +0.085 C 
BRANCH   8   7
ATOM      7  C   UNL     1     -15.558   2.817  30.006  0.00  0.00    +0.003 C 
ATOM      9  C   UNL     1     -14.890   1.437  30.073  0.00  0.00    +0.005 C 
ATOM     10  C   UNL     1     -14.827   3.822  30.907  0.00  0.00    +0.005 C 
ATOM     14  C   UNL     1     -14.778   0.934  31.510  0.00  0.00    +0.000 C 
ATOM     15  C   UNL     1     -14.716   3.315  32.343  0.00  0.00    +0.000 C 
ATOM     16  C   UNL     1     -14.059   1.939  32.404  0.00  0.00    +0.000 C 
ENDBRANCH   8   7
ENDBRANCH   4   8
ENDBRANCH   6   4
BRANCH   6  13
ATOM     13  C   UNL     1     -16.306   1.806  26.496  0.00  0.00    +0.085 C 
BRANCH  13  17
ATOM      2  O   UNL     1     -16.487   2.708  23.002  0.00  0.00    -0.357 OA
ATOM      5  N   UNL     1     -16.697   1.830  24.059  0.00  0.00    -0.083 NA
ATOM     17  C   UNL     1     -16.237   2.471  25.137  0.00  0.00    +0.086 A 
ATOM     18  C   UNL     1     -15.728   3.743  24.825  0.00  0.00    +0.073 A 
ATOM     19  C   UNL     1     -15.908   3.843  23.471  0.00  0.00    +0.163 A 
BRANCH  19  20
ATOM     20  C   UNL     1     -15.614   4.885  22.479  0.00  0.00    +0.236 C 
BRANCH  20   3
ATOM      3  O   UNL     1     -14.427   4.557  21.753  0.00  0.00    -0.375 OA
ATOM     21  C   UNL     1     -13.435   5.560  21.911  0.00  0.00    +0.194 C 
ENDBRANCH  20   3
ENDBRANCH  19  20
ENDBRANCH  13  17
ENDBRANCH   6  13
TORSDOF 7
ENDMDL
