MODEL 1
REMARK VINA RESULT:      -6.7      0.000      0.000
REMARK  Name = 11883045
REMARK  11 active torsions:
REMARK  status: ('A' for Active; 'I' for Inactive)
REMARK    1  A    between atoms: O_4  and  C_18
REMARK    2  A    between atoms: O_5  and  C_23
REMARK    3  A    between atoms: N_10  and  C_29
REMARK    4  A    between atoms: N_12  and  C_31
REMARK    5  A    between atoms: C_13  and  C_21
REMARK    6  A    between atoms: C_15  and  C_23
REMARK    7  A    between atoms: C_15  and  C_24
REMARK    8  A    between atoms: C_16  and  C_26
REMARK    9  A    between atoms: C_26  and  C_27
REMARK   10  A    between atoms: C_29  and  C_31
REMARK   11  A    between atoms: C_30  and  C_32
REMARK                            x       y       z     vdW  Elec       q    Type
REMARK                         _______ _______ _______ _____ _____    ______ ____
ROOT
ATOM      1  S   UNL     1      15.076   8.420   6.256  0.00  0.00    -0.057 S 
ATOM      7  O   UNL     1      12.186   6.924   2.927  0.00  0.00    -0.270 OA
ATOM      9  N   UNL     1      14.913   7.689   3.779  0.00  0.00    -0.229 NA
ATOM     11  N   UNL     1      12.870   7.660   5.060  0.00  0.00    -0.261 N 
ATOM     13  C   UNL     1      18.610   8.707   3.371  0.00  0.00    -0.019 C 
ATOM     14  C   UNL     1      18.957   8.348   4.882  0.00  0.00    +0.011 C 
ATOM     15  C   UNL     1      20.415   8.687   5.381  0.00  0.00    +0.021 C 
ATOM     16  C   UNL     1      17.290   7.903   2.963  0.00  0.00    +0.054 C 
ATOM     17  C   UNL     1      19.768   8.244   2.449  0.00  0.00    +0.010 C 
ATOM     18  C   UNL     1      21.445   8.197   4.324  0.00  0.00    +0.123 C 
ATOM     19  C   UNL     1      17.836   8.821   5.852  0.00  0.00    +0.049 C 
ATOM     20  C   UNL     1      21.144   8.696   2.915  0.00  0.00    +0.032 C 
ATOM     21  C   UNL     1      18.377  10.222   3.151  0.00  0.00    +0.012 C 
ATOM     22  C   UNL     1      16.231   8.023   4.029  0.00  0.00    +0.058 A 
ATOM     24  C   UNL     1      20.695   7.906   6.697  0.00  0.00    +0.016 C 
ATOM     25  C   UNL     1      16.501   8.420   5.323  0.00  0.00    +0.015 A 
ATOM     28  C   UNL     1      14.213   7.866   4.879  0.00  0.00    +0.165 A 
ATOM     30  C   UNL     1      11.952   7.210   4.097  0.00  0.00    +0.255 C 
ATOM     45  H   UNL     1      12.546   7.842   6.005  0.00  0.00    +0.157 HD
ENDROOT
BRANCH  30  32
ATOM      2  F   UNL     1      10.910   4.711   4.829  0.00  0.00    -0.205 F 
ATOM      3  F   UNL     1      10.191   9.380   4.330  0.00  0.00    -0.205 F 
ATOM     32  C   UNL     1      10.555   7.046   4.578  0.00  0.00    +0.107 A 
ATOM     37  C   UNL     1      10.113   5.786   4.920  0.00  0.00    +0.138 A 
ATOM     38  C   UNL     1       9.746   8.160   4.666  0.00  0.00    +0.138 A 
ATOM     39  C   UNL     1       8.802   5.632   5.371  0.00  0.00    +0.039 A 
ATOM     40  C   UNL     1       8.436   8.006   5.117  0.00  0.00    +0.039 A 
ATOM     41  C   UNL     1       7.963   6.742   5.469  0.00  0.00    +0.006 A 
ENDBRANCH  30  32
BRANCH  18   4
ATOM      4  O   UNL     1      22.766   8.603   4.683  0.00  0.00    -0.391 OA
ATOM     42  H   UNL     1      22.840   8.559   5.651  0.00  0.00    +0.210 HD
ENDBRANCH  18   4
BRANCH  15  23
ATOM     23  C   UNL     1      20.645  10.175   5.724  0.00  0.00    +0.165 C 
BRANCH  23   5
ATOM      5  O   UNL     1      21.493  10.232   6.848  0.00  0.00    -0.394 OA
ATOM     43  H   UNL     1      20.937  10.238   7.646  0.00  0.00    +0.209 HD
ENDBRANCH  23   5
ENDBRANCH  15  23
BRANCH  16  26
ATOM     26  C   UNL     1      16.733   8.250   1.576  0.00  0.00    +0.106 C 
BRANCH  26  27
ATOM      6  O   UNL     1      17.468   6.952  -0.330  0.00  0.00    -0.276 OA
ATOM     10  N   UNL     1      15.806   6.110   1.059  0.00  0.00    -0.314 N 
ATOM     27  C   UNL     1      16.735   7.055   0.650  0.00  0.00    +0.214 C 
ATOM     44  H   UNL     1      15.280   6.255   1.916  0.00  0.00    +0.149 HD
BRANCH  10  29
ATOM     29  C   UNL     1      15.587   4.864   0.359  0.00  0.00    +0.119 C 
BRANCH  29  31
ATOM     31  C   UNL     1      14.649   3.953   1.137  0.00  0.00    +0.103 C 
BRANCH  31  12
ATOM      8  O   UNL     1      10.562   3.964   0.187  0.00  0.00    -0.377 OA
ATOM     12  N   UNL     1      13.264   4.389   0.971  0.00  0.00    -0.297 NA
ATOM     33  C   UNL     1      12.355   3.555   1.769  0.00  0.00    +0.112 C 
ATOM     34  C   UNL     1      12.872   4.351  -0.444  0.00  0.00    +0.112 C 
ATOM     35  C   UNL     1      10.916   4.020   1.569  0.00  0.00    +0.175 C 
ATOM     36  C   UNL     1      11.421   4.799  -0.592  0.00  0.00    +0.175 C 
ENDBRANCH  31  12
ENDBRANCH  29  31
ENDBRANCH  10  29
ENDBRANCH  26  27
ENDBRANCH  16  26
TORSDOF 9
ENDMDL
MODEL 2
REMARK VINA RESULT:      -6.5     27.617     30.379
REMARK  Name = 11883045
REMARK  11 active torsions:
REMARK  status: ('A' for Active; 'I' for Inactive)
REMARK    1  A    between atoms: O_4  and  C_18
REMARK    2  A    between atoms: O_5  and  C_23
REMARK    3  A    between atoms: N_10  and  C_29
REMARK    4  A    between atoms: N_12  and  C_31
REMARK    5  A    between atoms: C_13  and  C_21
REMARK    6  A    between atoms: C_15  and  C_23
REMARK    7  A    between atoms: C_15  and  C_24
REMARK    8  A    between atoms: C_16  and  C_26
REMARK    9  A    between atoms: C_26  and  C_27
REMARK   10  A    between atoms: C_29  and  C_31
REMARK   11  A    between atoms: C_30  and  C_32
REMARK                            x       y       z     vdW  Elec       q    Type
REMARK                         _______ _______ _______ _____ _____    ______ ____
ROOT
ATOM      1  S   UNL     1      -7.480 -11.461  12.458  0.00  0.00    -0.057 S 
ATOM      7  O   UNL     1      -3.429 -11.326  10.168  0.00  0.00    -0.270 OA
ATOM      9  N   UNL     1      -4.908 -11.367  12.729  0.00  0.00    -0.229 NA
ATOM     11  N   UNL     1      -5.765 -11.406  10.476  0.00  0.00    -0.261 N 
ATOM     13  C   UNL     1      -5.453 -10.967  16.526  0.00  0.00    -0.019 C 
ATOM     14  C   UNL     1      -6.795 -11.823  16.503  0.00  0.00    +0.011 C 
ATOM     15  C   UNL     1      -7.603 -11.924  17.854  0.00  0.00    +0.021 C 
ATOM     16  C   UNL     1      -4.598 -11.355  15.232  0.00  0.00    +0.054 C 
ATOM     17  C   UNL     1      -4.627 -11.335  17.786  0.00  0.00    +0.010 C 
ATOM     18  C   UNL     1      -6.622 -12.251  19.015  0.00  0.00    +0.123 C 
ATOM     19  C   UNL     1      -7.676 -11.468  15.270  0.00  0.00    +0.049 C 
ATOM     20  C   UNL     1      -5.429 -11.303  19.079  0.00  0.00    +0.032 C 
ATOM     21  C   UNL     1      -5.713  -9.441  16.531  0.00  0.00    +0.012 C 
ATOM     22  C   UNL     1      -5.461 -11.371  13.997  0.00  0.00    +0.058 A 
ATOM     24  C   UNL     1      -8.613 -13.102  17.755  0.00  0.00    +0.016 C 
ATOM     25  C   UNL     1      -6.838 -11.439  14.036  0.00  0.00    +0.015 A 
ATOM     28  C   UNL     1      -5.878 -11.405  11.841  0.00  0.00    +0.165 A 
ATOM     30  C   UNL     1      -4.574 -11.369   9.732  0.00  0.00    +0.255 C 
ATOM     45  H   UNL     1      -6.653 -11.463   9.986  0.00  0.00    +0.157 HD
ENDROOT
BRANCH  30  32
ATOM      2  F   UNL     1      -3.870 -13.619   8.214  0.00  0.00    -0.205 F 
ATOM      3  F   UNL     1      -5.622  -9.205   8.288  0.00  0.00    -0.205 F 
ATOM     32  C   UNL     1      -4.745 -11.412   8.255  0.00  0.00    +0.107 A 
ATOM     37  C   UNL     1      -4.376 -12.553   7.576  0.00  0.00    +0.138 A 
ATOM     38  C   UNL     1      -5.267 -10.308   7.614  0.00  0.00    +0.138 A 
ATOM     39  C   UNL     1      -4.536 -12.594   6.191  0.00  0.00    +0.039 A 
ATOM     40  C   UNL     1      -5.427 -10.349   6.229  0.00  0.00    +0.039 A 
ATOM     41  C   UNL     1      -5.061 -11.492   5.517  0.00  0.00    +0.006 A 
ENDBRANCH  30  32
BRANCH  18   4
ATOM      4  O   UNL     1      -7.300 -12.221  20.270  0.00  0.00    -0.391 OA
ATOM     42  H   UNL     1      -6.785 -12.747  20.903  0.00  0.00    +0.210 HD
ENDBRANCH  18   4
BRANCH  15  23
ATOM     23  C   UNL     1      -8.452 -10.677  18.187  0.00  0.00    +0.165 C 
BRANCH  23   5
ATOM      5  O   UNL     1      -9.563 -11.100  18.943  0.00  0.00    -0.394 OA
ATOM     43  H   UNL     1      -9.920 -11.905  18.530  0.00  0.00    +0.209 HD
ENDBRANCH  23   5
ENDBRANCH  15  23
BRANCH  16  26
ATOM     26  C   UNL     1      -3.334 -10.510  15.025  0.00  0.00    +0.106 C 
BRANCH  26  27
ATOM      6  O   UNL     1      -1.106 -11.216  15.652  0.00  0.00    -0.276 OA
ATOM     10  N   UNL     1      -2.219 -12.320  13.936  0.00  0.00    -0.314 N 
ATOM     27  C   UNL     1      -2.091 -11.364  14.933  0.00  0.00    +0.214 C 
ATOM     44  H   UNL     1      -3.093 -12.405  13.427  0.00  0.00    +0.149 HD
BRANCH  10  29
ATOM     29  C   UNL     1      -1.181 -13.276  13.621  0.00  0.00    +0.119 C 
BRANCH  29  31
ATOM     31  C   UNL     1      -1.770 -14.641  13.299  0.00  0.00    +0.103 C 
BRANCH  31  12
ATOM      8  O   UNL     1      -5.649 -15.580  12.004  0.00  0.00    -0.377 OA
ATOM     12  N   UNL     1      -3.163 -14.507  12.876  0.00  0.00    -0.297 NA
ATOM     33  C   UNL     1      -4.058 -15.216  13.799  0.00  0.00    +0.112 C 
ATOM     34  C   UNL     1      -3.343 -15.013  11.509  0.00  0.00    +0.112 C 
ATOM     35  C   UNL     1      -5.504 -15.073  13.330  0.00  0.00    +0.175 C 
ATOM     36  C   UNL     1      -4.805 -14.873  11.094  0.00  0.00    +0.175 C 
ENDBRANCH  31  12
ENDBRANCH  29  31
ENDBRANCH  10  29
ENDBRANCH  26  27
ENDBRANCH  16  26
TORSDOF 9
ENDMDL
MODEL 3
REMARK VINA RESULT:      -6.3     27.580     30.930
REMARK  Name = 11883045
REMARK  11 active torsions:
REMARK  status: ('A' for Active; 'I' for Inactive)
REMARK    1  A    between atoms: O_4  and  C_18
REMARK    2  A    between atoms: O_5  and  C_23
REMARK    3  A    between atoms: N_10  and  C_29
REMARK    4  A    between atoms: N_12  and  C_31
REMARK    5  A    between atoms: C_13  and  C_21
REMARK    6  A    between atoms: C_15  and  C_23
REMARK    7  A    between atoms: C_15  and  C_24
REMARK    8  A    between atoms: C_16  and  C_26
REMARK    9  A    between atoms: C_26  and  C_27
REMARK   10  A    between atoms: C_29  and  C_31
REMARK   11  A    between atoms: C_30  and  C_32
REMARK                            x       y       z     vdW  Elec       q    Type
REMARK                         _______ _______ _______ _____ _____    ______ ____
ROOT
ATOM      1  S   UNL     1      -6.791 -10.496  10.886  0.00  0.00    -0.057 S 
ATOM      7  O   UNL     1     -10.977  -8.822  12.050  0.00  0.00    -0.270 OA
ATOM      9  N   UNL     1      -8.285  -9.742  12.860  0.00  0.00    -0.229 NA
ATOM     11  N   UNL     1      -9.247  -9.608  10.654  0.00  0.00    -0.261 N 
ATOM     13  C   UNL     1      -5.516 -10.961  15.251  0.00  0.00    -0.019 C 
ATOM     14  C   UNL     1      -4.361 -10.631  14.208  0.00  0.00    +0.011 C 
ATOM     15  C   UNL     1      -2.894 -11.053  14.607  0.00  0.00    +0.021 C 
ATOM     16  C   UNL     1      -6.795 -10.082  14.866  0.00  0.00    +0.054 C 
ATOM     17  C   UNL     1      -5.057 -10.557  16.677  0.00  0.00    +0.010 C 
ATOM     18  C   UNL     1      -2.615 -10.614  16.072  0.00  0.00    +0.123 C 
ATOM     19  C   UNL     1      -4.762 -11.047  12.763  0.00  0.00    +0.049 C 
ATOM     20  C   UNL     1      -3.682 -11.088  17.054  0.00  0.00    +0.032 C 
ATOM     21  C   UNL     1      -5.907 -12.460  15.262  0.00  0.00    +0.012 C 
ATOM     22  C   UNL     1      -7.074 -10.150  13.387  0.00  0.00    +0.058 A 
ATOM     24  C   UNL     1      -1.884 -10.297  13.697  0.00  0.00    +0.016 C 
ATOM     25  C   UNL     1      -6.142 -10.570  12.460  0.00  0.00    +0.015 A 
ATOM     28  C   UNL     1      -8.252  -9.887  11.553  0.00  0.00    +0.165 A 
ATOM     30  C   UNL     1     -10.525  -9.102  10.945  0.00  0.00    +0.255 C 
ATOM     45  H   UNL     1      -8.991  -9.777   9.685  0.00  0.00    +0.157 HD
ENDROOT
BRANCH  30  32
ATOM      2  F   UNL     1     -10.474  -6.690   9.514  0.00  0.00    -0.205 F 
ATOM      3  F   UNL     1     -12.328 -11.035  10.009  0.00  0.00    -0.205 F 
ATOM     32  C   UNL     1     -11.398  -8.863   9.765  0.00  0.00    +0.107 A 
ATOM     37  C   UNL     1     -11.318  -7.652   9.112  0.00  0.00    +0.138 A 
ATOM     38  C   UNL     1     -12.261  -9.862   9.364  0.00  0.00    +0.138 A 
ATOM     39  C   UNL     1     -12.138  -7.428   8.006  0.00  0.00    +0.039 A 
ATOM     40  C   UNL     1     -13.081  -9.638   8.258  0.00  0.00    +0.039 A 
ATOM     41  C   UNL     1     -13.019  -8.421   7.579  0.00  0.00    +0.006 A 
ENDBRANCH  30  32
BRANCH  18   4
ATOM      4  O   UNL     1      -1.344 -11.095  16.508  0.00  0.00    -0.391 OA
ATOM     42  H   UNL     1      -1.217 -11.984  16.138  0.00  0.00    +0.210 HD
ENDBRANCH  18   4
BRANCH  15  23
ATOM     23  C   UNL     1      -2.584 -12.554  14.413  0.00  0.00    +0.165 C 
BRANCH  23   5
ATOM      5  O   UNL     1      -1.267 -12.663  13.923  0.00  0.00    -0.394 OA
ATOM     43  H   UNL     1      -1.008 -11.799  13.560  0.00  0.00    +0.209 HD
ENDBRANCH  23   5
ENDBRANCH  15  23
BRANCH  16  26
ATOM     26  C   UNL     1      -8.052 -10.390  15.691  0.00  0.00    +0.106 C 
BRANCH  26  27
ATOM      6  O   UNL     1      -8.296  -8.876  17.563  0.00  0.00    -0.276 OA
ATOM     10  N   UNL     1      -9.406  -8.425  15.571  0.00  0.00    -0.314 N 
ATOM     27  C   UNL     1      -8.576  -9.164  16.402  0.00  0.00    +0.214 C 
ATOM     44  H   UNL     1      -9.537  -8.710  14.606  0.00  0.00    +0.149 HD
BRANCH  10  29
ATOM     29  C   UNL     1     -10.052  -7.201  15.987  0.00  0.00    +0.119 C 
BRANCH  29  31
ATOM     31  C   UNL     1     -11.538  -7.418  16.229  0.00  0.00    +0.103 C 
BRANCH  31  12
ATOM      8  O   UNL     1     -13.976  -5.033  13.783  0.00  0.00    -0.377 OA
ATOM     12  N   UNL     1     -12.314  -6.940  15.085  0.00  0.00    -0.297 NA
ATOM     33  C   UNL     1     -11.777  -5.668  14.585  0.00  0.00    +0.112 C 
ATOM     34  C   UNL     1     -13.729  -6.783  15.445  0.00  0.00    +0.112 C 
ATOM     35  C   UNL     1     -12.609  -5.184  13.401  0.00  0.00    +0.175 C 
ATOM     36  C   UNL     1     -14.516  -6.274  14.240  0.00  0.00    +0.175 C 
ENDBRANCH  31  12
ENDBRANCH  29  31
ENDBRANCH  10  29
ENDBRANCH  26  27
ENDBRANCH  16  26
TORSDOF 9
ENDMDL
MODEL 4
REMARK VINA RESULT:      -6.2     26.798     31.885
REMARK  Name = 11883045
REMARK  11 active torsions:
REMARK  status: ('A' for Active; 'I' for Inactive)
REMARK    1  A    between atoms: O_4  and  C_18
REMARK    2  A    between atoms: O_5  and  C_23
REMARK    3  A    between atoms: N_10  and  C_29
REMARK    4  A    between atoms: N_12  and  C_31
REMARK    5  A    between atoms: C_13  and  C_21
REMARK    6  A    between atoms: C_15  and  C_23
REMARK    7  A    between atoms: C_15  and  C_24
REMARK    8  A    between atoms: C_16  and  C_26
REMARK    9  A    between atoms: C_26  and  C_27
REMARK   10  A    between atoms: C_29  and  C_31
REMARK   11  A    between atoms: C_30  and  C_32
REMARK                            x       y       z     vdW  Elec       q    Type
REMARK                         _______ _______ _______ _____ _____    ______ ____
ROOT
ATOM      1  S   UNL     1      -9.947  -9.916  12.976  0.00  0.00    -0.057 S 
ATOM      7  O   UNL     1      -5.293 -10.019  12.949  0.00  0.00    -0.270 OA
ATOM      9  N   UNL     1      -7.833 -10.004  14.465  0.00  0.00    -0.229 NA
ATOM     11  N   UNL     1      -7.484  -9.943  12.080  0.00  0.00    -0.261 N 
ATOM     13  C   UNL     1     -10.138  -9.638  17.535  0.00  0.00    -0.019 C 
ATOM     14  C   UNL     1     -11.340 -10.399  16.821  0.00  0.00    +0.011 C 
ATOM     15  C   UNL     1     -12.708 -10.468  17.604  0.00  0.00    +0.021 C 
ATOM     16  C   UNL     1      -8.781 -10.061  16.801  0.00  0.00    +0.054 C 
ATOM     17  C   UNL     1     -10.050 -10.085  19.018  0.00  0.00    +0.010 C 
ATOM     18  C   UNL     1     -12.435 -10.884  19.077  0.00  0.00    +0.123 C 
ATOM     19  C   UNL     1     -11.489  -9.961  15.335  0.00  0.00    +0.049 C 
ATOM     20  C   UNL     1     -11.378 -10.022  19.759  0.00  0.00    +0.032 C 
ATOM     21  C   UNL     1     -10.288  -8.098  17.489  0.00  0.00    +0.012 C 
ATOM     22  C   UNL     1      -8.932  -9.993  15.303  0.00  0.00    +0.058 A 
ATOM     24  C   UNL     1     -13.600 -11.572  16.969  0.00  0.00    +0.016 C 
ATOM     25  C   UNL     1     -10.156  -9.967  14.666  0.00  0.00    +0.015 A 
ATOM     28  C   UNL     1      -8.247  -9.959  13.217  0.00  0.00    +0.165 A 
ATOM     30  C   UNL     1      -6.081  -9.974  12.010  0.00  0.00    +0.255 C 
ATOM     45  H   UNL     1      -8.021  -9.929  11.219  0.00  0.00    +0.157 HD
ENDROOT
BRANCH  30  32
ATOM      2  F   UNL     1      -6.035 -12.286  10.422  0.00  0.00    -0.205 F 
ATOM      3  F   UNL     1      -4.986  -7.672  10.842  0.00  0.00    -0.205 F 
ATOM     32  C   UNL     1      -5.513  -9.979  10.636  0.00  0.00    +0.107 A 
ATOM     37  C   UNL     1      -5.525 -11.153   9.915  0.00  0.00    +0.138 A 
ATOM     38  C   UNL     1      -4.991  -8.807  10.129  0.00  0.00    +0.138 A 
ATOM     39  C   UNL     1      -4.991 -11.157   8.626  0.00  0.00    +0.039 A 
ATOM     40  C   UNL     1      -4.457  -8.811   8.840  0.00  0.00    +0.039 A 
ATOM     41  C   UNL     1      -4.457  -9.986   8.089  0.00  0.00    +0.006 A 
ENDBRANCH  30  32
BRANCH  18   4
ATOM      4  O   UNL     1     -13.637 -10.830  19.845  0.00  0.00    -0.391 OA
ATOM     42  H   UNL     1     -14.372 -10.640  19.240  0.00  0.00    +0.210 HD
ENDBRANCH  18   4
BRANCH  15  23
ATOM     23  C   UNL     1     -13.546  -9.172  17.544  0.00  0.00    +0.165 C 
BRANCH  23   5
ATOM      5  O   UNL     1     -14.907  -9.537  17.557  0.00  0.00    -0.394 OA
ATOM     43  H   UNL     1     -15.017 -10.269  18.187  0.00  0.00    +0.209 HD
ENDBRANCH  23   5
ENDBRANCH  15  23
BRANCH  16  26
ATOM     26  C   UNL     1      -7.535  -9.301  17.276  0.00  0.00    +0.106 C 
BRANCH  26  27
ATOM      6  O   UNL     1      -6.440 -10.737  18.887  0.00  0.00    -0.276 OA
ATOM     10  N   UNL     1      -5.496 -10.444  16.783  0.00  0.00    -0.314 N 
ATOM     27  C   UNL     1      -6.454 -10.237  17.765  0.00  0.00    +0.214 C 
ATOM     44  H   UNL     1      -5.618 -10.031  15.863  0.00  0.00    +0.149 HD
BRANCH  10  29
ATOM     29  C   UNL     1      -4.342 -11.293  16.973  0.00  0.00    +0.119 C 
BRANCH  29  31
ATOM     31  C   UNL     1      -3.095 -10.672  16.363  0.00  0.00    +0.103 C 
BRANCH  31  12
ATOM      8  O   UNL     1      -1.829 -11.998  12.589  0.00  0.00    -0.377 OA
ATOM     12  N   UNL     1      -3.051 -10.928  14.925  0.00  0.00    -0.297 NA
ATOM     33  C   UNL     1      -3.050 -12.371  14.652  0.00  0.00    +0.112 C 
ATOM     34  C   UNL     1      -1.869 -10.299  14.320  0.00  0.00    +0.112 C 
ATOM     35  C   UNL     1      -2.991 -12.614  13.147  0.00  0.00    +0.175 C 
ATOM     36  C   UNL     1      -1.839 -10.589  12.822  0.00  0.00    +0.175 C 
ENDBRANCH  31  12
ENDBRANCH  29  31
ENDBRANCH  10  29
ENDBRANCH  26  27
ENDBRANCH  16  26
TORSDOF 9
ENDMDL
MODEL 5
REMARK VINA RESULT:      -6.1     23.446     25.881
REMARK  Name = 11883045
REMARK  11 active torsions:
REMARK  status: ('A' for Active; 'I' for Inactive)
REMARK    1  A    between atoms: O_4  and  C_18
REMARK    2  A    between atoms: O_5  and  C_23
REMARK    3  A    between atoms: N_10  and  C_29
REMARK    4  A    between atoms: N_12  and  C_31
REMARK    5  A    between atoms: C_13  and  C_21
REMARK    6  A    between atoms: C_15  and  C_23
REMARK    7  A    between atoms: C_15  and  C_24
REMARK    8  A    between atoms: C_16  and  C_26
REMARK    9  A    between atoms: C_26  and  C_27
REMARK   10  A    between atoms: C_29  and  C_31
REMARK   11  A    between atoms: C_30  and  C_32
REMARK                            x       y       z     vdW  Elec       q    Type
REMARK                         _______ _______ _______ _____ _____    ______ ____
ROOT
ATOM      1  S   UNL     1      19.840  -6.218  20.141  0.00  0.00    -0.057 S 
ATOM      7  O   UNL     1      21.897 -10.201  21.398  0.00  0.00    -0.270 OA
ATOM      9  N   UNL     1      20.525  -7.692  22.154  0.00  0.00    -0.229 NA
ATOM     11  N   UNL     1      21.077  -8.523  19.959  0.00  0.00    -0.261 N 
ATOM     13  C   UNL     1      19.350  -4.844  24.473  0.00  0.00    -0.019 C 
ATOM     14  C   UNL     1      18.231  -4.365  23.448  0.00  0.00    +0.011 C 
ATOM     15  C   UNL     1      17.430  -3.059  23.823  0.00  0.00    +0.021 C 
ATOM     16  C   UNL     1      19.708  -6.366  24.138  0.00  0.00    +0.054 C 
ATOM     17  C   UNL     1      18.789  -4.782  25.918  0.00  0.00    +0.010 C 
ATOM     18  C   UNL     1      16.982  -3.141  25.309  0.00  0.00    +0.123 C 
ATOM     19  C   UNL     1      18.756  -4.381  21.983  0.00  0.00    +0.049 C 
ATOM     20  C   UNL     1      18.128  -3.456  26.265  0.00  0.00    +0.032 C 
ATOM     21  C   UNL     1      20.637  -3.986  24.404  0.00  0.00    +0.012 C 
ATOM     22  C   UNL     1      19.910  -6.561  22.657  0.00  0.00    +0.058 A 
ATOM     24  C   UNL     1      16.141  -2.989  22.954  0.00  0.00    +0.016 C 
ATOM     25  C   UNL     1      19.459  -5.667  21.708  0.00  0.00    +0.015 A 
ATOM     28  C   UNL     1      20.551  -7.616  20.841  0.00  0.00    +0.165 A 
ATOM     30  C   UNL     1      21.706  -9.737  20.278  0.00  0.00    +0.255 C 
ATOM     45  H   UNL     1      20.963  -8.266  18.983  0.00  0.00    +0.157 HD
ENDROOT
BRANCH  30  32
ATOM      2  F   UNL     1      24.029  -9.108  18.838  0.00  0.00    -0.205 F 
ATOM      3  F   UNL     1      20.290 -11.986  19.383  0.00  0.00    -0.205 F 
ATOM     32  C   UNL     1      22.158 -10.545  19.114  0.00  0.00    +0.107 A 
ATOM     37  C   UNL     1      23.310 -10.174  18.455  0.00  0.00    +0.138 A 
ATOM     38  C   UNL     1      21.408 -11.637  18.731  0.00  0.00    +0.138 A 
ATOM     39  C   UNL     1      23.734 -10.931  17.362  0.00  0.00    +0.039 A 
ATOM     40  C   UNL     1      21.832 -12.394  17.639  0.00  0.00    +0.039 A 
ATOM     41  C   UNL     1      22.995 -12.041  16.954  0.00  0.00    +0.006 A 
ENDBRANCH  30  32
BRANCH  18   4
ATOM      4  O   UNL     1      16.367  -1.919  25.717  0.00  0.00    -0.391 OA
ATOM     42  H   UNL     1      15.790  -2.111  26.474  0.00  0.00    +0.210 HD
ENDBRANCH  18   4
BRANCH  15  23
ATOM     23  C   UNL     1      18.188  -1.742  23.547  0.00  0.00    +0.165 C 
BRANCH  23   5
ATOM      5  O   UNL     1      17.616  -1.145  22.406  0.00  0.00    -0.394 OA
ATOM     43  H   UNL     1      18.319  -1.018  21.747  0.00  0.00    +0.209 HD
ENDBRANCH  23   5
ENDBRANCH  15  23
BRANCH  16  26
ATOM     26  C   UNL     1      20.881  -6.939  24.946  0.00  0.00    +0.106 C 
BRANCH  26  27
ATOM      6  O   UNL     1      21.266  -8.830  26.405  0.00  0.00    -0.276 OA
ATOM     10  N   UNL     1      19.152  -8.492  25.499  0.00  0.00    -0.314 N 
ATOM     27  C   UNL     1      20.489  -8.185  25.705  0.00  0.00    +0.214 C 
ATOM     44  H   UNL     1      18.570  -7.869  24.947  0.00  0.00    +0.149 HD
BRANCH  10  29
ATOM     29  C   UNL     1      18.503  -9.634  26.100  0.00  0.00    +0.119 C 
BRANCH  29  31
ATOM     31  C   UNL     1      17.011  -9.391  26.275  0.00  0.00    +0.103 C 
BRANCH  31  12
ATOM      8  O   UNL     1      14.466 -12.278  24.602  0.00  0.00    -0.377 OA
ATOM     12  N   UNL     1      16.252 -10.177  25.304  0.00  0.00    -0.297 NA
ATOM     33  C   UNL     1      14.810 -10.079  25.567  0.00  0.00    +0.112 C 
ATOM     34  C   UNL     1      16.674 -11.584  25.327  0.00  0.00    +0.112 C 
ATOM     35  C   UNL     1      14.040 -10.916  24.550  0.00  0.00    +0.175 C 
ATOM     36  C   UNL     1      15.861 -12.385  24.314  0.00  0.00    +0.175 C 
ENDBRANCH  31  12
ENDBRANCH  29  31
ENDBRANCH  10  29
ENDBRANCH  26  27
ENDBRANCH  16  26
TORSDOF 9
ENDMDL
MODEL 6
REMARK VINA RESULT:      -6.1     30.751     34.273
REMARK  Name = 11883045
REMARK  11 active torsions:
REMARK  status: ('A' for Active; 'I' for Inactive)
REMARK    1  A    between atoms: O_4  and  C_18
REMARK    2  A    between atoms: O_5  and  C_23
REMARK    3  A    between atoms: N_10  and  C_29
REMARK    4  A    between atoms: N_12  and  C_31
REMARK    5  A    between atoms: C_13  and  C_21
REMARK    6  A    between atoms: C_15  and  C_23
REMARK    7  A    between atoms: C_15  and  C_24
REMARK    8  A    between atoms: C_16  and  C_26
REMARK    9  A    between atoms: C_26  and  C_27
REMARK   10  A    between atoms: C_29  and  C_31
REMARK   11  A    between atoms: C_30  and  C_32
REMARK                            x       y       z     vdW  Elec       q    Type
REMARK                         _______ _______ _______ _____ _____    ______ ____
ROOT
ATOM      1  S   UNL     1     -10.236 -12.608  20.045  0.00  0.00    -0.057 S 
ATOM      7  O   UNL     1     -13.509  -9.459  19.023  0.00  0.00    -0.270 OA
ATOM      9  N   UNL     1     -10.771 -10.508  18.632  0.00  0.00    -0.229 NA
ATOM     11  N   UNL     1     -12.527 -11.333  20.063  0.00  0.00    -0.261 N 
ATOM     13  C   UNL     1      -7.081 -10.482  17.511  0.00  0.00    -0.019 C 
ATOM     14  C   UNL     1      -6.957 -12.065  17.613  0.00  0.00    +0.011 C 
ATOM     15  C   UNL     1      -5.530 -12.689  17.364  0.00  0.00    +0.021 C 
ATOM     16  C   UNL     1      -8.630 -10.117  17.357  0.00  0.00    +0.054 C 
ATOM     17  C   UNL     1      -6.334  -9.985  16.245  0.00  0.00    +0.010 C 
ATOM     18  C   UNL     1      -4.907 -12.051  16.090  0.00  0.00    +0.123 C 
ATOM     19  C   UNL     1      -7.667 -12.611  18.887  0.00  0.00    +0.049 C 
ATOM     20  C   UNL     1      -4.918 -10.527  16.114  0.00  0.00    +0.032 C 
ATOM     21  C   UNL     1      -6.502  -9.751  18.747  0.00  0.00    +0.012 C 
ATOM     22  C   UNL     1      -9.467 -10.876  18.354  0.00  0.00    +0.058 A 
ATOM     24  C   UNL     1      -5.682 -14.213  17.093  0.00  0.00    +0.016 C 
ATOM     25  C   UNL     1      -9.022 -12.001  19.016  0.00  0.00    +0.015 A 
ATOM     28  C   UNL     1     -11.272 -11.345  19.514  0.00  0.00    +0.165 A 
ATOM     30  C   UNL     1     -13.553 -10.413  19.793  0.00  0.00    +0.255 C 
ATOM     45  H   UNL     1     -12.704 -12.095  20.711  0.00  0.00    +0.157 HD
ENDROOT
BRANCH  30  32
ATOM      2  F   UNL     1     -14.856 -12.896  19.722  0.00  0.00    -0.205 F 
ATOM      3  F   UNL     1     -14.816  -8.418  21.307  0.00  0.00    -0.205 F 
ATOM     32  C   UNL     1     -14.831 -10.656  20.512  0.00  0.00    +0.107 A 
ATOM     37  C   UNL     1     -15.414 -11.903  20.431  0.00  0.00    +0.138 A 
ATOM     38  C   UNL     1     -15.394  -9.625  21.236  0.00  0.00    +0.138 A 
ATOM     39  C   UNL     1     -16.613 -12.131  21.105  0.00  0.00    +0.039 A 
ATOM     40  C   UNL     1     -16.593  -9.854  21.910  0.00  0.00    +0.039 A 
ATOM     41  C   UNL     1     -17.203 -11.107  21.845  0.00  0.00    +0.006 A 
ENDBRANCH  30  32
BRANCH  18   4
ATOM      4  O   UNL     1      -3.564 -12.498  15.910  0.00  0.00    -0.391 OA
ATOM     42  H   UNL     1      -3.070 -11.792  15.462  0.00  0.00    +0.210 HD
ENDBRANCH  18   4
BRANCH  15  23
ATOM     23  C   UNL     1      -4.563 -12.576  18.565  0.00  0.00    +0.165 C 
BRANCH  23   5
ATOM      5  O   UNL     1      -3.982 -13.843  18.771  0.00  0.00    -0.394 OA
ATOM     43  H   UNL     1      -3.670 -14.176  17.912  0.00  0.00    +0.209 HD
ENDBRANCH  23   5
ENDBRANCH  15  23
BRANCH  16  26
ATOM     26  C   UNL     1      -8.939  -8.614  17.390  0.00  0.00    +0.106 C 
BRANCH  26  27
ATOM      6  O   UNL     1      -9.740  -8.824  15.116  0.00  0.00    -0.276 OA
ATOM     10  N   UNL     1     -10.221  -6.901  16.329  0.00  0.00    -0.314 N 
ATOM     27  C   UNL     1      -9.665  -8.158  16.146  0.00  0.00    +0.214 C 
ATOM     44  H   UNL     1     -10.155  -6.446  17.235  0.00  0.00    +0.149 HD
BRANCH  10  29
ATOM     29  C   UNL     1     -10.972  -6.212  15.304  0.00  0.00    +0.119 C 
BRANCH  29  31
ATOM     31  C   UNL     1     -12.470  -6.335  15.543  0.00  0.00    +0.103 C 
BRANCH  31  12
ATOM      8  O   UNL     1     -14.179  -4.732  12.061  0.00  0.00    -0.377 OA
ATOM     12  N   UNL     1     -13.202  -5.454  14.634  0.00  0.00    -0.297 NA
ATOM     33  C   UNL     1     -14.327  -6.165  14.013  0.00  0.00    +0.112 C 
ATOM     34  C   UNL     1     -12.311  -4.917  13.598  0.00  0.00    +0.112 C 
ATOM     35  C   UNL     1     -15.068  -5.231  13.061  0.00  0.00    +0.175 C 
ATOM     36  C   UNL     1     -13.098  -4.011  12.656  0.00  0.00    +0.175 C 
ENDBRANCH  31  12
ENDBRANCH  29  31
ENDBRANCH  10  29
ENDBRANCH  26  27
ENDBRANCH  16  26
TORSDOF 9
ENDMDL
MODEL 7
REMARK VINA RESULT:      -6.1     27.365     32.079
REMARK  Name = 11883045
REMARK  11 active torsions:
REMARK  status: ('A' for Active; 'I' for Inactive)
REMARK    1  A    between atoms: O_4  and  C_18
REMARK    2  A    between atoms: O_5  and  C_23
REMARK    3  A    between atoms: N_10  and  C_29
REMARK    4  A    between atoms: N_12  and  C_31
REMARK    5  A    between atoms: C_13  and  C_21
REMARK    6  A    between atoms: C_15  and  C_23
REMARK    7  A    between atoms: C_15  and  C_24
REMARK    8  A    between atoms: C_16  and  C_26
REMARK    9  A    between atoms: C_26  and  C_27
REMARK   10  A    between atoms: C_29  and  C_31
REMARK   11  A    between atoms: C_30  and  C_32
REMARK                            x       y       z     vdW  Elec       q    Type
REMARK                         _______ _______ _______ _____ _____    ______ ____
ROOT
ATOM      1  S   UNL     1     -10.365  -6.913  16.177  0.00  0.00    -0.057 S 
ATOM      7  O   UNL     1      -8.542 -11.160  15.623  0.00  0.00    -0.270 OA
ATOM      9  N   UNL     1     -10.282  -8.985  14.629  0.00  0.00    -0.229 NA
ATOM     11  N   UNL     1      -8.964  -9.078  16.646  0.00  0.00    -0.261 N 
ATOM     13  C   UNL     1     -13.011  -7.320  12.472  0.00  0.00    -0.019 C 
ATOM     14  C   UNL     1     -12.502  -5.853  12.820  0.00  0.00    +0.011 C 
ATOM     15  C   UNL     1     -13.362  -4.649  12.274  0.00  0.00    +0.021 C 
ATOM     16  C   UNL     1     -11.801  -8.335  12.724  0.00  0.00    +0.054 C 
ATOM     17  C   UNL     1     -13.402  -7.390  10.972  0.00  0.00    +0.010 C 
ATOM     18  C   UNL     1     -13.703  -4.900  10.778  0.00  0.00    +0.123 C 
ATOM     19  C   UNL     1     -12.125  -5.723  14.325  0.00  0.00    +0.049 C 
ATOM     20  C   UNL     1     -14.327  -6.268  10.525  0.00  0.00    +0.032 C 
ATOM     21  C   UNL     1     -14.230  -7.753  13.323  0.00  0.00    +0.012 C 
ATOM     22  C   UNL     1     -11.133  -8.064  14.047  0.00  0.00    +0.058 A 
ATOM     24  C   UNL     1     -12.514  -3.347  12.344  0.00  0.00    +0.016 C 
ATOM     25  C   UNL     1     -11.278  -6.879  14.739  0.00  0.00    +0.015 A 
ATOM     28  C   UNL     1      -9.825  -8.488  15.759  0.00  0.00    +0.165 A 
ATOM     30  C   UNL     1      -8.383 -10.352  16.531  0.00  0.00    +0.255 C 
ATOM     45  H   UNL     1      -8.728  -8.498  17.445  0.00  0.00    +0.157 HD
ENDROOT
BRANCH  30  32
ATOM      2  F   UNL     1      -9.229 -11.851  18.747  0.00  0.00    -0.205 F 
ATOM      3  F   UNL     1      -5.678  -9.610  16.524  0.00  0.00    -0.205 F 
ATOM     32  C   UNL     1      -7.456 -10.730  17.632  0.00  0.00    +0.107 A 
ATOM     37  C   UNL     1      -7.944 -11.467  18.689  0.00  0.00    +0.138 A 
ATOM     38  C   UNL     1      -6.139 -10.327  17.559  0.00  0.00    +0.138 A 
ATOM     39  C   UNL     1      -7.075 -11.821  19.721  0.00  0.00    +0.039 A 
ATOM     40  C   UNL     1      -5.270 -10.681  18.591  0.00  0.00    +0.039 A 
ATOM     41  C   UNL     1      -5.738 -11.428  19.673  0.00  0.00    +0.006 A 
ENDBRANCH  30  32
BRANCH  18   4
ATOM      4  O   UNL     1     -14.589  -3.893  10.289  0.00  0.00    -0.391 OA
ATOM     42  H   UNL     1     -15.137  -4.288   9.591  0.00  0.00    +0.210 HD
ENDBRANCH  18   4
BRANCH  15  23
ATOM     23  C   UNL     1     -14.642  -4.355  13.088  0.00  0.00    +0.165 C 
BRANCH  23   5
ATOM      5  O   UNL     1     -14.783  -2.956  13.179  0.00  0.00    -0.394 OA
ATOM     43  H   UNL     1     -15.681  -2.763  13.499  0.00  0.00    +0.209 HD
ENDBRANCH  23   5
ENDBRANCH  15  23
BRANCH  16  26
ATOM     26  C   UNL     1     -12.169  -9.817  12.573  0.00  0.00    +0.106 C 
BRANCH  26  27
ATOM      6  O   UNL     1     -11.278 -11.747  11.417  0.00  0.00    -0.276 OA
ATOM     10  N   UNL     1     -10.361  -9.649  11.021  0.00  0.00    -0.314 N 
ATOM     27  C   UNL     1     -11.243 -10.536  11.620  0.00  0.00    +0.214 C 
ATOM     44  H   UNL     1     -10.441  -8.654  11.208  0.00  0.00    +0.149 HD
BRANCH  10  29
ATOM     29  C   UNL     1      -9.357 -10.057  10.065  0.00  0.00    +0.119 C 
BRANCH  29  31
ATOM     31  C   UNL     1      -8.409  -8.913   9.739  0.00  0.00    +0.103 C 
BRANCH  31  12
ATOM      8  O   UNL     1      -4.216  -8.963   9.576  0.00  0.00    -0.377 OA
ATOM     12  N   UNL     1      -7.026  -9.385   9.734  0.00  0.00    -0.297 NA
ATOM     33  C   UNL     1      -6.273  -8.802  10.853  0.00  0.00    +0.112 C 
ATOM     34  C   UNL     1      -6.369  -9.061   8.461  0.00  0.00    +0.112 C 
ATOM     35  C   UNL     1      -4.830  -9.299  10.821  0.00  0.00    +0.175 C 
ATOM     36  C   UNL     1      -4.924  -9.553   8.484  0.00  0.00    +0.175 C 
ENDBRANCH  31  12
ENDBRANCH  29  31
ENDBRANCH  10  29
ENDBRANCH  26  27
ENDBRANCH  16  26
TORSDOF 9
ENDMDL
MODEL 8
REMARK VINA RESULT:      -6.0     27.190     30.338
REMARK  Name = 11883045
REMARK  11 active torsions:
REMARK  status: ('A' for Active; 'I' for Inactive)
REMARK    1  A    between atoms: O_4  and  C_18
REMARK    2  A    between atoms: O_5  and  C_23
REMARK    3  A    between atoms: N_10  and  C_29
REMARK    4  A    between atoms: N_12  and  C_31
REMARK    5  A    between atoms: C_13  and  C_21
REMARK    6  A    between atoms: C_15  and  C_23
REMARK    7  A    between atoms: C_15  and  C_24
REMARK    8  A    between atoms: C_16  and  C_26
REMARK    9  A    between atoms: C_26  and  C_27
REMARK   10  A    between atoms: C_29  and  C_31
REMARK   11  A    between atoms: C_30  and  C_32
REMARK                            x       y       z     vdW  Elec       q    Type
REMARK                         _______ _______ _______ _____ _____    ______ ____
ROOT
ATOM      1  S   UNL     1      -5.297  -9.994  10.144  0.00  0.00    -0.057 S 
ATOM      7  O   UNL     1      -9.764  -8.681  10.097  0.00  0.00    -0.270 OA
ATOM      9  N   UNL     1      -7.394  -9.601  11.609  0.00  0.00    -0.229 NA
ATOM     11  N   UNL     1      -7.622  -9.182   9.246  0.00  0.00    -0.261 N 
ATOM     13  C   UNL     1      -5.422 -11.047  14.591  0.00  0.00    -0.019 C 
ATOM     14  C   UNL     1      -4.030 -10.520  14.027  0.00  0.00    +0.011 C 
ATOM     15  C   UNL     1      -2.732 -10.937  14.821  0.00  0.00    +0.021 C 
ATOM     16  C   UNL     1      -6.585 -10.173  13.929  0.00  0.00    +0.054 C 
ATOM     17  C   UNL     1      -5.470 -10.840  16.128  0.00  0.00    +0.010 C 
ATOM     18  C   UNL     1      -2.966 -10.709  16.341  0.00  0.00    +0.123 C 
ATOM     19  C   UNL     1      -3.920 -10.735  12.490  0.00  0.00    +0.049 C 
ATOM     20  C   UNL     1      -4.242 -11.365  16.858  0.00  0.00    +0.032 C 
ATOM     21  C   UNL     1      -5.667 -12.546  14.285  0.00  0.00    +0.012 C 
ATOM     22  C   UNL     1      -6.379 -10.034  12.443  0.00  0.00    +0.058 A 
ATOM     24  C   UNL     1      -1.556 -10.015  14.391  0.00  0.00    +0.016 C 
ATOM     25  C   UNL     1      -5.171 -10.274  11.820  0.00  0.00    +0.015 A 
ATOM     28  C   UNL     1      -6.940  -9.550  10.376  0.00  0.00    +0.165 A 
ATOM     30  C   UNL     1      -8.965  -8.776   9.171  0.00  0.00    +0.255 C 
ATOM     45  H   UNL     1      -7.062  -9.195   8.399  0.00  0.00    +0.157 HD
ENDROOT
BRANCH  30  32
ATOM      2  F   UNL     1      -8.895  -6.130   8.243  0.00  0.00    -0.205 F 
ATOM      3  F   UNL     1      -9.991 -10.670   7.375  0.00  0.00    -0.205 F 
ATOM     32  C   UNL     1      -9.441  -8.401   7.813  0.00  0.00    +0.107 A 
ATOM     37  C   UNL     1      -9.376  -7.079   7.426  0.00  0.00    +0.138 A 
ATOM     38  C   UNL     1      -9.934  -9.388   6.985  0.00  0.00    +0.138 A 
ATOM     39  C   UNL     1      -9.823  -6.728   6.153  0.00  0.00    +0.039 A 
ATOM     40  C   UNL     1     -10.381  -9.036   5.711  0.00  0.00    +0.039 A 
ATOM     41  C   UNL     1     -10.325  -7.706   5.295  0.00  0.00    +0.006 A 
ENDBRANCH  30  32
BRANCH  18   4
ATOM      4  O   UNL     1      -1.860 -11.198  17.099  0.00  0.00    -0.391 OA
ATOM     42  H   UNL     1      -1.704 -12.121  16.843  0.00  0.00    +0.210 HD
ENDBRANCH  18   4
BRANCH  15  23
ATOM     23  C   UNL     1      -2.250 -12.380  14.549  0.00  0.00    +0.165 C 
BRANCH  23   5
ATOM      5  O   UNL     1      -0.851 -12.404  14.708  0.00  0.00    -0.394 OA
ATOM     43  H   UNL     1      -0.530 -13.279  14.430  0.00  0.00    +0.209 HD
ENDBRANCH  23   5
ENDBRANCH  15  23
BRANCH  16  26
ATOM     26  C   UNL     1      -8.007 -10.649  14.257  0.00  0.00    +0.106 C 
BRANCH  26  27
ATOM      6  O   UNL     1      -9.780  -9.016  14.038  0.00  0.00    -0.276 OA
ATOM     10  N   UNL     1      -8.556  -9.123  16.011  0.00  0.00    -0.314 N 
ATOM     27  C   UNL     1      -8.890  -9.515  14.723  0.00  0.00    +0.214 C 
ATOM     44  H   UNL     1      -7.840  -9.630  16.524  0.00  0.00    +0.149 HD
BRANCH  10  29
ATOM     29  C   UNL     1      -9.233  -8.056  16.713  0.00  0.00    +0.119 C 
BRANCH  29  31
ATOM     31  C   UNL     1     -10.429  -8.582  17.491  0.00  0.00    +0.103 C 
BRANCH  31  12
ATOM      8  O   UNL     1     -13.452  -7.165  14.948  0.00  0.00    -0.377 OA
ATOM     12  N   UNL     1     -11.661  -7.956  17.013  0.00  0.00    -0.297 NA
ATOM     33  C   UNL     1     -12.504  -8.933  16.312  0.00  0.00    +0.112 C 
ATOM     34  C   UNL     1     -11.359  -6.823  16.127  0.00  0.00    +0.112 C 
ATOM     35  C   UNL     1     -13.776  -8.255  15.811  0.00  0.00    +0.175 C 
ATOM     36  C   UNL     1     -12.658  -6.194  15.632  0.00  0.00    +0.175 C 
ENDBRANCH  31  12
ENDBRANCH  29  31
ENDBRANCH  10  29
ENDBRANCH  26  27
ENDBRANCH  16  26
TORSDOF 9
ENDMDL
MODEL 9
REMARK VINA RESULT:      -6.0     28.330     31.126
REMARK  Name = 11883045
REMARK  11 active torsions:
REMARK  status: ('A' for Active; 'I' for Inactive)
REMARK    1  A    between atoms: O_4  and  C_18
REMARK    2  A    between atoms: O_5  and  C_23
REMARK    3  A    between atoms: N_10  and  C_29
REMARK    4  A    between atoms: N_12  and  C_31
REMARK    5  A    between atoms: C_13  and  C_21
REMARK    6  A    between atoms: C_15  and  C_23
REMARK    7  A    between atoms: C_15  and  C_24
REMARK    8  A    between atoms: C_16  and  C_26
REMARK    9  A    between atoms: C_26  and  C_27
REMARK   10  A    between atoms: C_29  and  C_31
REMARK   11  A    between atoms: C_30  and  C_32
REMARK                            x       y       z     vdW  Elec       q    Type
REMARK                         _______ _______ _______ _____ _____    ______ ____
ROOT
ATOM      1  S   UNL     1      -5.911 -10.920  12.440  0.00  0.00    -0.057 S 
ATOM      7  O   UNL     1      -9.292  -8.479  10.370  0.00  0.00    -0.270 OA
ATOM      9  N   UNL     1      -8.106  -9.608  12.833  0.00  0.00    -0.229 NA
ATOM     11  N   UNL     1      -7.314  -9.749  10.561  0.00  0.00    -0.261 N 
ATOM     13  C   UNL     1      -7.974 -10.747  16.515  0.00  0.00    -0.019 C 
ATOM     14  C   UNL     1      -6.383 -10.784  16.529  0.00  0.00    +0.011 C 
ATOM     15  C   UNL     1      -5.691 -11.330  17.837  0.00  0.00    +0.021 C 
ATOM     16  C   UNL     1      -8.435  -9.781  15.328  0.00  0.00    +0.054 C 
ATOM     17  C   UNL     1      -8.489 -10.155  17.854  0.00  0.00    +0.010 C 
ATOM     18  C   UNL     1      -6.354 -10.672  19.080  0.00  0.00    +0.123 C 
ATOM     19  C   UNL     1      -5.817 -11.399  15.216  0.00  0.00    +0.049 C 
ATOM     20  C   UNL     1      -7.874 -10.799  19.088  0.00  0.00    +0.032 C 
ATOM     21  C   UNL     1      -8.607 -12.146  16.315  0.00  0.00    +0.012 C 
ATOM     22  C   UNL     1      -7.678 -10.081  14.060  0.00  0.00    +0.058 A 
ATOM     24  C   UNL     1      -4.194 -10.908  17.833  0.00  0.00    +0.016 C 
ATOM     25  C   UNL     1      -6.497 -10.794  14.035  0.00  0.00    +0.015 A 
ATOM     28  C   UNL     1      -7.256  -9.996  11.907  0.00  0.00    +0.165 A 
ATOM     30  C   UNL     1      -8.305  -9.021   9.882  0.00  0.00    +0.255 C 
ATOM     45  H   UNL     1      -6.532 -10.129  10.035  0.00  0.00    +0.157 HD
ENDROOT
BRANCH  30  32
ATOM      2  F   UNL     1      -8.128  -6.517   8.629  0.00  0.00    -0.205 F 
ATOM      3  F   UNL     1      -8.072 -11.247   8.192  0.00  0.00    -0.205 F 
ATOM     32  C   UNL     1      -8.100  -8.882   8.415  0.00  0.00    +0.107 A 
ATOM     37  C   UNL     1      -8.024  -7.618   7.871  0.00  0.00    +0.138 A 
ATOM     38  C   UNL     1      -7.995 -10.024   7.648  0.00  0.00    +0.138 A 
ATOM     39  C   UNL     1      -7.832  -7.488   6.495  0.00  0.00    +0.039 A 
ATOM     40  C   UNL     1      -7.804  -9.894   6.273  0.00  0.00    +0.039 A 
ATOM     41  C   UNL     1      -7.722  -8.626   5.696  0.00  0.00    +0.006 A 
ENDBRANCH  30  32
BRANCH  18   4
ATOM      4  O   UNL     1      -5.840 -11.241  20.284  0.00  0.00    -0.391 OA
ATOM     42  H   UNL     1      -4.915 -10.959  20.378  0.00  0.00    +0.210 HD
ENDBRANCH  18   4
BRANCH  15  23
ATOM     23  C   UNL     1      -5.688 -12.870  17.965  0.00  0.00    +0.165 C 
BRANCH  23   5
ATOM      5  O   UNL     1      -4.482 -13.248  18.588  0.00  0.00    -0.394 OA
ATOM     43  H   UNL     1      -4.482 -14.216  18.684  0.00  0.00    +0.209 HD
ENDBRANCH  23   5
ENDBRANCH  15  23
BRANCH  16  26
ATOM     26  C   UNL     1      -9.950  -9.747  15.084  0.00  0.00    +0.106 C 
BRANCH  26  27
ATOM      6  O   UNL     1     -10.081  -7.484  15.933  0.00  0.00    -0.276 OA
ATOM     10  N   UNL     1     -11.545  -8.169  14.263  0.00  0.00    -0.314 N 
ATOM     27  C   UNL     1     -10.505  -8.344  15.164  0.00  0.00    +0.214 C 
ATOM     44  H   UNL     1     -11.793  -8.920  13.626  0.00  0.00    +0.149 HD
BRANCH  10  29
ATOM     29  C   UNL     1     -12.267  -6.925  14.122  0.00  0.00    +0.119 C 
BRANCH  29  31
ATOM     31  C   UNL     1     -13.188  -6.957  12.912  0.00  0.00    +0.103 C 
BRANCH  31  12
ATOM      8  O   UNL     1     -11.591  -3.600  10.965  0.00  0.00    -0.377 OA
ATOM     12  N   UNL     1     -13.083  -5.707  12.161  0.00  0.00    -0.297 NA
ATOM     33  C   UNL     1     -12.332  -5.909  10.914  0.00  0.00    +0.112 C 
ATOM     34  C   UNL     1     -12.441  -4.664  12.972  0.00  0.00    +0.112 C 
ATOM     35  C   UNL     1     -12.225  -4.590  10.155  0.00  0.00    +0.175 C 
ATOM     36  C   UNL     1     -12.332  -3.374  12.165  0.00  0.00    +0.175 C 
ENDBRANCH  31  12
ENDBRANCH  29  31
ENDBRANCH  10  29
ENDBRANCH  26  27
ENDBRANCH  16  26
TORSDOF 9
ENDMDL
MODEL 10
REMARK VINA RESULT:      -5.9     23.426     26.040
REMARK  Name = 11883045
REMARK  11 active torsions:
REMARK  status: ('A' for Active; 'I' for Inactive)
REMARK    1  A    between atoms: O_4  and  C_18
REMARK    2  A    between atoms: O_5  and  C_23
REMARK    3  A    between atoms: N_10  and  C_29
REMARK    4  A    between atoms: N_12  and  C_31
REMARK    5  A    between atoms: C_13  and  C_21
REMARK    6  A    between atoms: C_15  and  C_23
REMARK    7  A    between atoms: C_15  and  C_24
REMARK    8  A    between atoms: C_16  and  C_26
REMARK    9  A    between atoms: C_26  and  C_27
REMARK   10  A    between atoms: C_29  and  C_31
REMARK   11  A    between atoms: C_30  and  C_32
REMARK                            x       y       z     vdW  Elec       q    Type
REMARK                         _______ _______ _______ _____ _____    ______ ____
ROOT
ATOM      1  S   UNL     1      19.798  -6.309  20.221  0.00  0.00    -0.057 S 
ATOM      7  O   UNL     1      22.028 -10.210  21.442  0.00  0.00    -0.270 OA
ATOM      9  N   UNL     1      20.644  -7.715  22.222  0.00  0.00    -0.229 NA
ATOM     11  N   UNL     1      21.078  -8.588  20.018  0.00  0.00    -0.261 N 
ATOM     13  C   UNL     1      19.545  -4.836  24.541  0.00  0.00    -0.019 C 
ATOM     14  C   UNL     1      18.352  -4.410  23.577  0.00  0.00    +0.011 C 
ATOM     15  C   UNL     1      17.543  -3.114  23.969  0.00  0.00    +0.021 C 
ATOM     16  C   UNL     1      19.919  -6.357  24.220  0.00  0.00    +0.054 C 
ATOM     17  C   UNL     1      19.073  -4.749  26.016  0.00  0.00    +0.010 C 
ATOM     18  C   UNL     1      17.191  -3.167  25.482  0.00  0.00    +0.123 C 
ATOM     19  C   UNL     1      18.786  -4.451  22.082  0.00  0.00    +0.049 C 
ATOM     20  C   UNL     1      18.402  -3.431  26.371  0.00  0.00    +0.032 C 
ATOM     21  C   UNL     1      20.803  -3.950  24.369  0.00  0.00    +0.012 C 
ATOM     22  C   UNL     1      20.033  -6.585  22.735  0.00  0.00    +0.058 A 
ATOM     24  C   UNL     1      16.202  -3.096  23.182  0.00  0.00    +0.016 C 
ATOM     25  C   UNL     1      19.502  -5.727  21.794  0.00  0.00    +0.015 A 
ATOM     28  C   UNL     1      20.586  -7.672  20.909  0.00  0.00    +0.165 A 
ATOM     30  C   UNL     1      21.756  -9.779  20.326  0.00  0.00    +0.255 C 
ATOM     45  H   UNL     1      20.898  -8.360  19.045  0.00  0.00    +0.157 HD
ENDROOT
BRANCH  30  32
ATOM      2  F   UNL     1      20.355 -12.094  19.586  0.00  0.00    -0.205 F 
ATOM      3  F   UNL     1      23.958  -9.122  18.719  0.00  0.00    -0.205 F 
ATOM     32  C   UNL     1      22.155 -10.605  19.156  0.00  0.00    +0.107 A 
ATOM     37  C   UNL     1      21.418 -11.730  18.853  0.00  0.00    +0.138 A 
ATOM     38  C   UNL     1      23.251 -10.219  18.412  0.00  0.00    +0.138 A 
ATOM     39  C   UNL     1      21.793 -12.505  17.755  0.00  0.00    +0.039 A 
ATOM     40  C   UNL     1      23.626 -10.994  17.315  0.00  0.00    +0.039 A 
ATOM     41  C   UNL     1      22.896 -12.138  16.986  0.00  0.00    +0.006 A 
ENDBRANCH  30  32
BRANCH  18   4
ATOM      4  O   UNL     1      16.572  -1.950  25.898  0.00  0.00    -0.391 OA
ATOM     42  H   UNL     1      16.522  -1.955  26.868  0.00  0.00    +0.210 HD
ENDBRANCH  18   4
BRANCH  15  23
ATOM     23  C   UNL     1      18.250  -1.786  23.615  0.00  0.00    +0.165 C 
BRANCH  23   5
ATOM      5  O   UNL     1      17.623  -1.256  22.469  0.00  0.00    -0.394 OA
ATOM     43  H   UNL     1      17.075  -0.502  22.747  0.00  0.00    +0.209 HD
ENDBRANCH  23   5
ENDBRANCH  15  23
BRANCH  16  26
ATOM     26  C   UNL     1      21.154  -6.881  24.967  0.00  0.00    +0.106 C 
BRANCH  26  27
ATOM      6  O   UNL     1      21.364  -8.213  26.976  0.00  0.00    -0.276 OA
ATOM     10  N   UNL     1      19.802  -8.810  25.363  0.00  0.00    -0.314 N 
ATOM     27  C   UNL     1      20.811  -8.022  25.896  0.00  0.00    +0.214 C 
ATOM     44  H   UNL     1      19.364  -8.545  24.486  0.00  0.00    +0.149 HD
BRANCH  10  29
ATOM     29  C   UNL     1      19.272  -9.976  26.033  0.00  0.00    +0.119 C 
BRANCH  29  31
ATOM     31  C   UNL     1      17.783  -9.825  26.307  0.00  0.00    +0.103 C 
BRANCH  31  12
ATOM      8  O   UNL     1      15.867  -6.520  28.045  0.00  0.00    -0.377 OA
ATOM     12  N   UNL     1      17.479  -8.456  26.722  0.00  0.00    -0.297 NA
ATOM     33  C   UNL     1      17.454  -8.350  28.187  0.00  0.00    +0.112 C 
ATOM     34  C   UNL     1      16.195  -8.015  26.162  0.00  0.00    +0.112 C 
ATOM     35  C   UNL     1      17.123  -6.918  28.596  0.00  0.00    +0.175 C 
ATOM     36  C   UNL     1      15.894  -6.590  26.618  0.00  0.00    +0.175 C 
ENDBRANCH  31  12
ENDBRANCH  29  31
ENDBRANCH  10  29
ENDBRANCH  26  27
ENDBRANCH  16  26
TORSDOF 9
ENDMDL
