MODEL 1
REMARK VINA RESULT:      -7.7      0.000      0.000
REMARK  Name = 75536625
REMARK  9 active torsions:
REMARK  status: ('A' for Active; 'I' for Inactive)
REMARK    1  A    between atoms: O_2  and  C_9
REMARK    2  A    between atoms: O_4  and  C_24
REMARK    3  A    between atoms: N_6  and  C_8
REMARK    4  A    between atoms: N_6  and  C_13
REMARK    5  A    between atoms: N_7  and  C_12
REMARK    6  A    between atoms: C_10  and  C_12
REMARK    7  A    between atoms: C_13  and  C_14
REMARK    8  A    between atoms: C_15  and  C_18
REMARK    9  A    between atoms: C_21  and  C_24
REMARK                            x       y       z     vdW  Elec       q    Type
REMARK                         _______ _______ _______ _____ _____    ______ ____
ROOT
ATOM      1  O   UNL     1      10.973   8.189  20.086  0.00  0.00    -0.371 OA
ATOM      8  C   UNL     1      12.736   6.630  20.338  0.00  0.00    +0.111 C 
ATOM      9  C   UNL     1      11.681   6.315  21.384  0.00  0.00    +0.164 C 
ATOM     10  C   UNL     1      10.695   7.479  21.308  0.00  0.00    +0.165 C 
ATOM     11  C   UNL     1      11.944   7.450  19.334  0.00  0.00    +0.181 C 
ENDROOT
BRANCH   9   2
ATOM      2  O   UNL     1      11.017   5.114  20.986  0.00  0.00    -0.388 OA
ATOM     29  H   UNL     1      11.268   4.420  21.619  0.00  0.00    +0.210 HD
ENDBRANCH   9   2
BRANCH   8   6
ATOM      6  N   UNL     1      13.833   7.415  20.898  0.00  0.00    -0.305 NA
ATOM     28  H   UNL     1      13.453   8.240  21.361  0.00  0.00    +0.123 HD
BRANCH   6  13
ATOM     13  C   UNL     1      14.751   7.853  19.853  0.00  0.00    +0.116 C 
BRANCH  13  14
ATOM     14  C   UNL     1      16.141   7.312  20.064  0.00  0.00    -0.034 A 
ATOM     16  C   UNL     1      16.609   6.263  19.273  0.00  0.00    +0.006 A 
ATOM     17  C   UNL     1      16.959   7.860  21.052  0.00  0.00    +0.006 A 
ATOM     19  C   UNL     1      17.896   5.763  19.468  0.00  0.00    +0.015 A 
ATOM     20  C   UNL     1      18.246   7.359  21.247  0.00  0.00    +0.015 A 
ATOM     21  C   UNL     1      18.715   6.310  20.456  0.00  0.00    +0.059 A 
BRANCH  21  24
ATOM      5  O   UNL     1      20.848   6.169  21.530  0.00  0.00    -0.245 OA
ATOM     24  C   UNL     1      20.057   5.789  20.660  0.00  0.00    +0.337 C 
BRANCH  24   4
ATOM      4  O   UNL     1      20.375   4.810  19.770  0.00  0.00    -0.477 OA
ATOM     31  H   UNL     1      21.127   5.070  19.194  0.00  0.00    +0.295 HD
ENDBRANCH  24   4
ENDBRANCH  21  24
ENDBRANCH  13  14
ENDBRANCH   6  13
ENDBRANCH   8   6
BRANCH  10  12
ATOM     12  C   UNL     1      10.818   8.458  22.465  0.00  0.00    +0.138 C 
BRANCH  12   7
ATOM      3  O   UNL     1      13.118  10.138  22.098  0.00  0.00    -0.270 OA
ATOM      7  N   UNL     1      10.822   9.817  22.002  0.00  0.00    -0.309 N 
ATOM     15  C   UNL     1      11.990  10.558  21.854  0.00  0.00    +0.244 C 
ATOM     30  H   UNL     1       9.916  10.252  21.862  0.00  0.00    +0.149 HD
BRANCH  15  18
ATOM     18  C   UNL     1      11.822  11.960  21.390  0.00  0.00    +0.037 A 
ATOM     22  C   UNL     1      12.576  12.435  20.317  0.00  0.00    +0.013 A 
ATOM     23  C   UNL     1      10.909  12.800  22.027  0.00  0.00    +0.013 A 
ATOM     25  C   UNL     1      12.416  13.750  19.880  0.00  0.00    +0.001 A 
ATOM     26  C   UNL     1      10.750  14.114  21.591  0.00  0.00    +0.001 A 
ATOM     27  C   UNL     1      11.503  14.590  20.517  0.00  0.00    +0.000 A 
ENDBRANCH  15  18
ENDBRANCH  12   7
ENDBRANCH  10  12
TORSDOF 9
ENDMDL
MODEL 2
REMARK VINA RESULT:      -7.0      1.772      2.841
REMARK  Name = 75536625
REMARK  9 active torsions:
REMARK  status: ('A' for Active; 'I' for Inactive)
REMARK    1  A    between atoms: O_2  and  C_9
REMARK    2  A    between atoms: O_4  and  C_24
REMARK    3  A    between atoms: N_6  and  C_8
REMARK    4  A    between atoms: N_6  and  C_13
REMARK    5  A    between atoms: N_7  and  C_12
REMARK    6  A    between atoms: C_10  and  C_12
REMARK    7  A    between atoms: C_13  and  C_14
REMARK    8  A    between atoms: C_15  and  C_18
REMARK    9  A    between atoms: C_21  and  C_24
REMARK                            x       y       z     vdW  Elec       q    Type
REMARK                         _______ _______ _______ _____ _____    ______ ____
ROOT
ATOM      1  O   UNL     1      12.489   9.896  18.006  0.00  0.00    -0.371 OA
ATOM      8  C   UNL     1      14.614   8.911  18.351  0.00  0.00    +0.111 C 
ATOM      9  C   UNL     1      13.625   7.797  18.059  0.00  0.00    +0.164 C 
ATOM     10  C   UNL     1      12.257   8.476  18.067  0.00  0.00    +0.165 C 
ATOM     11  C   UNL     1      13.888  10.126  17.797  0.00  0.00    +0.181 C 
ENDROOT
BRANCH   9   2
ATOM      2  O   UNL     1      13.895   7.309  16.743  0.00  0.00    -0.388 OA
ATOM     29  H   UNL     1      14.847   7.115  16.694  0.00  0.00    +0.210 HD
ENDBRANCH   9   2
BRANCH   8   6
ATOM      6  N   UNL     1      14.851   9.059  19.785  0.00  0.00    -0.305 NA
ATOM     28  H   UNL     1      15.717   9.578  19.931  0.00  0.00    +0.123 HD
BRANCH   6  13
ATOM     13  C   UNL     1      14.976   7.759  20.433  0.00  0.00    +0.116 C 
BRANCH  13  14
ATOM     14  C   UNL     1      16.409   7.300  20.497  0.00  0.00    -0.034 A 
ATOM     16  C   UNL     1      17.321   7.967  21.315  0.00  0.00    +0.006 A 
ATOM     17  C   UNL     1      16.825   6.207  19.736  0.00  0.00    +0.006 A 
ATOM     19  C   UNL     1      18.647   7.542  21.374  0.00  0.00    +0.015 A 
ATOM     20  C   UNL     1      18.152   5.782  19.795  0.00  0.00    +0.015 A 
ATOM     21  C   UNL     1      19.063   6.448  20.613  0.00  0.00    +0.059 A 
BRANCH  21  24
ATOM      5  O   UNL     1      21.300   6.428  21.460  0.00  0.00    -0.245 OA
ATOM     24  C   UNL     1      20.446   6.003  20.675  0.00  0.00    +0.337 C 
BRANCH  24   4
ATOM      4  O   UNL     1      20.724   5.041  19.754  0.00  0.00    -0.477 OA
ATOM     31  H   UNL     1      21.120   4.243  20.168  0.00  0.00    +0.295 HD
ENDBRANCH  24   4
ENDBRANCH  21  24
ENDBRANCH  13  14
ENDBRANCH   6  13
ENDBRANCH   8   6
BRANCH  10  12
ATOM     12  C   UNL     1      11.438   8.180  19.315  0.00  0.00    +0.138 C 
BRANCH  12   7
ATOM      3  O   UNL     1      11.287   8.142  22.182  0.00  0.00    -0.270 OA
ATOM      7  N   UNL     1      11.383   9.320  20.186  0.00  0.00    -0.309 N 
ATOM     15  C   UNL     1      11.311   9.206  21.571  0.00  0.00    +0.244 C 
ATOM     30  H   UNL     1      11.316  10.229  19.741  0.00  0.00    +0.149 HD
BRANCH  15  18
ATOM     18  C   UNL     1      11.234  10.481  22.330  0.00  0.00    +0.037 A 
ATOM     22  C   UNL     1      11.041  10.460  23.711  0.00  0.00    +0.013 A 
ATOM     23  C   UNL     1      11.357  11.699  21.661  0.00  0.00    +0.013 A 
ATOM     25  C   UNL     1      10.971  11.657  24.424  0.00  0.00    +0.001 A 
ATOM     26  C   UNL     1      11.286  12.895  22.373  0.00  0.00    +0.001 A 
ATOM     27  C   UNL     1      11.094  12.875  23.755  0.00  0.00    +0.000 A 
ENDBRANCH  15  18
ENDBRANCH  12   7
ENDBRANCH  10  12
TORSDOF 9
ENDMDL
MODEL 3
REMARK VINA RESULT:      -6.9     26.277     29.157
REMARK  Name = 75536625
REMARK  9 active torsions:
REMARK  status: ('A' for Active; 'I' for Inactive)
REMARK    1  A    between atoms: O_2  and  C_9
REMARK    2  A    between atoms: O_4  and  C_24
REMARK    3  A    between atoms: N_6  and  C_8
REMARK    4  A    between atoms: N_6  and  C_13
REMARK    5  A    between atoms: N_7  and  C_12
REMARK    6  A    between atoms: C_10  and  C_12
REMARK    7  A    between atoms: C_13  and  C_14
REMARK    8  A    between atoms: C_15  and  C_18
REMARK    9  A    between atoms: C_21  and  C_24
REMARK                            x       y       z     vdW  Elec       q    Type
REMARK                         _______ _______ _______ _____ _____    ______ ____
ROOT
ATOM      1  O   UNL     1     -10.681  -7.510  17.198  0.00  0.00    -0.371 OA
ATOM      8  C   UNL     1      -9.679  -8.645  15.379  0.00  0.00    +0.111 C 
ATOM      9  C   UNL     1     -10.802  -9.517  15.911  0.00  0.00    +0.164 C 
ATOM     10  C   UNL     1     -11.251  -8.833  17.201  0.00  0.00    +0.165 C 
ATOM     11  C   UNL     1     -10.056  -7.280  15.930  0.00  0.00    +0.181 C 
ENDROOT
BRANCH   9   2
ATOM      2  O   UNL     1     -11.872  -9.474  14.965  0.00  0.00    -0.388 OA
ATOM     29  H   UNL     1     -11.750 -10.221  14.353  0.00  0.00    +0.210 HD
ENDBRANCH   9   2
BRANCH   8   6
ATOM      6  N   UNL     1      -8.379  -9.069  15.892  0.00  0.00    -0.305 NA
ATOM     28  H   UNL     1      -7.732  -8.281  15.862  0.00  0.00    +0.123 HD
BRANCH   6  13
ATOM     13  C   UNL     1      -7.825 -10.152  15.088  0.00  0.00    +0.116 C 
BRANCH  13  14
ATOM     14  C   UNL     1      -6.345 -10.318  15.314  0.00  0.00    -0.034 A 
ATOM     16  C   UNL     1      -5.608 -11.186  14.507  0.00  0.00    +0.006 A 
ATOM     17  C   UNL     1      -5.711  -9.603  16.330  0.00  0.00    +0.006 A 
ATOM     19  C   UNL     1      -4.239 -11.338  14.716  0.00  0.00    +0.015 A 
ATOM     20  C   UNL     1      -4.340  -9.756  16.539  0.00  0.00    +0.015 A 
ATOM     21  C   UNL     1      -3.604 -10.624  15.733  0.00  0.00    +0.059 A 
BRANCH  21  24
ATOM      5  O   UNL     1      -1.294 -10.548  15.116  0.00  0.00    -0.245 OA
ATOM     24  C   UNL     1      -2.175 -10.782  15.950  0.00  0.00    +0.337 C 
BRANCH  24   4
ATOM      4  O   UNL     1      -1.886 -11.227  17.203  0.00  0.00    -0.477 OA
ATOM     31  H   UNL     1      -2.696 -11.348  17.744  0.00  0.00    +0.295 HD
ENDBRANCH  24   4
ENDBRANCH  21  24
ENDBRANCH  13  14
ENDBRANCH   6  13
ENDBRANCH   8   6
BRANCH  10  12
ATOM     12  C   UNL     1     -10.788  -9.547  18.462  0.00  0.00    +0.138 C 
BRANCH  12   7
ATOM      3  O   UNL     1      -9.389 -11.190  20.357  0.00  0.00    -0.270 OA
ATOM      7  N   UNL     1      -9.564 -10.263  18.237  0.00  0.00    -0.309 N 
ATOM     15  C   UNL     1      -8.955 -11.038  19.219  0.00  0.00    +0.244 C 
ATOM     30  H   UNL     1      -9.108 -10.114  17.344  0.00  0.00    +0.149 HD
BRANCH  15  18
ATOM     18  C   UNL     1      -7.677 -11.693  18.837  0.00  0.00    +0.037 A 
ATOM     22  C   UNL     1      -6.491 -11.339  19.480  0.00  0.00    +0.013 A 
ATOM     23  C   UNL     1      -7.664 -12.665  17.837  0.00  0.00    +0.013 A 
ATOM     25  C   UNL     1      -5.292 -11.956  19.123  0.00  0.00    +0.001 A 
ATOM     26  C   UNL     1      -6.466 -13.282  17.479  0.00  0.00    +0.001 A 
ATOM     27  C   UNL     1      -5.280 -12.928  18.122  0.00  0.00    +0.000 A 
ENDBRANCH  15  18
ENDBRANCH  12   7
ENDBRANCH  10  12
TORSDOF 9
ENDMDL
MODEL 4
REMARK VINA RESULT:      -6.8     25.983     28.632
REMARK  Name = 75536625
REMARK  9 active torsions:
REMARK  status: ('A' for Active; 'I' for Inactive)
REMARK    1  A    between atoms: O_2  and  C_9
REMARK    2  A    between atoms: O_4  and  C_24
REMARK    3  A    between atoms: N_6  and  C_8
REMARK    4  A    between atoms: N_6  and  C_13
REMARK    5  A    between atoms: N_7  and  C_12
REMARK    6  A    between atoms: C_10  and  C_12
REMARK    7  A    between atoms: C_13  and  C_14
REMARK    8  A    between atoms: C_15  and  C_18
REMARK    9  A    between atoms: C_21  and  C_24
REMARK                            x       y       z     vdW  Elec       q    Type
REMARK                         _______ _______ _______ _____ _____    ______ ____
ROOT
ATOM      1  O   UNL     1      -3.790 -12.320  15.541  0.00  0.00    -0.371 OA
ATOM      8  C   UNL     1      -2.028 -11.149  14.479  0.00  0.00    +0.111 C 
ATOM      9  C   UNL     1      -2.209 -10.560  15.867  0.00  0.00    +0.164 C 
ATOM     10  C   UNL     1      -3.488 -11.204  16.400  0.00  0.00    +0.165 C 
ATOM     11  C   UNL     1      -2.704 -12.502  14.623  0.00  0.00    +0.181 C 
ENDROOT
BRANCH   9   2
ATOM      2  O   UNL     1      -1.104 -10.983  16.668  0.00  0.00    -0.388 OA
ATOM     29  H   UNL     1      -0.846 -10.231  17.227  0.00  0.00    +0.210 HD
ENDBRANCH   9   2
BRANCH   8   6
ATOM      6  N   UNL     1      -2.695 -10.343  13.460  0.00  0.00    -0.305 NA
ATOM     28  H   UNL     1      -3.617 -10.735  13.271  0.00  0.00    +0.123 HD
BRANCH   6  13
ATOM     13  C   UNL     1      -1.933 -10.333  12.216  0.00  0.00    +0.116 C 
BRANCH  13  14
ATOM     14  C   UNL     1      -2.832 -10.328  11.008  0.00  0.00    -0.034 A 
ATOM     16  C   UNL     1      -3.018  -9.153  10.280  0.00  0.00    +0.006 A 
ATOM     17  C   UNL     1      -3.480 -11.500  10.617  0.00  0.00    +0.006 A 
ATOM     19  C   UNL     1      -3.850  -9.149   9.161  0.00  0.00    +0.015 A 
ATOM     20  C   UNL     1      -4.312 -11.496   9.498  0.00  0.00    +0.015 A 
ATOM     21  C   UNL     1      -4.498 -10.321   8.770  0.00  0.00    +0.059 A 
BRANCH  21  24
ATOM      5  O   UNL     1      -5.672 -11.313   6.937  0.00  0.00    -0.245 OA
ATOM     24  C   UNL     1      -5.365 -10.318   7.602  0.00  0.00    +0.337 C 
BRANCH  24   4
ATOM      4  O   UNL     1      -5.823  -9.074   7.298  0.00  0.00    -0.477 OA
ATOM     31  H   UNL     1      -5.648  -8.433   8.022  0.00  0.00    +0.295 HD
ENDBRANCH  24   4
ENDBRANCH  21  24
ENDBRANCH  13  14
ENDBRANCH   6  13
ENDBRANCH   8   6
BRANCH  10  12
ATOM     12  C   UNL     1      -4.686 -10.268  16.403  0.00  0.00    +0.138 C 
BRANCH  12   7
ATOM      3  O   UNL     1      -7.024 -11.497  15.276  0.00  0.00    -0.270 OA
ATOM      7  N   UNL     1      -5.202 -10.075  15.078  0.00  0.00    -0.309 N 
ATOM     15  C   UNL     1      -6.347 -10.715  14.615  0.00  0.00    +0.244 C 
ATOM     30  H   UNL     1      -4.644  -9.504  14.452  0.00  0.00    +0.149 HD
BRANCH  15  18
ATOM     18  C   UNL     1      -6.735 -10.430  13.209  0.00  0.00    +0.037 A 
ATOM     22  C   UNL     1      -6.381  -9.216  12.620  0.00  0.00    +0.013 A 
ATOM     23  C   UNL     1      -7.451 -11.377  12.478  0.00  0.00    +0.013 A 
ATOM     25  C   UNL     1      -6.743  -8.950  11.299  0.00  0.00    +0.001 A 
ATOM     26  C   UNL     1      -7.813 -11.112  11.158  0.00  0.00    +0.001 A 
ATOM     27  C   UNL     1      -7.459  -9.897  10.568  0.00  0.00    +0.000 A 
ENDBRANCH  15  18
ENDBRANCH  12   7
ENDBRANCH  10  12
TORSDOF 9
ENDMDL
MODEL 5
REMARK VINA RESULT:      -6.8      2.011      2.730
REMARK  Name = 75536625
REMARK  9 active torsions:
REMARK  status: ('A' for Active; 'I' for Inactive)
REMARK    1  A    between atoms: O_2  and  C_9
REMARK    2  A    between atoms: O_4  and  C_24
REMARK    3  A    between atoms: N_6  and  C_8
REMARK    4  A    between atoms: N_6  and  C_13
REMARK    5  A    between atoms: N_7  and  C_12
REMARK    6  A    between atoms: C_10  and  C_12
REMARK    7  A    between atoms: C_13  and  C_14
REMARK    8  A    between atoms: C_15  and  C_18
REMARK    9  A    between atoms: C_21  and  C_24
REMARK                            x       y       z     vdW  Elec       q    Type
REMARK                         _______ _______ _______ _____ _____    ______ ____
ROOT
ATOM      1  O   UNL     1      14.006   9.080  19.691  0.00  0.00    -0.371 OA
ATOM      8  C   UNL     1      14.408   6.927  18.793  0.00  0.00    +0.111 C 
ATOM      9  C   UNL     1      13.024   6.921  19.418  0.00  0.00    +0.164 C 
ATOM     10  C   UNL     1      12.925   8.253  20.161  0.00  0.00    +0.165 C 
ATOM     11  C   UNL     1      14.657   8.414  18.602  0.00  0.00    +0.181 C 
ENDROOT
BRANCH   9   2
ATOM      2  O   UNL     1      12.066   6.905  18.358  0.00  0.00    -0.388 OA
ATOM     29  H   UNL     1      11.205   7.142  18.742  0.00  0.00    +0.210 HD
ENDBRANCH   9   2
BRANCH   8   6
ATOM      6  N   UNL     1      15.406   6.346  19.686  0.00  0.00    -0.305 NA
ATOM     28  H   UNL     1      15.560   6.976  20.473  0.00  0.00    +0.123 HD
BRANCH   6  13
ATOM     13  C   UNL     1      16.676   6.148  18.997  0.00  0.00    +0.116 C 
BRANCH  13  14
ATOM     14  C   UNL     1      17.842   6.183  19.949  0.00  0.00    -0.034 A 
ATOM     16  C   UNL     1      18.904   5.293  19.786  0.00  0.00    +0.006 A 
ATOM     17  C   UNL     1      17.861   7.106  20.994  0.00  0.00    +0.006 A 
ATOM     19  C   UNL     1      19.983   5.326  20.668  0.00  0.00    +0.015 A 
ATOM     20  C   UNL     1      18.941   7.139  21.877  0.00  0.00    +0.015 A 
ATOM     21  C   UNL     1      20.002   6.249  21.714  0.00  0.00    +0.059 A 
BRANCH  21  24
ATOM      5  O   UNL     1      21.648   5.298  23.166  0.00  0.00    -0.245 OA
ATOM     24  C   UNL     1      21.128   6.284  22.633  0.00  0.00    +0.337 C 
BRANCH  24   4
ATOM      4  O   UNL     1      21.572   7.550  22.862  0.00  0.00    -0.477 OA
ATOM     31  H   UNL     1      22.284   7.806  22.236  0.00  0.00    +0.295 HD
ENDBRANCH  24   4
ENDBRANCH  21  24
ENDBRANCH  13  14
ENDBRANCH   6  13
ENDBRANCH   8   6
BRANCH  10  12
ATOM     12  C   UNL     1      13.049   8.119  21.671  0.00  0.00    +0.138 C 
BRANCH  12   7
ATOM      3  O   UNL     1      10.399   8.999  22.338  0.00  0.00    -0.270 OA
ATOM      7  N   UNL     1      12.694   9.341  22.334  0.00  0.00    -0.309 N 
ATOM     15  C   UNL     1      11.376   9.687  22.619  0.00  0.00    +0.244 C 
ATOM     30  H   UNL     1      13.448   9.993  22.520  0.00  0.00    +0.149 HD
BRANCH  15  18
ATOM     18  C   UNL     1      11.173  10.999  23.286  0.00  0.00    +0.037 A 
ATOM     22  C   UNL     1      11.089  12.164  22.524  0.00  0.00    +0.013 A 
ATOM     23  C   UNL     1      11.064  11.065  24.675  0.00  0.00    +0.013 A 
ATOM     25  C   UNL     1      10.896  13.395  23.151  0.00  0.00    +0.001 A 
ATOM     26  C   UNL     1      10.871  12.295  25.302  0.00  0.00    +0.001 A 
ATOM     27  C   UNL     1      10.786  13.461  24.540  0.00  0.00    +0.000 A 
ENDBRANCH  15  18
ENDBRANCH  12   7
ENDBRANCH  10  12
TORSDOF 9
ENDMDL
MODEL 6
REMARK VINA RESULT:      -6.8      3.491      7.451
REMARK  Name = 75536625
REMARK  9 active torsions:
REMARK  status: ('A' for Active; 'I' for Inactive)
REMARK    1  A    between atoms: O_2  and  C_9
REMARK    2  A    between atoms: O_4  and  C_24
REMARK    3  A    between atoms: N_6  and  C_8
REMARK    4  A    between atoms: N_6  and  C_13
REMARK    5  A    between atoms: N_7  and  C_12
REMARK    6  A    between atoms: C_10  and  C_12
REMARK    7  A    between atoms: C_13  and  C_14
REMARK    8  A    between atoms: C_15  and  C_18
REMARK    9  A    between atoms: C_21  and  C_24
REMARK                            x       y       z     vdW  Elec       q    Type
REMARK                         _______ _______ _______ _____ _____    ______ ____
ROOT
ATOM      1  O   UNL     1      14.292   7.079  19.404  0.00  0.00    -0.371 OA
ATOM      8  C   UNL     1      13.224   7.930  21.337  0.00  0.00    +0.111 C 
ATOM      9  C   UNL     1      12.208   7.104  20.568  0.00  0.00    +0.164 C 
ATOM     10  C   UNL     1      12.894   6.777  19.242  0.00  0.00    +0.165 C 
ATOM     11  C   UNL     1      14.537   7.410  20.777  0.00  0.00    +0.181 C 
ENDROOT
BRANCH   9   2
ATOM      2  O   UNL     1      11.993   5.892  21.293  0.00  0.00    -0.388 OA
ATOM     29  H   UNL     1      11.043   5.690  21.246  0.00  0.00    +0.210 HD
ENDBRANCH   9   2
BRANCH   8   6
ATOM      6  N   UNL     1      13.074   9.357  21.066  0.00  0.00    -0.305 NA
ATOM     28  H   UNL     1      13.536   9.890  21.804  0.00  0.00    +0.123 HD
BRANCH   6  13
ATOM     13  C   UNL     1      11.667   9.741  21.032  0.00  0.00    +0.116 C 
BRANCH  13  14
ATOM     14  C   UNL     1      11.347  10.794  22.060  0.00  0.00    -0.034 A 
ATOM     16  C   UNL     1      11.287  12.137  21.689  0.00  0.00    +0.006 A 
ATOM     17  C   UNL     1      11.111  10.425  23.384  0.00  0.00    +0.006 A 
ATOM     19  C   UNL     1      10.991  13.111  22.641  0.00  0.00    +0.015 A 
ATOM     20  C   UNL     1      10.815  11.400  24.337  0.00  0.00    +0.015 A 
ATOM     21  C   UNL     1      10.755  12.743  23.966  0.00  0.00    +0.059 A 
BRANCH  21  24
ATOM      5  O   UNL     1      10.114  14.923  24.713  0.00  0.00    -0.245 OA
ATOM     24  C   UNL     1      10.444  13.758  24.959  0.00  0.00    +0.337 C 
BRANCH  24   4
ATOM      4  O   UNL     1      10.555  13.292  26.233  0.00  0.00    -0.477 OA
ATOM     31  H   UNL     1       9.722  13.410  26.739  0.00  0.00    +0.295 HD
ENDBRANCH  24   4
ENDBRANCH  21  24
ENDBRANCH  13  14
ENDBRANCH   6  13
ENDBRANCH   8   6
BRANCH  10  12
ATOM     12  C   UNL     1      12.365   7.585  18.067  0.00  0.00    +0.138 C 
BRANCH  12   7
ATOM      3  O   UNL     1      13.238   8.438  15.468  0.00  0.00    -0.270 OA
ATOM      7  N   UNL     1      13.219   8.700  17.773  0.00  0.00    -0.309 N 
ATOM     15  C   UNL     1      13.592   9.041  16.477  0.00  0.00    +0.244 C 
ATOM     30  H   UNL     1      13.615   9.191  18.567  0.00  0.00    +0.149 HD
BRANCH  15  18
ATOM     18  C   UNL     1      14.503  10.207  16.342  0.00  0.00    +0.037 A 
ATOM     22  C   UNL     1      14.818  10.980  17.460  0.00  0.00    +0.013 A 
ATOM     23  C   UNL     1      15.047  10.526  15.098  0.00  0.00    +0.013 A 
ATOM     25  C   UNL     1      15.676  12.072  17.333  0.00  0.00    +0.001 A 
ATOM     26  C   UNL     1      15.905  11.618  14.971  0.00  0.00    +0.001 A 
ATOM     27  C   UNL     1      16.220  12.392  16.089  0.00  0.00    +0.000 A 
ENDBRANCH  15  18
ENDBRANCH  12   7
ENDBRANCH  10  12
TORSDOF 9
ENDMDL
MODEL 7
REMARK VINA RESULT:      -6.8     26.832     29.107
REMARK  Name = 75536625
REMARK  9 active torsions:
REMARK  status: ('A' for Active; 'I' for Inactive)
REMARK    1  A    between atoms: O_2  and  C_9
REMARK    2  A    between atoms: O_4  and  C_24
REMARK    3  A    between atoms: N_6  and  C_8
REMARK    4  A    between atoms: N_6  and  C_13
REMARK    5  A    between atoms: N_7  and  C_12
REMARK    6  A    between atoms: C_10  and  C_12
REMARK    7  A    between atoms: C_13  and  C_14
REMARK    8  A    between atoms: C_15  and  C_18
REMARK    9  A    between atoms: C_21  and  C_24
REMARK                            x       y       z     vdW  Elec       q    Type
REMARK                         _______ _______ _______ _____ _____    ______ ____
ROOT
ATOM      1  O   UNL     1      -5.249 -11.154  10.923  0.00  0.00    -0.371 OA
ATOM      8  C   UNL     1      -6.564  -9.369  11.752  0.00  0.00    +0.111 C 
ATOM      9  C   UNL     1      -5.279  -8.782  11.196  0.00  0.00    +0.164 C 
ATOM     10  C   UNL     1      -4.399  -9.992  10.887  0.00  0.00    +0.165 C 
ATOM     11  C   UNL     1      -6.609 -10.725  11.069  0.00  0.00    +0.181 C 
ENDROOT
BRANCH   9   2
ATOM      2  O   UNL     1      -5.598  -8.113   9.974  0.00  0.00    -0.388 OA
ATOM     29  H   UNL     1      -4.909  -8.345   9.328  0.00  0.00    +0.210 HD
ENDBRANCH   9   2
BRANCH   8   6
ATOM      6  N   UNL     1      -6.504  -9.521  13.203  0.00  0.00    -0.305 NA
ATOM     28  H   UNL     1      -5.540  -9.711  13.481  0.00  0.00    +0.123 HD
BRANCH   6  13
ATOM     13  C   UNL     1      -7.340 -10.629  13.651  0.00  0.00    +0.116 C 
BRANCH  13  14
ATOM     14  C   UNL     1      -7.498 -10.644  15.148  0.00  0.00    -0.034 A 
ATOM     16  C   UNL     1      -8.211 -11.671  15.765  0.00  0.00    +0.006 A 
ATOM     17  C   UNL     1      -6.930  -9.629  15.918  0.00  0.00    +0.006 A 
ATOM     19  C   UNL     1      -8.356 -11.685  17.152  0.00  0.00    +0.015 A 
ATOM     20  C   UNL     1      -7.075  -9.642  17.306  0.00  0.00    +0.015 A 
ATOM     21  C   UNL     1      -7.789 -10.670  17.923  0.00  0.00    +0.059 A 
BRANCH  21  24
ATOM      5  O   UNL     1      -8.944 -11.060  19.980  0.00  0.00    -0.245 OA
ATOM     24  C   UNL     1      -7.939 -10.684  19.369  0.00  0.00    +0.337 C 
BRANCH  24   4
ATOM      4  O   UNL     1      -6.829 -10.227  20.011  0.00  0.00    -0.477 OA
ATOM     31  H   UNL     1      -6.261  -9.687  19.420  0.00  0.00    +0.295 HD
ENDBRANCH  24   4
ENDBRANCH  21  24
ENDBRANCH  13  14
ENDBRANCH   6  13
ENDBRANCH   8   6
BRANCH  10  12
ATOM     12  C   UNL     1      -3.271 -10.196  11.887  0.00  0.00    +0.138 C 
BRANCH  12   7
ATOM      3  O   UNL     1      -1.954 -10.192  14.439  0.00  0.00    -0.270 OA
ATOM      7  N   UNL     1      -3.751 -10.794  13.101  0.00  0.00    -0.309 N 
ATOM     15  C   UNL     1      -3.042 -10.742  14.297  0.00  0.00    +0.244 C 
ATOM     30  H   UNL     1      -4.606 -11.336  13.033  0.00  0.00    +0.149 HD
BRANCH  15  18
ATOM     18  C   UNL     1      -3.662 -11.432  15.457  0.00  0.00    +0.037 A 
ATOM     22  C   UNL     1      -3.523 -10.904  16.740  0.00  0.00    +0.013 A 
ATOM     23  C   UNL     1      -4.386 -12.608  15.262  0.00  0.00    +0.013 A 
ATOM     25  C   UNL     1      -4.108 -11.552  17.829  0.00  0.00    +0.001 A 
ATOM     26  C   UNL     1      -4.971 -13.256  16.349  0.00  0.00    +0.001 A 
ATOM     27  C   UNL     1      -4.832 -12.728  17.634  0.00  0.00    +0.000 A 
ENDBRANCH  15  18
ENDBRANCH  12   7
ENDBRANCH  10  12
TORSDOF 9
ENDMDL
MODEL 8
REMARK VINA RESULT:      -6.7     14.478     17.076
REMARK  Name = 75536625
REMARK  9 active torsions:
REMARK  status: ('A' for Active; 'I' for Inactive)
REMARK    1  A    between atoms: O_2  and  C_9
REMARK    2  A    between atoms: O_4  and  C_24
REMARK    3  A    between atoms: N_6  and  C_8
REMARK    4  A    between atoms: N_6  and  C_13
REMARK    5  A    between atoms: N_7  and  C_12
REMARK    6  A    between atoms: C_10  and  C_12
REMARK    7  A    between atoms: C_13  and  C_14
REMARK    8  A    between atoms: C_15  and  C_18
REMARK    9  A    between atoms: C_21  and  C_24
REMARK                            x       y       z     vdW  Elec       q    Type
REMARK                         _______ _______ _______ _____ _____    ______ ____
ROOT
ATOM      1  O   UNL     1      14.042   9.231   6.513  0.00  0.00    -0.371 OA
ATOM      8  C   UNL     1      12.256   7.679   6.561  0.00  0.00    +0.111 C 
ATOM      9  C   UNL     1      13.548   6.898   6.396  0.00  0.00    +0.164 C 
ATOM     10  C   UNL     1      14.618   7.962   6.153  0.00  0.00    +0.165 C 
ATOM     11  C   UNL     1      12.759   9.003   7.110  0.00  0.00    +0.181 C 
ENDROOT
BRANCH   9   2
ATOM      2  O   UNL     1      13.819   6.238   7.633  0.00  0.00    -0.388 OA
ATOM     29  H   UNL     1      14.756   6.390   7.845  0.00  0.00    +0.210 HD
ENDBRANCH   9   2
BRANCH   8   6
ATOM      6  N   UNL     1      11.576   7.873   5.283  0.00  0.00    -0.305 NA
ATOM     28  H   UNL     1      11.347   8.860   5.171  0.00  0.00    +0.123 HD
BRANCH   6  13
ATOM     13  C   UNL     1      10.340   7.102   5.223  0.00  0.00    +0.116 C 
BRANCH  13  14
ATOM     14  C   UNL     1      10.013   6.462   6.546  0.00  0.00    -0.034 A 
ATOM     16  C   UNL     1      10.294   5.112   6.758  0.00  0.00    +0.006 A 
ATOM     17  C   UNL     1       9.429   7.220   7.561  0.00  0.00    +0.006 A 
ATOM     19  C   UNL     1       9.991   4.520   7.984  0.00  0.00    +0.015 A 
ATOM     20  C   UNL     1       9.126   6.628   8.788  0.00  0.00    +0.015 A 
ATOM     21  C   UNL     1       9.407   5.278   8.999  0.00  0.00    +0.059 A 
BRANCH  21  24
ATOM      5  O   UNL     1       7.966   4.590  10.780  0.00  0.00    -0.245 OA
ATOM     24  C   UNL     1       9.093   4.662  10.278  0.00  0.00    +0.337 C 
BRANCH  24   4
ATOM      4  O   UNL     1      10.194   4.154  10.895  0.00  0.00    -0.477 OA
ATOM     31  H   UNL     1      10.724   3.591  10.290  0.00  0.00    +0.295 HD
ENDBRANCH  24   4
ENDBRANCH  21  24
ENDBRANCH  13  14
ENDBRANCH   6  13
ENDBRANCH   8   6
BRANCH  10  12
ATOM     12  C   UNL     1      15.080   8.041   4.706  0.00  0.00    +0.138 C 
BRANCH  12   7
ATOM      3  O   UNL     1      13.188   7.882   2.551  0.00  0.00    -0.270 OA
ATOM      7  N   UNL     1      14.711   6.863   3.975  0.00  0.00    -0.309 N 
ATOM     15  C   UNL     1      13.781   6.879   2.940  0.00  0.00    +0.244 C 
ATOM     30  H   UNL     1      15.102   5.985   4.300  0.00  0.00    +0.149 HD
BRANCH  15  18
ATOM     18  C   UNL     1      13.488   5.570   2.301  0.00  0.00    +0.037 A 
ATOM     22  C   UNL     1      14.519   4.830   1.722  0.00  0.00    +0.013 A 
ATOM     23  C   UNL     1      12.183   5.080   2.281  0.00  0.00    +0.013 A 
ATOM     25  C   UNL     1      14.244   3.600   1.124  0.00  0.00    +0.001 A 
ATOM     26  C   UNL     1      11.907   3.851   1.684  0.00  0.00    +0.001 A 
ATOM     27  C   UNL     1      12.939   3.110   1.105  0.00  0.00    +0.000 A 
ENDBRANCH  15  18
ENDBRANCH  12   7
ENDBRANCH  10  12
TORSDOF 9
ENDMDL
MODEL 9
REMARK VINA RESULT:      -6.6     26.909     29.596
REMARK  Name = 75536625
REMARK  9 active torsions:
REMARK  status: ('A' for Active; 'I' for Inactive)
REMARK    1  A    between atoms: O_2  and  C_9
REMARK    2  A    between atoms: O_4  and  C_24
REMARK    3  A    between atoms: N_6  and  C_8
REMARK    4  A    between atoms: N_6  and  C_13
REMARK    5  A    between atoms: N_7  and  C_12
REMARK    6  A    between atoms: C_10  and  C_12
REMARK    7  A    between atoms: C_13  and  C_14
REMARK    8  A    between atoms: C_15  and  C_18
REMARK    9  A    between atoms: C_21  and  C_24
REMARK                            x       y       z     vdW  Elec       q    Type
REMARK                         _______ _______ _______ _____ _____    ______ ____
ROOT
ATOM      1  O   UNL     1     -11.023 -11.707  18.102  0.00  0.00    -0.371 OA
ATOM      8  C   UNL     1      -9.792 -11.331  20.089  0.00  0.00    +0.111 C 
ATOM      9  C   UNL     1     -10.766 -10.179  19.918  0.00  0.00    +0.164 C 
ATOM     10  C   UNL     1     -11.360 -10.372  18.524  0.00  0.00    +0.165 C 
ATOM     11  C   UNL     1     -10.411 -12.397  19.199  0.00  0.00    +0.181 C 
ENDROOT
BRANCH   9   2
ATOM      2  O   UNL     1     -11.801 -10.335  20.891  0.00  0.00    -0.388 OA
ATOM     29  H   UNL     1     -12.281  -9.491  20.943  0.00  0.00    +0.210 HD
ENDBRANCH   9   2
BRANCH   8   6
ATOM      6  N   UNL     1      -8.454 -10.980  19.621  0.00  0.00    -0.305 NA
ATOM     28  H   UNL     1      -8.522 -10.554  18.697  0.00  0.00    +0.123 HD
BRANCH   6  13
ATOM     13  C   UNL     1      -7.604 -12.161  19.524  0.00  0.00    +0.116 C 
BRANCH  13  14
ATOM     14  C   UNL     1      -6.378 -11.903  18.689  0.00  0.00    -0.034 A 
ATOM     16  C   UNL     1      -5.726 -10.672  18.766  0.00  0.00    +0.006 A 
ATOM     17  C   UNL     1      -5.893 -12.896  17.837  0.00  0.00    +0.006 A 
ATOM     19  C   UNL     1      -4.591 -10.434  17.993  0.00  0.00    +0.015 A 
ATOM     20  C   UNL     1      -4.757 -12.658  17.063  0.00  0.00    +0.015 A 
ATOM     21  C   UNL     1      -4.106 -11.427  17.141  0.00  0.00    +0.059 A 
BRANCH  21  24
ATOM      5  O   UNL     1      -2.899 -11.094  15.103  0.00  0.00    -0.245 OA
ATOM     24  C   UNL     1      -2.921 -11.179  16.335  0.00  0.00    +0.337 C 
BRANCH  24   4
ATOM      4  O   UNL     1      -1.797 -11.047  17.090  0.00  0.00    -0.477 OA
ATOM     31  H   UNL     1      -1.768 -10.180  17.552  0.00  0.00    +0.295 HD
ENDBRANCH  24   4
ENDBRANCH  21  24
ENDBRANCH  13  14
ENDBRANCH   6  13
ENDBRANCH   8   6
BRANCH  10  12
ATOM     12  C   UNL     1     -10.818  -9.396  17.491  0.00  0.00    +0.138 C 
BRANCH  12   7
ATOM      3  O   UNL     1      -8.011  -8.842  17.237  0.00  0.00    -0.270 OA
ATOM      7  N   UNL     1      -9.895 -10.038  16.599  0.00  0.00    -0.309 N 
ATOM     15  C   UNL     1      -8.545  -9.704  16.544  0.00  0.00    +0.244 C 
ATOM     30  H   UNL     1     -10.287 -10.702  15.939  0.00  0.00    +0.149 HD
BRANCH  15  18
ATOM     18  C   UNL     1      -7.727 -10.443  15.547  0.00  0.00    +0.037 A 
ATOM     22  C   UNL     1      -6.650  -9.814  14.925  0.00  0.00    +0.013 A 
ATOM     23  C   UNL     1      -8.036 -11.767  15.237  0.00  0.00    +0.013 A 
ATOM     25  C   UNL     1      -5.880 -10.509  13.991  0.00  0.00    +0.001 A 
ATOM     26  C   UNL     1      -7.268 -12.462  14.303  0.00  0.00    +0.001 A 
ATOM     27  C   UNL     1      -6.189 -11.833  13.680  0.00  0.00    +0.000 A 
ENDBRANCH  15  18
ENDBRANCH  12   7
ENDBRANCH  10  12
TORSDOF 9
ENDMDL
MODEL 10
REMARK VINA RESULT:      -6.6     26.523     29.423
REMARK  Name = 75536625
REMARK  9 active torsions:
REMARK  status: ('A' for Active; 'I' for Inactive)
REMARK    1  A    between atoms: O_2  and  C_9
REMARK    2  A    between atoms: O_4  and  C_24
REMARK    3  A    between atoms: N_6  and  C_8
REMARK    4  A    between atoms: N_6  and  C_13
REMARK    5  A    between atoms: N_7  and  C_12
REMARK    6  A    between atoms: C_10  and  C_12
REMARK    7  A    between atoms: C_13  and  C_14
REMARK    8  A    between atoms: C_15  and  C_18
REMARK    9  A    between atoms: C_21  and  C_24
REMARK                            x       y       z     vdW  Elec       q    Type
REMARK                         _______ _______ _______ _____ _____    ______ ____
ROOT
ATOM      1  O   UNL     1      -2.463 -12.792  14.832  0.00  0.00    -0.371 OA
ATOM      8  C   UNL     1      -4.018 -11.588  13.514  0.00  0.00    +0.111 C 
ATOM      9  C   UNL     1      -2.973 -10.607  14.016  0.00  0.00    +0.164 C 
ATOM     10  C   UNL     1      -2.145 -11.401  15.025  0.00  0.00    +0.165 C 
ATOM     11  C   UNL     1      -3.300 -12.917  13.675  0.00  0.00    +0.181 C 
ENDROOT
BRANCH   9   2
ATOM      2  O   UNL     1      -2.143 -10.248  12.910  0.00  0.00    -0.388 OA
ATOM     29  H   UNL     1      -1.889 -11.072  12.459  0.00  0.00    +0.210 HD
ENDBRANCH   9   2
BRANCH   8   6
ATOM      6  N   UNL     1      -5.229 -11.551  14.329  0.00  0.00    -0.305 NA
ATOM     28  H   UNL     1      -5.958 -12.101  13.874  0.00  0.00    +0.123 HD
BRANCH   6  13
ATOM     13  C   UNL     1      -5.713 -10.185  14.489  0.00  0.00    +0.116 C 
BRANCH  13  14
ATOM     14  C   UNL     1      -6.881 -10.111  15.437  0.00  0.00    -0.034 A 
ATOM     16  C   UNL     1      -8.058 -10.801  15.149  0.00  0.00    +0.006 A 
ATOM     17  C   UNL     1      -6.785  -9.351  16.603  0.00  0.00    +0.006 A 
ATOM     19  C   UNL     1      -9.139 -10.732  16.027  0.00  0.00    +0.015 A 
ATOM     20  C   UNL     1      -7.866  -9.282  17.481  0.00  0.00    +0.015 A 
ATOM     21  C   UNL     1      -9.044  -9.972  17.194  0.00  0.00    +0.059 A 
BRANCH  21  24
ATOM      5  O   UNL     1     -11.359  -9.834  17.779  0.00  0.00    -0.245 OA
ATOM     24  C   UNL     1     -10.170  -9.901  18.110  0.00  0.00    +0.337 C 
BRANCH  24   4
ATOM      4  O   UNL     1      -9.781  -9.915  19.414  0.00  0.00    -0.477 OA
ATOM     31  H   UNL     1     -10.471 -10.303  19.996  0.00  0.00    +0.295 HD
ENDBRANCH  24   4
ENDBRANCH  21  24
ENDBRANCH  13  14
ENDBRANCH   6  13
ENDBRANCH   8   6
BRANCH  10  12
ATOM     12  C   UNL     1      -2.439 -11.041  16.473  0.00  0.00    +0.138 C 
BRANCH  12   7
ATOM      3  O   UNL     1      -3.279 -11.828  19.104  0.00  0.00    -0.270 OA
ATOM      7  N   UNL     1      -3.753 -11.470  16.861  0.00  0.00    -0.309 N 
ATOM     15  C   UNL     1      -4.071 -11.834  18.166  0.00  0.00    +0.244 C 
ATOM     30  H   UNL     1      -4.434 -11.577  16.117  0.00  0.00    +0.149 HD
BRANCH  15  18
ATOM     18  C   UNL     1      -5.468 -12.281  18.399  0.00  0.00    +0.037 A 
ATOM     22  C   UNL     1      -6.156 -11.858  19.537  0.00  0.00    +0.013 A 
ATOM     23  C   UNL     1      -6.094 -13.121  17.479  0.00  0.00    +0.013 A 
ATOM     25  C   UNL     1      -7.469 -12.276  19.754  0.00  0.00    +0.001 A 
ATOM     26  C   UNL     1      -7.406 -13.539  17.696  0.00  0.00    +0.001 A 
ATOM     27  C   UNL     1      -8.094 -13.117  18.834  0.00  0.00    +0.000 A 
ENDBRANCH  15  18
ENDBRANCH  12   7
ENDBRANCH  10  12
TORSDOF 9
ENDMDL
