MODEL 1
REMARK VINA RESULT:      -7.3      0.000      0.000
REMARK  Name = 45361543
REMARK  10 active torsions:
REMARK  status: ('A' for Active; 'I' for Inactive)
REMARK    1  A    between atoms: O_1  and  C_12
REMARK    2  A    between atoms: N_5  and  C_16
REMARK    3  A    between atoms: N_6  and  C_26
REMARK    4  A    between atoms: C_9  and  C_19
REMARK    5  A    between atoms: C_11  and  C_21
REMARK    6  A    between atoms: C_15  and  C_20
REMARK    7  A    between atoms: C_20  and  C_22
REMARK    8  A    between atoms: C_20  and  C_23
REMARK    9  A    between atoms: C_24  and  C_25
REMARK   10  A    between atoms: C_26  and  C_28
REMARK                            x       y       z     vdW  Elec       q    Type
REMARK                         _______ _______ _______ _____ _____    ______ ____
ROOT
ATOM      9  C   UNL     1     -16.618   6.490  22.789  0.00  0.00    -0.027 C 
ATOM     10  C   UNL     1     -15.176   5.934  23.029  0.00  0.00    +0.028 C 
ATOM     11  C   UNL     1     -14.290   6.106  21.742  0.00  0.00    +0.012 C 
ATOM     12  C   UNL     1     -15.216   4.498  23.625  0.00  0.00    +0.122 C 
ATOM     13  C   UNL     1     -17.427   6.410  24.105  0.00  0.00    +0.007 C 
ATOM     14  C   UNL     1     -16.525   7.979  22.385  0.00  0.00    +0.009 C 
ATOM     15  C   UNL     1     -16.111   4.401  24.882  0.00  0.00    +0.029 C 
ATOM     16  C   UNL     1     -14.264   7.596  21.301  0.00  0.00    +0.076 C 
ATOM     17  C   UNL     1     -17.503   4.999  24.672  0.00  0.00    +0.007 C 
ATOM     18  C   UNL     1     -15.655   8.212  21.157  0.00  0.00    +0.023 C 
ATOM     19  C   UNL     1     -17.380   5.711  21.688  0.00  0.00    +0.011 C 
ATOM     21  C   UNL     1     -12.846   5.605  21.917  0.00  0.00    +0.010 C 
ENDROOT
BRANCH  16   5
ATOM      3  O   UNL     1     -12.065   9.380  20.820  0.00  0.00    -0.268 OA
ATOM      5  N   UNL     1     -13.552   7.774  20.053  0.00  0.00    -0.307 N 
ATOM     24  C   UNL     1     -12.500   8.664  19.921  0.00  0.00    +0.264 C 
ATOM     34  H   UNL     1     -13.878   7.266  19.235  0.00  0.00    +0.149 HD
BRANCH  24  25
ATOM      7  N   UNL     1     -10.624   9.200  18.502  0.00  0.00    -0.247 NA
ATOM      8  N   UNL     1     -12.055   8.455  16.209  0.00  0.00    -0.259 NA
ATOM     25  C   UNL     1     -11.892   8.748  18.568  0.00  0.00    +0.143 A 
ATOM     27  C   UNL     1     -12.594   8.382  17.441  0.00  0.00    +0.143 A 
ATOM     29  C   UNL     1     -10.084   9.274  17.270  0.00  0.00    +0.131 A 
ATOM     31  C   UNL     1     -10.787   8.908  16.143  0.00  0.00    +0.130 A 
ENDBRANCH  24  25
ENDBRANCH  16   5
BRANCH  12   1
ATOM      1  O   UNL     1     -13.902   4.111  24.029  0.00  0.00    -0.391 OA
ATOM     35  H   UNL     1     -13.934   3.181  24.310  0.00  0.00    +0.210 HD
ENDBRANCH  12   1
BRANCH  15  20
ATOM     20  C   UNL     1     -16.243   2.956  25.378  0.00  0.00    +0.077 C 
ATOM     22  C   UNL     1     -17.360   2.243  24.622  0.00  0.00    +0.017 C 
BRANCH  20  23
ATOM      2  O   UNL     1     -17.586   2.664  27.372  0.00  0.00    -0.276 OA
ATOM      6  N   UNL     1     -15.362   3.278  27.613  0.00  0.00    -0.308 N 
ATOM     23  C   UNL     1     -16.494   2.943  26.882  0.00  0.00    +0.217 C 
ATOM     36  H   UNL     1     -14.506   3.522  27.123  0.00  0.00    +0.149 HD
BRANCH   6  26
ATOM     26  C   UNL     1     -15.352   3.335  29.056  0.00  0.00    +0.178 C 
BRANCH  26  28
ATOM      4  O   UNL     1     -13.765   1.750  29.992  0.00  0.00    -0.466 OA
ATOM     28  C   UNL     1     -15.061   1.995  29.669  0.00  0.00    +0.122 A 
ATOM     30  C   UNL     1     -15.852   0.917  29.989  0.00  0.00    +0.046 A 
ATOM     32  C   UNL     1     -14.985  -0.054  30.546  0.00  0.00    +0.041 A 
ATOM     33  C   UNL     1     -13.727   0.500  30.525  0.00  0.00    +0.195 A 
ENDBRANCH  26  28
ENDBRANCH   6  26
ENDBRANCH  20  23
ENDBRANCH  15  20
TORSDOF 7
ENDMDL
MODEL 2
REMARK VINA RESULT:      -7.0      2.594     10.920
REMARK  Name = 45361543
REMARK  10 active torsions:
REMARK  status: ('A' for Active; 'I' for Inactive)
REMARK    1  A    between atoms: O_1  and  C_12
REMARK    2  A    between atoms: N_5  and  C_16
REMARK    3  A    between atoms: N_6  and  C_26
REMARK    4  A    between atoms: C_9  and  C_19
REMARK    5  A    between atoms: C_11  and  C_21
REMARK    6  A    between atoms: C_15  and  C_20
REMARK    7  A    between atoms: C_20  and  C_22
REMARK    8  A    between atoms: C_20  and  C_23
REMARK    9  A    between atoms: C_24  and  C_25
REMARK   10  A    between atoms: C_26  and  C_28
REMARK                            x       y       z     vdW  Elec       q    Type
REMARK                         _______ _______ _______ _____ _____    ______ ____
ROOT
ATOM      9  C   UNL     1     -15.012   7.591  20.554  0.00  0.00    -0.027 C 
ATOM     10  C   UNL     1     -13.782   6.670  20.852  0.00  0.00    +0.028 C 
ATOM     11  C   UNL     1     -13.968   5.915  22.218  0.00  0.00    +0.012 C 
ATOM     12  C   UNL     1     -12.444   7.447  20.696  0.00  0.00    +0.122 C 
ATOM     13  C   UNL     1     -14.849   8.230  19.154  0.00  0.00    +0.007 C 
ATOM     14  C   UNL     1     -16.295   6.729  20.531  0.00  0.00    +0.009 C 
ATOM     15  C   UNL     1     -12.333   8.171  19.334  0.00  0.00    +0.029 C 
ATOM     16  C   UNL     1     -15.299   5.111  22.211  0.00  0.00    +0.076 C 
ATOM     17  C   UNL     1     -13.559   9.025  19.010  0.00  0.00    +0.007 C 
ATOM     18  C   UNL     1     -16.515   5.950  21.820  0.00  0.00    +0.023 C 
ATOM     19  C   UNL     1     -15.176   8.721  21.601  0.00  0.00    +0.011 C 
ATOM     21  C   UNL     1     -12.807   4.967  22.561  0.00  0.00    +0.010 C 
ENDROOT
BRANCH  16   5
ATOM      3  O   UNL     1     -16.454   2.522  22.670  0.00  0.00    -0.268 OA
ATOM      5  N   UNL     1     -15.560   4.496  23.496  0.00  0.00    -0.307 N 
ATOM     24  C   UNL     1     -16.123   3.237  23.612  0.00  0.00    +0.264 C 
ATOM     34  H   UNL     1     -15.373   5.036  24.336  0.00  0.00    +0.149 HD
BRANCH  24  25
ATOM      7  N   UNL     1     -16.558   1.436  25.158  0.00  0.00    -0.247 NA
ATOM      8  N   UNL     1     -16.558   3.207  27.332  0.00  0.00    -0.259 NA
ATOM     25  C   UNL     1     -16.351   2.758  25.001  0.00  0.00    +0.143 A 
ATOM     27  C   UNL     1     -16.351   3.628  26.069  0.00  0.00    +0.143 A 
ATOM     29  C   UNL     1     -16.766   1.014  26.421  0.00  0.00    +0.131 A 
ATOM     31  C   UNL     1     -16.766   1.884  27.489  0.00  0.00    +0.130 A 
ENDBRANCH  24  25
ENDBRANCH  16   5
BRANCH  12   1
ATOM      1  O   UNL     1     -11.349   6.532  20.762  0.00  0.00    -0.391 OA
ATOM     35  H   UNL     1     -11.055   6.481  21.688  0.00  0.00    +0.210 HD
ENDBRANCH  12   1
BRANCH  15  20
ATOM     20  C   UNL     1     -11.069   9.036  19.250  0.00  0.00    +0.077 C 
ATOM     22  C   UNL     1     -11.303  10.374  19.944  0.00  0.00    +0.017 C 
BRANCH  20  23
ATOM      2  O   UNL     1     -10.203  10.284  17.364  0.00  0.00    -0.276 OA
ATOM      6  N   UNL     1     -10.882   8.092  17.026  0.00  0.00    -0.308 N 
ATOM     23  C   UNL     1     -10.666   9.228  17.792  0.00  0.00    +0.217 C 
ATOM     36  H   UNL     1     -11.297   7.270  17.458  0.00  0.00    +0.149 HD
BRANCH   6  26
ATOM     26  C   UNL     1     -10.579   8.031  15.615  0.00  0.00    +0.178 C 
BRANCH  26  28
ATOM      4  O   UNL     1     -11.561   8.542  13.451  0.00  0.00    -0.466 OA
ATOM     28  C   UNL     1     -11.790   8.302  14.769  0.00  0.00    +0.122 A 
ATOM     30  C   UNL     1     -13.136   8.363  15.046  0.00  0.00    +0.046 A 
ATOM     32  C   UNL     1     -13.775   8.659  13.818  0.00  0.00    +0.041 A 
ATOM     33  C   UNL     1     -12.776   8.758  12.880  0.00  0.00    +0.195 A 
ENDBRANCH  26  28
ENDBRANCH   6  26
ENDBRANCH  20  23
ENDBRANCH  15  20
TORSDOF 7
ENDMDL
MODEL 3
REMARK VINA RESULT:      -6.9     27.849     32.883
REMARK  Name = 45361543
REMARK  10 active torsions:
REMARK  status: ('A' for Active; 'I' for Inactive)
REMARK    1  A    between atoms: O_1  and  C_12
REMARK    2  A    between atoms: N_5  and  C_16
REMARK    3  A    between atoms: N_6  and  C_26
REMARK    4  A    between atoms: C_9  and  C_19
REMARK    5  A    between atoms: C_11  and  C_21
REMARK    6  A    between atoms: C_15  and  C_20
REMARK    7  A    between atoms: C_20  and  C_22
REMARK    8  A    between atoms: C_20  and  C_23
REMARK    9  A    between atoms: C_24  and  C_25
REMARK   10  A    between atoms: C_26  and  C_28
REMARK                            x       y       z     vdW  Elec       q    Type
REMARK                         _______ _______ _______ _____ _____    ______ ____
ROOT
ATOM      9  C   UNL     1       9.414   6.111   6.156  0.00  0.00    -0.027 C 
ATOM     10  C   UNL     1      10.453   7.190   5.706  0.00  0.00    +0.028 C 
ATOM     11  C   UNL     1       9.980   8.629   6.125  0.00  0.00    +0.012 C 
ATOM     12  C   UNL     1      10.829   7.021   4.206  0.00  0.00    +0.122 C 
ATOM     13  C   UNL     1       9.962   4.700   5.831  0.00  0.00    +0.007 C 
ATOM     14  C   UNL     1       9.225   6.199   7.688  0.00  0.00    +0.009 C 
ATOM     15  C   UNL     1      11.277   5.581   3.865  0.00  0.00    +0.029 C 
ATOM     16  C   UNL     1       9.721   8.686   7.657  0.00  0.00    +0.076 C 
ATOM     17  C   UNL     1      10.294   4.518   4.356  0.00  0.00    +0.007 C 
ATOM     18  C   UNL     1       8.792   7.581   8.158  0.00  0.00    +0.023 C 
ATOM     19  C   UNL     1       8.040   6.283   5.463  0.00  0.00    +0.011 C 
ATOM     21  C   UNL     1      10.971   9.740   5.739  0.00  0.00    +0.010 C 
ENDROOT
BRANCH  16   5
ATOM      3  O   UNL     1      10.990  10.644   9.332  0.00  0.00    -0.268 OA
ATOM      5  N   UNL     1       9.174   9.964   8.061  0.00  0.00    -0.307 N 
ATOM     24  C   UNL     1       9.867  10.842   8.875  0.00  0.00    +0.264 C 
ATOM     34  H   UNL     1       8.224  10.192   7.780  0.00  0.00    +0.149 HD
BRANCH  24  25
ATOM      7  N   UNL     1       8.412  12.086  10.344  0.00  0.00    -0.247 NA
ATOM      8  N   UNL     1       8.615  14.368   8.728  0.00  0.00    -0.259 NA
ATOM     25  C   UNL     1       9.156  12.101   9.220  0.00  0.00    +0.143 A 
ATOM     27  C   UNL     1       9.256  13.222   8.427  0.00  0.00    +0.143 A 
ATOM     29  C   UNL     1       7.770  13.232  10.644  0.00  0.00    +0.131 A 
ATOM     31  C   UNL     1       7.869  14.353   9.851  0.00  0.00    +0.130 A 
ENDBRANCH  24  25
ENDBRANCH  16   5
BRANCH  12   1
ATOM      1  O   UNL     1      11.929   7.876   3.890  0.00  0.00    -0.391 OA
ATOM     35  H   UNL     1      11.684   8.408   3.114  0.00  0.00    +0.210 HD
ENDBRANCH  12   1
BRANCH  15  20
ATOM     20  C   UNL     1      11.518   5.400   2.361  0.00  0.00    +0.077 C 
ATOM     22  C   UNL     1      10.743   4.190   1.848  0.00  0.00    +0.017 C 
BRANCH  20  23
ATOM      2  O   UNL     1      13.783   6.219   2.116  0.00  0.00    -0.276 OA
ATOM      6  N   UNL     1      13.382   3.956   1.805  0.00  0.00    -0.308 N 
ATOM     23  C   UNL     1      13.011   5.263   2.086  0.00  0.00    +0.217 C 
ATOM     36  H   UNL     1      12.671   3.230   1.773  0.00  0.00    +0.149 HD
BRANCH   6  26
ATOM     26  C   UNL     1      14.744   3.576   1.510  0.00  0.00    +0.178 C 
BRANCH  26  28
ATOM      4  O   UNL     1      14.161   3.944  -0.821  0.00  0.00    -0.466 OA
ATOM     28  C   UNL     1      15.145   3.961   0.115  0.00  0.00    +0.122 A 
ATOM     30  C   UNL     1      16.341   4.344  -0.448  0.00  0.00    +0.046 A 
ATOM     32  C   UNL     1      16.072   4.577  -1.818  0.00  0.00    +0.041 A 
ATOM     33  C   UNL     1      14.734   4.320  -1.995  0.00  0.00    +0.195 A 
ENDBRANCH  26  28
ENDBRANCH   6  26
ENDBRANCH  20  23
ENDBRANCH  15  20
TORSDOF 7
ENDMDL
MODEL 4
REMARK VINA RESULT:      -6.8      3.955     12.322
REMARK  Name = 45361543
REMARK  10 active torsions:
REMARK  status: ('A' for Active; 'I' for Inactive)
REMARK    1  A    between atoms: O_1  and  C_12
REMARK    2  A    between atoms: N_5  and  C_16
REMARK    3  A    between atoms: N_6  and  C_26
REMARK    4  A    between atoms: C_9  and  C_19
REMARK    5  A    between atoms: C_11  and  C_21
REMARK    6  A    between atoms: C_15  and  C_20
REMARK    7  A    between atoms: C_20  and  C_22
REMARK    8  A    between atoms: C_20  and  C_23
REMARK    9  A    between atoms: C_24  and  C_25
REMARK   10  A    between atoms: C_26  and  C_28
REMARK                            x       y       z     vdW  Elec       q    Type
REMARK                         _______ _______ _______ _____ _____    ______ ____
ROOT
ATOM      9  C   UNL     1     -11.233   8.412  19.015  0.00  0.00    -0.027 C 
ATOM     10  C   UNL     1     -12.675   9.006  18.898  0.00  0.00    +0.028 C 
ATOM     11  C   UNL     1     -13.756   7.928  19.271  0.00  0.00    +0.012 C 
ATOM     12  C   UNL     1     -12.885   9.715  17.529  0.00  0.00    +0.122 C 
ATOM     13  C   UNL     1     -10.193   9.528  18.752  0.00  0.00    +0.007 C 
ATOM     14  C   UNL     1     -11.014   7.897  20.456  0.00  0.00    +0.009 C 
ATOM     15  C   UNL     1     -11.783  10.756  17.224  0.00  0.00    +0.029 C 
ATOM     16  C   UNL     1     -13.482   7.362  20.693  0.00  0.00    +0.076 C 
ATOM     17  C   UNL     1     -10.370  10.198  17.396  0.00  0.00    +0.007 C 
ATOM     18  C   UNL     1     -12.049   6.867  20.885  0.00  0.00    +0.023 C 
ATOM     19  C   UNL     1     -10.983   7.255  18.016  0.00  0.00    +0.011 C 
ATOM     21  C   UNL     1     -15.199   8.453  19.205  0.00  0.00    +0.010 C 
ENDROOT
BRANCH  16   5
ATOM      3  O   UNL     1     -14.896   7.008  23.168  0.00  0.00    -0.268 OA
ATOM      5  N   UNL     1     -14.389   6.283  21.024  0.00  0.00    -0.307 N 
ATOM     24  C   UNL     1     -15.024   6.201  22.251  0.00  0.00    +0.264 C 
ATOM     34  H   UNL     1     -14.514   5.534  20.349  0.00  0.00    +0.149 HD
BRANCH  24  25
ATOM      7  N   UNL     1     -15.618   4.217  23.490  0.00  0.00    -0.247 NA
ATOM      8  N   UNL     1     -17.758   3.689  21.757  0.00  0.00    -0.259 NA
ATOM     25  C   UNL     1     -15.903   5.018  22.444  0.00  0.00    +0.143 A 
ATOM     27  C   UNL     1     -16.955   4.758  21.593  0.00  0.00    +0.143 A 
ATOM     29  C   UNL     1     -16.420   3.147  23.653  0.00  0.00    +0.131 A 
ATOM     31  C   UNL     1     -17.471   2.887  22.802  0.00  0.00    +0.130 A 
ENDBRANCH  24  25
ENDBRANCH  16   5
BRANCH  12   1
ATOM      1  O   UNL     1     -14.124  10.425  17.543  0.00  0.00    -0.391 OA
ATOM     35  H   UNL     1     -14.195  10.892  18.393  0.00  0.00    +0.210 HD
ENDBRANCH  12   1
BRANCH  15  20
ATOM     20  C   UNL     1     -11.932  11.349  15.817  0.00  0.00    +0.077 C 
ATOM     22  C   UNL     1     -11.427  10.356  14.774  0.00  0.00    +0.017 C 
BRANCH  20  23
ATOM      2  O   UNL     1     -11.365  13.592  16.528  0.00  0.00    -0.276 OA
ATOM      6  N   UNL     1     -10.299  12.718  14.663  0.00  0.00    -0.308 N 
ATOM     23  C   UNL     1     -11.185  12.675  15.730  0.00  0.00    +0.217 C 
ATOM     36  H   UNL     1     -10.236  11.922  14.034  0.00  0.00    +0.149 HD
BRANCH   6  26
ATOM     26  C   UNL     1      -9.479  13.872  14.373  0.00  0.00    +0.178 C 
BRANCH  26  28
ATOM      4  O   UNL     1      -7.069  13.896  14.061  0.00  0.00    -0.466 OA
ATOM     28  C   UNL     1      -8.095  13.732  14.937  0.00  0.00    +0.122 A 
ATOM     30  C   UNL     1      -7.616  13.463  16.198  0.00  0.00    +0.046 A 
ATOM     32  C   UNL     1      -6.204  13.462  16.089  0.00  0.00    +0.041 A 
ATOM     33  C   UNL     1      -5.922  13.731  14.771  0.00  0.00    +0.195 A 
ENDBRANCH  26  28
ENDBRANCH   6  26
ENDBRANCH  20  23
ENDBRANCH  15  20
TORSDOF 7
ENDMDL
MODEL 5
REMARK VINA RESULT:      -6.8     18.903     21.873
REMARK  Name = 45361543
REMARK  10 active torsions:
REMARK  status: ('A' for Active; 'I' for Inactive)
REMARK    1  A    between atoms: O_1  and  C_12
REMARK    2  A    between atoms: N_5  and  C_16
REMARK    3  A    between atoms: N_6  and  C_26
REMARK    4  A    between atoms: C_9  and  C_19
REMARK    5  A    between atoms: C_11  and  C_21
REMARK    6  A    between atoms: C_15  and  C_20
REMARK    7  A    between atoms: C_20  and  C_22
REMARK    8  A    between atoms: C_20  and  C_23
REMARK    9  A    between atoms: C_24  and  C_25
REMARK   10  A    between atoms: C_26  and  C_28
REMARK                            x       y       z     vdW  Elec       q    Type
REMARK                         _______ _______ _______ _____ _____    ______ ____
ROOT
ATOM      9  C   UNL     1      -4.746 -11.030  16.945  0.00  0.00    -0.027 C 
ATOM     10  C   UNL     1      -5.513 -10.412  15.729  0.00  0.00    +0.028 C 
ATOM     11  C   UNL     1      -7.067 -10.516  15.938  0.00  0.00    +0.012 C 
ATOM     12  C   UNL     1      -4.982 -10.977  14.380  0.00  0.00    +0.122 C 
ATOM     13  C   UNL     1      -3.226 -10.811  16.761  0.00  0.00    +0.007 C 
ATOM     14  C   UNL     1      -5.173 -10.297  18.237  0.00  0.00    +0.009 C 
ATOM     15  C   UNL     1      -3.446 -10.850  14.247  0.00  0.00    +0.029 C 
ATOM     16  C   UNL     1      -7.476  -9.840  17.277  0.00  0.00    +0.076 C 
ATOM     17  C   UNL     1      -2.694 -11.397  15.460  0.00  0.00    +0.007 C 
ATOM     18  C   UNL     1      -6.676 -10.339  18.479  0.00  0.00    +0.023 C 
ATOM     19  C   UNL     1      -5.014 -12.547  17.108  0.00  0.00    +0.011 C 
ATOM     21  C   UNL     1      -7.885  -9.900  14.791  0.00  0.00    +0.010 C 
ENDROOT
BRANCH  16   5
ATOM      3  O   UNL     1      -9.472  -7.779  17.410  0.00  0.00    -0.268 OA
ATOM      5  N   UNL     1      -8.885 -10.018  17.558  0.00  0.00    -0.307 N 
ATOM     24  C   UNL     1      -9.771  -8.955  17.601  0.00  0.00    +0.264 C 
ATOM     34  H   UNL     1      -9.218 -10.950  17.788  0.00  0.00    +0.149 HD
BRANCH  24  25
ATOM      7  N   UNL     1     -11.390  -9.922  19.106  0.00  0.00    -0.247 NA
ATOM      8  N   UNL     1     -13.491  -9.310  17.353  0.00  0.00    -0.259 NA
ATOM     25  C   UNL     1     -11.179  -9.301  17.929  0.00  0.00    +0.143 A 
ATOM     27  C   UNL     1     -12.211  -9.000  17.068  0.00  0.00    +0.143 A 
ATOM     29  C   UNL     1     -12.670 -10.233  19.391  0.00  0.00    +0.131 A 
ATOM     31  C   UNL     1     -13.702  -9.933  18.530  0.00  0.00    +0.130 A 
ENDBRANCH  24  25
ENDBRANCH  16   5
BRANCH  12   1
ATOM      1  O   UNL     1      -5.548 -10.239  13.297  0.00  0.00    -0.391 OA
ATOM     35  H   UNL     1      -5.657  -9.316  13.585  0.00  0.00    +0.210 HD
ENDBRANCH  12   1
BRANCH  15  20
ATOM     20  C   UNL     1      -2.927 -11.528  12.973  0.00  0.00    +0.077 C 
ATOM     22  C   UNL     1      -1.739 -12.425  13.304  0.00  0.00    +0.017 C 
BRANCH  20  23
ATOM      2  O   UNL     1      -1.457  -9.922  11.913  0.00  0.00    -0.276 OA
ATOM      6  N   UNL     1      -3.587 -10.218  11.044  0.00  0.00    -0.308 N 
ATOM     23  C   UNL     1      -2.556 -10.473  11.936  0.00  0.00    +0.217 C 
ATOM     36  H   UNL     1      -4.475 -10.701  11.155  0.00  0.00    +0.149 HD
BRANCH   6  26
ATOM     26  C   UNL     1      -3.474  -9.256   9.972  0.00  0.00    +0.178 C 
BRANCH  26  28
ATOM      4  O   UNL     1      -4.832  -9.807   8.034  0.00  0.00    -0.466 OA
ATOM     28  C   UNL     1      -4.756  -9.119   9.203  0.00  0.00    +0.122 A 
ATOM     30  C   UNL     1      -5.919  -8.422   9.431  0.00  0.00    +0.046 A 
ATOM     32  C   UNL     1      -6.765  -8.700   8.330  0.00  0.00    +0.041 A 
ATOM     33  C   UNL     1      -6.059  -9.547   7.509  0.00  0.00    +0.195 A 
ENDBRANCH  26  28
ENDBRANCH   6  26
ENDBRANCH  20  23
ENDBRANCH  15  20
TORSDOF 7
ENDMDL
MODEL 6
REMARK VINA RESULT:      -6.7     27.239     32.136
REMARK  Name = 45361543
REMARK  10 active torsions:
REMARK  status: ('A' for Active; 'I' for Inactive)
REMARK    1  A    between atoms: O_1  and  C_12
REMARK    2  A    between atoms: N_5  and  C_16
REMARK    3  A    between atoms: N_6  and  C_26
REMARK    4  A    between atoms: C_9  and  C_19
REMARK    5  A    between atoms: C_11  and  C_21
REMARK    6  A    between atoms: C_15  and  C_20
REMARK    7  A    between atoms: C_20  and  C_22
REMARK    8  A    between atoms: C_20  and  C_23
REMARK    9  A    between atoms: C_24  and  C_25
REMARK   10  A    between atoms: C_26  and  C_28
REMARK                            x       y       z     vdW  Elec       q    Type
REMARK                         _______ _______ _______ _____ _____    ______ ____
ROOT
ATOM      9  C   UNL     1      15.727  10.083  21.173  0.00  0.00    -0.027 C 
ATOM     10  C   UNL     1      15.478   8.554  21.389  0.00  0.00    +0.028 C 
ATOM     11  C   UNL     1      16.741   7.717  20.973  0.00  0.00    +0.012 C 
ATOM     12  C   UNL     1      14.136   8.103  20.742  0.00  0.00    +0.122 C 
ATOM     13  C   UNL     1      14.511  10.883  21.696  0.00  0.00    +0.007 C 
ATOM     14  C   UNL     1      16.963  10.514  21.995  0.00  0.00    +0.009 C 
ATOM     15  C   UNL     1      12.939   8.974  21.189  0.00  0.00    +0.029 C 
ATOM     16  C   UNL     1      17.993   8.209  21.752  0.00  0.00    +0.076 C 
ATOM     17  C   UNL     1      13.201  10.473  21.037  0.00  0.00    +0.007 C 
ATOM     18  C   UNL     1      18.215   9.718  21.655  0.00  0.00    +0.023 C 
ATOM     19  C   UNL     1      15.956  10.443  19.683  0.00  0.00    +0.011 C 
ATOM     21  C   UNL     1      16.576   6.203  21.187  0.00  0.00    +0.010 C 
ENDROOT
BRANCH  16   5
ATOM      3  O   UNL     1      19.719   6.557  23.345  0.00  0.00    -0.268 OA
ATOM      5  N   UNL     1      19.198   7.539  21.310  0.00  0.00    -0.307 N 
ATOM     24  C   UNL     1      19.966   6.761  22.159  0.00  0.00    +0.264 C 
ATOM     34  H   UNL     1      19.515   7.696  20.358  0.00  0.00    +0.149 HD
BRANCH  24  25
ATOM      7  N   UNL     1      22.131   7.022  21.128  0.00  0.00    -0.247 NA
ATOM      8  N   UNL     1      22.438   4.243  20.905  0.00  0.00    -0.259 NA
ATOM     25  C   UNL     1      21.186   6.163  21.558  0.00  0.00    +0.143 A 
ATOM     27  C   UNL     1      21.337   4.798  21.449  0.00  0.00    +0.143 A 
ATOM     29  C   UNL     1      23.232   6.467  20.583  0.00  0.00    +0.131 A 
ATOM     31  C   UNL     1      23.383   5.103  20.473  0.00  0.00    +0.130 A 
ENDBRANCH  24  25
ENDBRANCH  16   5
BRANCH  12   1
ATOM      1  O   UNL     1      13.839   6.765  21.141  0.00  0.00    -0.391 OA
ATOM     35  H   UNL     1      14.646   6.377  21.521  0.00  0.00    +0.210 HD
ENDBRANCH  12   1
BRANCH  15  20
ATOM     20  C   UNL     1      11.652   8.600  20.443  0.00  0.00    +0.077 C 
ATOM     22  C   UNL     1      10.878   7.548  21.230  0.00  0.00    +0.017 C 
BRANCH  20  23
ATOM      2  O   UNL     1      12.101   6.918  18.761  0.00  0.00    -0.276 OA
ATOM      6  N   UNL     1      12.149   9.151  18.136  0.00  0.00    -0.308 N 
ATOM     23  C   UNL     1      11.989   8.110  19.039  0.00  0.00    +0.217 C 
ATOM     36  H   UNL     1      12.066  10.111  18.460  0.00  0.00    +0.149 HD
BRANCH   6  26
ATOM     26  C   UNL     1      12.473   8.937  16.745  0.00  0.00    +0.178 C 
BRANCH  26  28
ATOM      4  O   UNL     1      14.256   9.460  15.177  0.00  0.00    -0.466 OA
ATOM     28  C   UNL     1      13.558   9.861  16.272  0.00  0.00    +0.122 A 
ATOM     30  C   UNL     1      14.020  11.076  16.722  0.00  0.00    +0.046 A 
ATOM     32  C   UNL     1      15.069  11.445  15.846  0.00  0.00    +0.041 A 
ATOM     33  C   UNL     1      15.174  10.430  14.925  0.00  0.00    +0.195 A 
ENDBRANCH  26  28
ENDBRANCH   6  26
ENDBRANCH  20  23
ENDBRANCH  15  20
TORSDOF 7
ENDMDL
MODEL 7
REMARK VINA RESULT:      -6.7      7.198     10.536
REMARK  Name = 45361543
REMARK  10 active torsions:
REMARK  status: ('A' for Active; 'I' for Inactive)
REMARK    1  A    between atoms: O_1  and  C_12
REMARK    2  A    between atoms: N_5  and  C_16
REMARK    3  A    between atoms: N_6  and  C_26
REMARK    4  A    between atoms: C_9  and  C_19
REMARK    5  A    between atoms: C_11  and  C_21
REMARK    6  A    between atoms: C_15  and  C_20
REMARK    7  A    between atoms: C_20  and  C_22
REMARK    8  A    between atoms: C_20  and  C_23
REMARK    9  A    between atoms: C_24  and  C_25
REMARK   10  A    between atoms: C_26  and  C_28
REMARK                            x       y       z     vdW  Elec       q    Type
REMARK                         _______ _______ _______ _____ _____    ______ ____
ROOT
ATOM      9  C   UNL     1     -14.567   2.076  31.219  0.00  0.00    -0.027 C 
ATOM     10  C   UNL     1     -15.849   2.934  30.958  0.00  0.00    +0.028 C 
ATOM     11  C   UNL     1     -16.279   2.851  29.448  0.00  0.00    +0.012 C 
ATOM     12  C   UNL     1     -15.691   4.373  31.529  0.00  0.00    +0.122 C 
ATOM     13  C   UNL     1     -14.238   2.088  32.731  0.00  0.00    +0.007 C 
ATOM     14  C   UNL     1     -14.848   0.612  30.811  0.00  0.00    +0.009 C 
ATOM     15  C   UNL     1     -15.260   4.378  33.014  0.00  0.00    +0.029 C 
ATOM     16  C   UNL     1     -16.486   1.369  29.028  0.00  0.00    +0.076 C 
ATOM     17  C   UNL     1     -14.044   3.493  33.286  0.00  0.00    +0.007 C 
ATOM     18  C   UNL     1     -15.296   0.471  29.363  0.00  0.00    +0.023 C 
ATOM     19  C   UNL     1     -13.334   2.596  30.437  0.00  0.00    +0.011 C 
ATOM     21  C   UNL     1     -17.553   3.650  29.126  0.00  0.00    +0.010 C 
ENDROOT
BRANCH  16   5
ATOM      3  O   UNL     1     -18.708  -0.007  27.837  0.00  0.00    -0.268 OA
ATOM      5  N   UNL     1     -16.770   1.247  27.614  0.00  0.00    -0.307 N 
ATOM     24  C   UNL     1     -17.872   0.559  27.137  0.00  0.00    +0.264 C 
ATOM     34  H   UNL     1     -16.102   1.634  26.953  0.00  0.00    +0.149 HD
BRANCH  24  25
ATOM      7  N   UNL     1     -18.742  -0.508  25.156  0.00  0.00    -0.247 NA
ATOM      8  N   UNL     1     -17.523   1.402  23.505  0.00  0.00    -0.259 NA
ATOM     25  C   UNL     1     -18.008   0.504  25.658  0.00  0.00    +0.143 A 
ATOM     27  C   UNL     1     -17.408   1.442  24.847  0.00  0.00    +0.143 A 
ATOM     29  C   UNL     1     -18.856  -0.550  23.814  0.00  0.00    +0.131 A 
ATOM     31  C   UNL     1     -18.257   0.388  23.003  0.00  0.00    +0.130 A 
ENDBRANCH  24  25
ENDBRANCH  16   5
BRANCH  12   1
ATOM      1  O   UNL     1     -16.947   5.052  31.466  0.00  0.00    -0.391 OA
ATOM     35  H   UNL     1     -16.880   5.747  30.789  0.00  0.00    +0.210 HD
ENDBRANCH  12   1
BRANCH  15  20
ATOM     20  C   UNL     1     -14.983   5.799  33.522  0.00  0.00    +0.077 C 
ATOM     22  C   UNL     1     -14.005   6.507  32.591  0.00  0.00    +0.017 C 
BRANCH  20  23
ATOM      2  O   UNL     1     -14.894   4.968  35.794  0.00  0.00    -0.276 OA
ATOM      6  N   UNL     1     -13.437   6.663  35.175  0.00  0.00    -0.308 N 
ATOM     23  C   UNL     1     -14.453   5.746  34.951  0.00  0.00    +0.217 C 
ATOM     36  H   UNL     1     -13.154   7.289  34.426  0.00  0.00    +0.149 HD
BRANCH   6  26
ATOM     26  C   UNL     1     -12.777   6.802  36.453  0.00  0.00    +0.178 C 
BRANCH  26  28
ATOM      4  O   UNL     1     -11.756   8.726  35.374  0.00  0.00    -0.466 OA
ATOM     28  C   UNL     1     -11.717   7.865  36.425  0.00  0.00    +0.122 A 
ATOM     30  C   UNL     1     -10.672   8.172  37.264  0.00  0.00    +0.046 A 
ATOM     32  C   UNL     1     -10.026   9.295  36.692  0.00  0.00    +0.041 A 
ATOM     33  C   UNL     1     -10.723   9.594  35.545  0.00  0.00    +0.195 A 
ENDBRANCH  26  28
ENDBRANCH   6  26
ENDBRANCH  20  23
ENDBRANCH  15  20
TORSDOF 7
ENDMDL
MODEL 8
REMARK VINA RESULT:      -6.7     19.431     22.622
REMARK  Name = 45361543
REMARK  10 active torsions:
REMARK  status: ('A' for Active; 'I' for Inactive)
REMARK    1  A    between atoms: O_1  and  C_12
REMARK    2  A    between atoms: N_5  and  C_16
REMARK    3  A    between atoms: N_6  and  C_26
REMARK    4  A    between atoms: C_9  and  C_19
REMARK    5  A    between atoms: C_11  and  C_21
REMARK    6  A    between atoms: C_15  and  C_20
REMARK    7  A    between atoms: C_20  and  C_22
REMARK    8  A    between atoms: C_20  and  C_23
REMARK    9  A    between atoms: C_24  and  C_25
REMARK   10  A    between atoms: C_26  and  C_28
REMARK                            x       y       z     vdW  Elec       q    Type
REMARK                         _______ _______ _______ _____ _____    ______ ____
ROOT
ATOM      9  C   UNL     1      -4.348 -10.580  11.225  0.00  0.00    -0.027 C 
ATOM     10  C   UNL     1      -5.775  -9.989  11.473  0.00  0.00    +0.028 C 
ATOM     11  C   UNL     1      -6.412 -10.596  12.775  0.00  0.00    +0.012 C 
ATOM     12  C   UNL     1      -6.655 -10.081  10.194  0.00  0.00    +0.122 C 
ATOM     13  C   UNL     1      -3.705  -9.880  10.004  0.00  0.00    +0.007 C 
ATOM     14  C   UNL     1      -3.459 -10.287  12.455  0.00  0.00    +0.009 C 
ATOM     15  C   UNL     1      -5.963  -9.473   8.952  0.00  0.00    +0.029 C 
ATOM     16  C   UNL     1      -5.475 -10.361  13.993  0.00  0.00    +0.076 C 
ATOM     17  C   UNL     1      -4.545 -10.002   8.739  0.00  0.00    +0.007 C 
ATOM     18  C   UNL     1      -4.039 -10.828  13.754  0.00  0.00    +0.023 C 
ATOM     19  C   UNL     1      -4.373 -12.107  10.967  0.00  0.00    +0.011 C 
ATOM     21  C   UNL     1      -7.808 -10.035  13.097  0.00  0.00    +0.010 C 
ENDROOT
BRANCH  16   5
ATOM      3  O   UNL     1      -5.918  -9.133  16.551  0.00  0.00    -0.268 OA
ATOM      5  N   UNL     1      -5.975 -11.008  15.188  0.00  0.00    -0.307 N 
ATOM     24  C   UNL     1      -6.155 -10.326  16.379  0.00  0.00    +0.264 C 
ATOM     34  H   UNL     1      -6.144 -12.010  15.159  0.00  0.00    +0.149 HD
BRANCH  24  25
ATOM      7  N   UNL     1      -7.252 -12.306  17.213  0.00  0.00    -0.247 NA
ATOM      8  N   UNL     1      -6.949 -11.443  19.864  0.00  0.00    -0.259 NA
ATOM     25  C   UNL     1      -6.651 -11.139  17.519  0.00  0.00    +0.143 A 
ATOM     27  C   UNL     1      -6.502 -10.716  18.821  0.00  0.00    +0.143 A 
ATOM     29  C   UNL     1      -7.701 -13.033  18.255  0.00  0.00    +0.131 A 
ATOM     31  C   UNL     1      -7.551 -12.610  19.557  0.00  0.00    +0.130 A 
ENDBRANCH  24  25
ENDBRANCH  16   5
BRANCH  12   1
ATOM      1  O   UNL     1      -7.863  -9.344  10.390  0.00  0.00    -0.391 OA
ATOM     35  H   UNL     1      -8.507  -9.638   9.724  0.00  0.00    +0.210 HD
ENDBRANCH  12   1
BRANCH  15  20
ATOM     20  C   UNL     1      -6.788  -9.690   7.677  0.00  0.00    +0.077 C 
ATOM     22  C   UNL     1      -5.928 -10.347   6.602  0.00  0.00    +0.017 C 
BRANCH  20  23
ATOM      2  O   UNL     1      -7.733  -8.178   6.038  0.00  0.00    -0.276 OA
ATOM      6  N   UNL     1      -7.408  -7.407   8.201  0.00  0.00    -0.308 N 
ATOM     23  C   UNL     1      -7.360  -8.361   7.195  0.00  0.00    +0.217 C 
ATOM     36  H   UNL     1      -7.051  -7.636   9.125  0.00  0.00    +0.149 HD
BRANCH   6  26
ATOM     26  C   UNL     1      -7.910  -6.069   7.987  0.00  0.00    +0.178 C 
BRANCH  26  28
ATOM      4  O   UNL     1      -9.916  -7.011   8.985  0.00  0.00    -0.466 OA
ATOM     28  C   UNL     1      -9.280  -5.884   8.571  0.00  0.00    +0.122 A 
ATOM     30  C   UNL     1     -10.068  -4.777   8.789  0.00  0.00    +0.046 A 
ATOM     32  C   UNL     1     -11.264  -5.256   9.375  0.00  0.00    +0.041 A 
ATOM     33  C   UNL     1     -11.122  -6.619   9.474  0.00  0.00    +0.195 A 
ENDBRANCH  26  28
ENDBRANCH   6  26
ENDBRANCH  20  23
ENDBRANCH  15  20
TORSDOF 7
ENDMDL
MODEL 9
REMARK VINA RESULT:      -6.6     20.277     21.833
REMARK  Name = 45361543
REMARK  10 active torsions:
REMARK  status: ('A' for Active; 'I' for Inactive)
REMARK    1  A    between atoms: O_1  and  C_12
REMARK    2  A    between atoms: N_5  and  C_16
REMARK    3  A    between atoms: N_6  and  C_26
REMARK    4  A    between atoms: C_9  and  C_19
REMARK    5  A    between atoms: C_11  and  C_21
REMARK    6  A    between atoms: C_15  and  C_20
REMARK    7  A    between atoms: C_20  and  C_22
REMARK    8  A    between atoms: C_20  and  C_23
REMARK    9  A    between atoms: C_24  and  C_25
REMARK   10  A    between atoms: C_26  and  C_28
REMARK                            x       y       z     vdW  Elec       q    Type
REMARK                         _______ _______ _______ _____ _____    ______ ____
ROOT
ATOM      9  C   UNL     1      -3.196 -11.261  11.690  0.00  0.00    -0.027 C 
ATOM     10  C   UNL     1      -4.558 -10.857  12.346  0.00  0.00    +0.028 C 
ATOM     11  C   UNL     1      -5.379  -9.914  11.395  0.00  0.00    +0.012 C 
ATOM     12  C   UNL     1      -4.351 -10.329  13.795  0.00  0.00    +0.122 C 
ATOM     13  C   UNL     1      -2.466 -12.277  12.600  0.00  0.00    +0.007 C 
ATOM     14  C   UNL     1      -3.474 -11.957  10.338  0.00  0.00    +0.009 C 
ATOM     15  C   UNL     1      -3.530 -11.303  14.671  0.00  0.00    +0.029 C 
ATOM     16  C   UNL     1      -5.588 -10.593  10.013  0.00  0.00    +0.076 C 
ATOM     17  C   UNL     1      -2.227 -11.748  14.008  0.00  0.00    +0.007 C 
ATOM     18  C   UNL     1      -4.291 -11.100   9.381  0.00  0.00    +0.023 C 
ATOM     19  C   UNL     1      -2.266 -10.044  11.455  0.00  0.00    +0.011 C 
ATOM     21  C   UNL     1      -6.745  -9.500  11.966  0.00  0.00    +0.010 C 
ENDROOT
BRANCH  16   5
ATOM      3  O   UNL     1      -7.858 -11.210   8.365  0.00  0.00    -0.268 OA
ATOM      5  N   UNL     1      -6.240  -9.707   9.072  0.00  0.00    -0.307 N 
ATOM     24  C   UNL     1      -7.334 -10.100   8.320  0.00  0.00    +0.264 C 
ATOM     34  H   UNL     1      -5.841  -8.784   8.922  0.00  0.00    +0.149 HD
BRANCH  24  25
ATOM      7  N   UNL     1      -8.227  -9.516   6.157  0.00  0.00    -0.247 NA
ATOM      8  N   UNL     1      -8.481  -6.826   6.909  0.00  0.00    -0.259 NA
ATOM     25  C   UNL     1      -7.872  -9.081   7.382  0.00  0.00    +0.143 A 
ATOM     27  C   UNL     1      -7.996  -7.760   7.751  0.00  0.00    +0.143 A 
ATOM     29  C   UNL     1      -8.711  -8.582   5.314  0.00  0.00    +0.131 A 
ATOM     31  C   UNL     1      -8.836  -7.261   5.683  0.00  0.00    +0.130 A 
ENDBRANCH  24  25
ENDBRANCH  16   5
BRANCH  12   1
ATOM      1  O   UNL     1      -5.620 -10.176  14.433  0.00  0.00    -0.391 OA
ATOM     35  H   UNL     1      -5.685  -9.263  14.762  0.00  0.00    +0.210 HD
ENDBRANCH  12   1
BRANCH  15  20
ATOM     20  C   UNL     1      -3.225 -10.708  16.052  0.00  0.00    +0.077 C 
ATOM     22  C   UNL     1      -1.718 -10.635  16.270  0.00  0.00    +0.017 C 
BRANCH  20  23
ATOM      2  O   UNL     1      -3.543 -11.520  18.311  0.00  0.00    -0.276 OA
ATOM      6  N   UNL     1      -4.957 -12.296  16.645  0.00  0.00    -0.308 N 
ATOM     23  C   UNL     1      -3.905 -11.538  17.136  0.00  0.00    +0.217 C 
ATOM     36  H   UNL     1      -5.170 -12.272  15.651  0.00  0.00    +0.149 HD
BRANCH   6  26
ATOM     26  C   UNL     1      -5.753 -13.164  17.481  0.00  0.00    +0.178 C 
BRANCH  26  28
ATOM      4  O   UNL     1      -7.426 -11.401  17.482  0.00  0.00    -0.466 OA
ATOM     28  C   UNL     1      -6.854 -12.418  18.178  0.00  0.00    +0.122 A 
ATOM     30  C   UNL     1      -7.436 -12.543  19.418  0.00  0.00    +0.046 A 
ATOM     32  C   UNL     1      -8.430 -11.537  19.488  0.00  0.00    +0.041 A 
ATOM     33  C   UNL     1      -8.384 -10.870  18.287  0.00  0.00    +0.195 A 
ENDBRANCH  26  28
ENDBRANCH   6  26
ENDBRANCH  20  23
ENDBRANCH  15  20
TORSDOF 7
ENDMDL
MODEL 10
REMARK VINA RESULT:      -6.6     31.355     36.125
REMARK  Name = 45361543
REMARK  10 active torsions:
REMARK  status: ('A' for Active; 'I' for Inactive)
REMARK    1  A    between atoms: O_1  and  C_12
REMARK    2  A    between atoms: N_5  and  C_16
REMARK    3  A    between atoms: N_6  and  C_26
REMARK    4  A    between atoms: C_9  and  C_19
REMARK    5  A    between atoms: C_11  and  C_21
REMARK    6  A    between atoms: C_15  and  C_20
REMARK    7  A    between atoms: C_20  and  C_22
REMARK    8  A    between atoms: C_20  and  C_23
REMARK    9  A    between atoms: C_24  and  C_25
REMARK   10  A    between atoms: C_26  and  C_28
REMARK                            x       y       z     vdW  Elec       q    Type
REMARK                         _______ _______ _______ _____ _____    ______ ____
ROOT
ATOM      9  C   UNL     1      20.626   7.770  22.101  0.00  0.00    -0.027 C 
ATOM     10  C   UNL     1      20.344   6.769  20.933  0.00  0.00    +0.028 C 
ATOM     11  C   UNL     1      18.821   6.386  20.881  0.00  0.00    +0.012 C 
ATOM     12  C   UNL     1      21.333   5.568  20.966  0.00  0.00    +0.122 C 
ATOM     13  C   UNL     1      22.108   8.213  22.053  0.00  0.00    +0.007 C 
ATOM     14  C   UNL     1      19.753   9.031  21.908  0.00  0.00    +0.009 C 
ATOM     15  C   UNL     1      22.812   6.019  21.024  0.00  0.00    +0.029 C 
ATOM     16  C   UNL     1      17.947   7.666  20.762  0.00  0.00    +0.076 C 
ATOM     17  C   UNL     1      23.081   7.044  22.125  0.00  0.00    +0.007 C 
ATOM     18  C   UNL     1      18.265   8.719  21.823  0.00  0.00    +0.023 C 
ATOM     19  C   UNL     1      20.335   7.157  23.493  0.00  0.00    +0.011 C 
ATOM     21  C   UNL     1      18.465   5.424  19.735  0.00  0.00    +0.010 C 
ENDROOT
BRANCH  16   5
ATOM      3  O   UNL     1      15.797   9.250  19.706  0.00  0.00    -0.268 OA
ATOM      5  N   UNL     1      16.534   7.359  20.829  0.00  0.00    -0.307 N 
ATOM     24  C   UNL     1      15.570   8.192  20.287  0.00  0.00    +0.264 C 
ATOM     34  H   UNL     1      16.244   6.532  21.342  0.00  0.00    +0.149 HD
BRANCH  24  25
ATOM      7  N   UNL     1      13.579   8.039  21.641  0.00  0.00    -0.247 NA
ATOM      8  N   UNL     1      12.218   6.663  19.612  0.00  0.00    -0.259 NA
ATOM     25  C   UNL     1      14.162   7.748  20.462  0.00  0.00    +0.143 A 
ATOM     27  C   UNL     1      13.494   7.072  19.465  0.00  0.00    +0.143 A 
ATOM     29  C   UNL     1      12.304   7.630  21.789  0.00  0.00    +0.131 A 
ATOM     31  C   UNL     1      11.635   6.954  20.793  0.00  0.00    +0.130 A 
ENDBRANCH  24  25
ENDBRANCH  16   5
BRANCH  12   1
ATOM      1  O   UNL     1      21.188   4.796  19.773  0.00  0.00    -0.391 OA
ATOM     35  H   UNL     1      20.321   5.003  19.384  0.00  0.00    +0.210 HD
ENDBRANCH  12   1
BRANCH  15  20
ATOM     20  C   UNL     1      23.764   4.828  21.188  0.00  0.00    +0.077 C 
ATOM     22  C   UNL     1      24.443   4.885  22.552  0.00  0.00    +0.017 C 
BRANCH  20  23
ATOM      2  O   UNL     1      24.904   3.879  19.274  0.00  0.00    -0.276 OA
ATOM      6  N   UNL     1      25.549   5.978  20.021  0.00  0.00    -0.308 N 
ATOM     23  C   UNL     1      24.786   4.820  20.057  0.00  0.00    +0.217 C 
ATOM     36  H   UNL     1      25.403   6.695  20.727  0.00  0.00    +0.149 HD
BRANCH   6  26
ATOM     26  C   UNL     1      26.585   6.202  19.039  0.00  0.00    +0.178 C 
BRANCH  26  28
ATOM      4  O   UNL     1      25.479   8.339  18.694  0.00  0.00    -0.466 OA
ATOM     28  C   UNL     1      26.278   7.379  18.159  0.00  0.00    +0.122 A 
ATOM     30  C   UNL     1      26.644   7.714  16.875  0.00  0.00    +0.046 A 
ATOM     32  C   UNL     1      26.030   8.961  16.605  0.00  0.00    +0.041 A 
ATOM     33  C   UNL     1      25.334   9.299  17.742  0.00  0.00    +0.195 A 
ENDBRANCH  26  28
ENDBRANCH   6  26
ENDBRANCH  20  23
ENDBRANCH  15  20
TORSDOF 7
ENDMDL
