MODEL 1
REMARK VINA RESULT:      -6.8      0.000      0.000
REMARK  Name = 26743534
REMARK  7 active torsions:
REMARK  status: ('A' for Active; 'I' for Inactive)
REMARK    1  A    between atoms: S_1  and  C_23
REMARK    2  A    between atoms: S_1  and  C_25
REMARK    3  A    between atoms: O_2  and  C_13
REMARK    4  A    between atoms: N_6  and  C_15
REMARK    5  A    between atoms: C_11  and  C_16
REMARK    6  A    between atoms: C_15  and  C_17
REMARK    7  A    between atoms: C_20  and  C_24
REMARK                            x       y       z     vdW  Elec       q    Type
REMARK                         _______ _______ _______ _____ _____    ______ ____
ROOT
ATOM      6  N   UNL     1      14.475   8.008  19.960  0.00  0.00    -0.285 NA
ATOM     11  C   UNL     1      13.859   7.425  21.170  0.00  0.00    +0.149 C 
ATOM     12  C   UNL     1      15.035   7.194  22.138  0.00  0.00    +0.061 C 
ATOM     13  C   UNL     1      16.273   7.633  21.366  0.00  0.00    +0.130 C 
ATOM     14  C   UNL     1      15.849   7.511  19.916  0.00  0.00    +0.116 C 
ENDROOT
BRANCH  11  16
ATOM      3  O   UNL     1      11.586   7.722  22.018  0.00  0.00    -0.336 OA
ATOM      7  N   UNL     1      12.828   9.585  22.062  0.00  0.00    -0.189 NA
ATOM      8  N   UNL     1      10.765   8.726  22.548  0.00  0.00    -0.054 NA
ATOM     16  C   UNL     1      12.782   8.312  21.760  0.00  0.00    +0.245 A 
ATOM     20  C   UNL     1      11.569   9.793  22.542  0.00  0.00    +0.222 A 
BRANCH  20  24
ATOM      9  N   UNL     1      11.070  12.065  22.092  0.00  0.00    -0.249 NA
ATOM     10  N   UNL     1      10.428  12.498  24.788  0.00  0.00    -0.260 NA
ATOM     24  C   UNL     1      11.143  11.081  23.010  0.00  0.00    +0.129 A 
ATOM     26  C   UNL     1      10.829  11.293  24.334  0.00  0.00    +0.142 A 
ATOM     27  C   UNL     1      10.670  13.270  22.545  0.00  0.00    +0.131 A 
ATOM     28  C   UNL     1      10.355  13.482  23.870  0.00  0.00    +0.130 A 
ENDBRANCH  20  24
ENDBRANCH  11  16
BRANCH  13   2
ATOM      2  O   UNL     1      17.373   6.794  21.664  0.00  0.00    -0.390 OA
ATOM     29  H   UNL     1      17.212   5.938  21.233  0.00  0.00    +0.210 HD
ENDBRANCH  13   2
BRANCH   6  15
ATOM     15  C   UNL     1      13.741   7.704  18.740  0.00  0.00    +0.120 C 
BRANCH  15  17
ATOM     17  C   UNL     1      13.930   8.767  17.692  0.00  0.00    -0.033 A 
ATOM     18  C   UNL     1      14.071   8.408  16.351  0.00  0.00    +0.007 A 
ATOM     19  C   UNL     1      13.964  10.112  18.060  0.00  0.00    +0.007 A 
ATOM     21  C   UNL     1      14.245   9.394  15.379  0.00  0.00    +0.027 A 
ATOM     22  C   UNL     1      14.139  11.098  17.089  0.00  0.00    +0.027 A 
ATOM     23  C   UNL     1      14.279  10.738  15.748  0.00  0.00    +0.088 A 
BRANCH  23   1
ATOM      1  S   UNL     1      14.495  11.971  14.531  0.00  0.00    -0.006 S 
ATOM      4  O   UNL     1      15.906  12.040  14.174  0.00  0.00    -0.170 OA
ATOM      5  O   UNL     1      13.496  11.758  13.494  0.00  0.00    -0.170 OA
ATOM     25  C   UNL     1      14.099  13.491  15.367  0.00  0.00    +0.200 C 
ENDBRANCH  23   1
ENDBRANCH  15  17
ENDBRANCH   6  15
TORSDOF 6
ENDMDL
MODEL 2
REMARK VINA RESULT:      -6.6     24.593     27.382
REMARK  Name = 26743534
REMARK  7 active torsions:
REMARK  status: ('A' for Active; 'I' for Inactive)
REMARK    1  A    between atoms: S_1  and  C_23
REMARK    2  A    between atoms: S_1  and  C_25
REMARK    3  A    between atoms: O_2  and  C_13
REMARK    4  A    between atoms: N_6  and  C_15
REMARK    5  A    between atoms: C_11  and  C_16
REMARK    6  A    between atoms: C_15  and  C_17
REMARK    7  A    between atoms: C_20  and  C_24
REMARK                            x       y       z     vdW  Elec       q    Type
REMARK                         _______ _______ _______ _____ _____    ______ ____
ROOT
ATOM      6  N   UNL     1     -11.789   9.655  20.363  0.00  0.00    -0.285 NA
ATOM     11  C   UNL     1     -12.364   8.520  19.611  0.00  0.00    +0.149 C 
ATOM     12  C   UNL     1     -11.271   8.123  18.601  0.00  0.00    +0.061 C 
ATOM     13  C   UNL     1     -10.141   9.120  18.831  0.00  0.00    +0.130 C 
ATOM     14  C   UNL     1     -10.840  10.308  19.464  0.00  0.00    +0.116 C 
ENDROOT
BRANCH  11  16
ATOM      3  O   UNL     1     -11.774   6.570  20.963  0.00  0.00    -0.336 OA
ATOM      7  N   UNL     1     -13.966   7.030  20.928  0.00  0.00    -0.189 NA
ATOM      8  N   UNL     1     -12.389   5.598  21.761  0.00  0.00    -0.054 NA
ATOM     16  C   UNL     1     -12.773   7.373  20.511  0.00  0.00    +0.245 A 
ATOM     20  C   UNL     1     -13.680   5.936  21.691  0.00  0.00    +0.222 A 
BRANCH  20  24
ATOM      9  N   UNL     1     -15.851   4.989  21.693  0.00  0.00    -0.249 NA
ATOM     10  N   UNL     1     -15.483   4.057  24.313  0.00  0.00    -0.260 NA
ATOM     24  C   UNL     1     -14.707   5.203  22.373  0.00  0.00    +0.129 A 
ATOM     26  C   UNL     1     -14.526   4.746  23.660  0.00  0.00    +0.142 A 
ATOM     27  C   UNL     1     -16.808   4.299  22.346  0.00  0.00    +0.131 A 
ATOM     28  C   UNL     1     -16.627   3.842  23.634  0.00  0.00    +0.130 A 
ENDBRANCH  20  24
ENDBRANCH  11  16
BRANCH  13   2
ATOM      2  O   UNL     1      -9.523   9.467  17.607  0.00  0.00    -0.390 OA
ATOM     29  H   UNL     1      -8.569   9.302  17.705  0.00  0.00    +0.210 HD
ENDBRANCH  13   2
BRANCH   6  15
ATOM     15  C   UNL     1     -12.797  10.580  20.864  0.00  0.00    +0.120 C 
BRANCH  15  17
ATOM     17  C   UNL     1     -12.803  10.643  22.367  0.00  0.00    -0.033 A 
ATOM     18  C   UNL     1     -13.780   9.958  23.091  0.00  0.00    +0.007 A 
ATOM     19  C   UNL     1     -11.833  11.387  23.039  0.00  0.00    +0.007 A 
ATOM     21  C   UNL     1     -13.785  10.017  24.484  0.00  0.00    +0.027 A 
ATOM     22  C   UNL     1     -11.838  11.445  24.432  0.00  0.00    +0.027 A 
ATOM     23  C   UNL     1     -12.814  10.760  25.155  0.00  0.00    +0.088 A 
BRANCH  23   1
ATOM      1  S   UNL     1     -12.820  10.830  26.899  0.00  0.00    -0.006 S 
ATOM      4  O   UNL     1     -12.491  12.186  27.318  0.00  0.00    -0.170 OA
ATOM      5  O   UNL     1     -14.049  10.207  27.369  0.00  0.00    -0.170 OA
ATOM     25  C   UNL     1     -11.460   9.793  27.388  0.00  0.00    +0.200 C 
ENDBRANCH  23   1
ENDBRANCH  15  17
ENDBRANCH   6  15
TORSDOF 6
ENDMDL
MODEL 3
REMARK VINA RESULT:      -6.5      6.160     10.145
REMARK  Name = 26743534
REMARK  7 active torsions:
REMARK  status: ('A' for Active; 'I' for Inactive)
REMARK    1  A    between atoms: S_1  and  C_23
REMARK    2  A    between atoms: S_1  and  C_25
REMARK    3  A    between atoms: O_2  and  C_13
REMARK    4  A    between atoms: N_6  and  C_15
REMARK    5  A    between atoms: C_11  and  C_16
REMARK    6  A    between atoms: C_15  and  C_17
REMARK    7  A    between atoms: C_20  and  C_24
REMARK                            x       y       z     vdW  Elec       q    Type
REMARK                         _______ _______ _______ _____ _____    ______ ____
ROOT
ATOM      6  N   UNL     1      18.989   6.955  21.232  0.00  0.00    -0.285 NA
ATOM     11  C   UNL     1      20.450   6.978  21.010  0.00  0.00    +0.149 C 
ATOM     12  C   UNL     1      20.909   8.343  21.558  0.00  0.00    +0.061 C 
ATOM     13  C   UNL     1      19.631   9.031  22.023  0.00  0.00    +0.130 C 
ATOM     14  C   UNL     1      18.546   8.347  21.214  0.00  0.00    +0.116 C 
ENDROOT
BRANCH  11  16
ATOM      3  O   UNL     1      20.990   5.685  23.013  0.00  0.00    -0.336 OA
ATOM      7  N   UNL     1      21.922   4.895  21.136  0.00  0.00    -0.189 NA
ATOM      8  N   UNL     1      21.729   4.557  23.390  0.00  0.00    -0.054 NA
ATOM     16  C   UNL     1      21.157   5.814  21.671  0.00  0.00    +0.245 A 
ATOM     20  C   UNL     1      22.248   4.147  22.228  0.00  0.00    +0.222 A 
BRANCH  20  24
ATOM      9  N   UNL     1      23.294   2.286  23.257  0.00  0.00    -0.249 NA
ATOM     10  N   UNL     1      24.472   1.553  20.819  0.00  0.00    -0.260 NA
ATOM     24  C   UNL     1      23.095   2.994  22.126  0.00  0.00    +0.129 A 
ATOM     26  C   UNL     1      23.674   2.634  20.929  0.00  0.00    +0.142 A 
ATOM     27  C   UNL     1      24.092   1.206  23.147  0.00  0.00    +0.131 A 
ATOM     28  C   UNL     1      24.671   0.846  21.949  0.00  0.00    +0.130 A 
ENDBRANCH  20  24
ENDBRANCH  11  16
BRANCH  13   2
ATOM      2  O   UNL     1      19.686  10.420  21.759  0.00  0.00    -0.390 OA
ATOM     29  H   UNL     1      20.558  10.738  22.048  0.00  0.00    +0.210 HD
ENDBRANCH  13   2
BRANCH   6  15
ATOM     15  C   UNL     1      18.274   6.138  20.259  0.00  0.00    +0.120 C 
BRANCH  15  17
ATOM     17  C   UNL     1      16.806   6.467  20.222  0.00  0.00    -0.033 A 
ATOM     18  C   UNL     1      16.176   6.709  19.001  0.00  0.00    +0.007 A 
ATOM     19  C   UNL     1      16.075   6.530  21.408  0.00  0.00    +0.007 A 
ATOM     21  C   UNL     1      14.815   7.013  18.967  0.00  0.00    +0.027 A 
ATOM     22  C   UNL     1      14.714   6.834  21.374  0.00  0.00    +0.027 A 
ATOM     23  C   UNL     1      14.084   7.075  20.153  0.00  0.00    +0.088 A 
BRANCH  23   1
ATOM      1  S   UNL     1      12.381   7.453  20.108  0.00  0.00    -0.006 S 
ATOM      4  O   UNL     1      12.184   8.807  20.608  0.00  0.00    -0.170 OA
ATOM      5  O   UNL     1      11.874   7.088  18.794  0.00  0.00    -0.170 OA
ATOM     25  C   UNL     1      11.652   6.351  21.301  0.00  0.00    +0.200 C 
ENDBRANCH  23   1
ENDBRANCH  15  17
ENDBRANCH   6  15
TORSDOF 6
ENDMDL
MODEL 4
REMARK VINA RESULT:      -6.4     13.378     15.927
REMARK  Name = 26743534
REMARK  7 active torsions:
REMARK  status: ('A' for Active; 'I' for Inactive)
REMARK    1  A    between atoms: S_1  and  C_23
REMARK    2  A    between atoms: S_1  and  C_25
REMARK    3  A    between atoms: O_2  and  C_13
REMARK    4  A    between atoms: N_6  and  C_15
REMARK    5  A    between atoms: C_11  and  C_16
REMARK    6  A    between atoms: C_15  and  C_17
REMARK    7  A    between atoms: C_20  and  C_24
REMARK                            x       y       z     vdW  Elec       q    Type
REMARK                         _______ _______ _______ _____ _____    ______ ____
ROOT
ATOM      6  N   UNL     1      10.456   5.707   6.118  0.00  0.00    -0.285 NA
ATOM     11  C   UNL     1      10.252   6.860   7.020  0.00  0.00    +0.149 C 
ATOM     12  C   UNL     1      10.050   6.237   8.414  0.00  0.00    +0.061 C 
ATOM     13  C   UNL     1      10.110   4.732   8.186  0.00  0.00    +0.130 C 
ATOM     14  C   UNL     1       9.748   4.580   6.721  0.00  0.00    +0.116 C 
ENDROOT
BRANCH  11  16
ATOM      3  O   UNL     1      11.136   9.109   7.390  0.00  0.00    -0.336 OA
ATOM      7  N   UNL     1      12.643   7.653   6.598  0.00  0.00    -0.189 NA
ATOM      8  N   UNL     1      12.335   9.820   7.262  0.00  0.00    -0.054 NA
ATOM     16  C   UNL     1      11.404   7.842   6.979  0.00  0.00    +0.245 A 
ATOM     20  C   UNL     1      13.175   8.894   6.790  0.00  0.00    +0.222 A 
BRANCH  20  24
ATOM      9  N   UNL     1      14.933  10.467   6.573  0.00  0.00    -0.249 NA
ATOM     10  N   UNL     1      16.730   8.423   5.894  0.00  0.00    -0.260 NA
ATOM     24  C   UNL     1      14.552   9.176   6.502  0.00  0.00    +0.129 A 
ATOM     26  C   UNL     1      15.434   8.172   6.168  0.00  0.00    +0.142 A 
ATOM     27  C   UNL     1      16.229  10.718   6.299  0.00  0.00    +0.131 A 
ATOM     28  C   UNL     1      17.111   9.714   5.965  0.00  0.00    +0.130 A 
ENDBRANCH  20  24
ENDBRANCH  11  16
BRANCH  13   2
ATOM      2  O   UNL     1       9.191   4.061   9.026  0.00  0.00    -0.390 OA
ATOM     29  H   UNL     1       8.419   4.642   9.138  0.00  0.00    +0.210 HD
ENDBRANCH  13   2
BRANCH   6  15
ATOM     15  C   UNL     1      10.017   5.963   4.752  0.00  0.00    +0.120 C 
BRANCH  15  17
ATOM     17  C   UNL     1      11.009   5.457   3.740  0.00  0.00    -0.033 A 
ATOM     18  C   UNL     1      10.888   4.163   3.232  0.00  0.00    +0.007 A 
ATOM     19  C   UNL     1      12.049   6.280   3.310  0.00  0.00    +0.007 A 
ATOM     21  C   UNL     1      11.807   3.693   2.294  0.00  0.00    +0.027 A 
ATOM     22  C   UNL     1      12.968   5.810   2.371  0.00  0.00    +0.027 A 
ATOM     23  C   UNL     1      12.846   4.517   1.863  0.00  0.00    +0.088 A 
BRANCH  23   1
ATOM      1  S   UNL     1      13.995   3.929   0.687  0.00  0.00    -0.006 S 
ATOM      4  O   UNL     1      15.084   3.259   1.384  0.00  0.00    -0.170 OA
ATOM      5  O   UNL     1      13.255   3.221  -0.348  0.00  0.00    -0.170 OA
ATOM     25  C   UNL     1      14.676   5.403  -0.040  0.00  0.00    +0.200 C 
ENDBRANCH  23   1
ENDBRANCH  15  17
ENDBRANCH   6  15
TORSDOF 6
ENDMDL
MODEL 5
REMARK VINA RESULT:      -6.2     27.145     28.502
REMARK  Name = 26743534
REMARK  7 active torsions:
REMARK  status: ('A' for Active; 'I' for Inactive)
REMARK    1  A    between atoms: S_1  and  C_23
REMARK    2  A    between atoms: S_1  and  C_25
REMARK    3  A    between atoms: O_2  and  C_13
REMARK    4  A    between atoms: N_6  and  C_15
REMARK    5  A    between atoms: C_11  and  C_16
REMARK    6  A    between atoms: C_15  and  C_17
REMARK    7  A    between atoms: C_20  and  C_24
REMARK                            x       y       z     vdW  Elec       q    Type
REMARK                         _______ _______ _______ _____ _____    ______ ____
ROOT
ATOM      6  N   UNL     1      -3.401 -11.085  14.473  0.00  0.00    -0.285 NA
ATOM     11  C   UNL     1      -3.645 -11.392  15.898  0.00  0.00    +0.149 C 
ATOM     12  C   UNL     1      -2.433 -10.798  16.641  0.00  0.00    +0.061 C 
ATOM     13  C   UNL     1      -1.543 -10.222  15.547  0.00  0.00    +0.130 C 
ATOM     14  C   UNL     1      -1.951 -11.001  14.311  0.00  0.00    +0.116 C 
ENDROOT
BRANCH  11  16
ATOM      3  O   UNL     1      -5.363  -9.652  15.864  0.00  0.00    -0.336 OA
ATOM      7  N   UNL     1      -5.796 -11.338  17.274  0.00  0.00    -0.189 NA
ATOM      8  N   UNL     1      -6.589  -9.350  16.469  0.00  0.00    -0.054 NA
ATOM     16  C   UNL     1      -4.965 -10.839  16.394  0.00  0.00    +0.245 A 
ATOM     20  C   UNL     1      -6.776 -10.390  17.286  0.00  0.00    +0.222 A 
BRANCH  20  24
ATOM      9  N   UNL     1      -9.040  -9.852  17.732  0.00  0.00    -0.249 NA
ATOM     10  N   UNL     1      -8.984 -11.393  20.075  0.00  0.00    -0.260 NA
ATOM     24  C   UNL     1      -7.933 -10.513  18.125  0.00  0.00    +0.129 A 
ATOM     26  C   UNL     1      -7.905 -11.269  19.277  0.00  0.00    +0.142 A 
ATOM     27  C   UNL     1     -10.119  -9.976  18.530  0.00  0.00    +0.131 A 
ATOM     28  C   UNL     1     -10.091 -10.732  19.682  0.00  0.00    +0.130 A 
ENDBRANCH  20  24
ENDBRANCH  11  16
BRANCH  13   2
ATOM      2  O   UNL     1      -0.177 -10.412  15.860  0.00  0.00    -0.390 OA
ATOM     29  H   UNL     1       0.258  -9.544  15.812  0.00  0.00    +0.210 HD
ENDBRANCH  13   2
BRANCH   6  15
ATOM     15  C   UNL     1      -3.999 -12.057  13.567  0.00  0.00    +0.120 C 
BRANCH  15  17
ATOM     17  C   UNL     1      -4.549 -11.403  12.328  0.00  0.00    -0.033 A 
ATOM     18  C   UNL     1      -5.051 -10.103  12.389  0.00  0.00    +0.007 A 
ATOM     19  C   UNL     1      -4.560 -12.098  11.118  0.00  0.00    +0.007 A 
ATOM     21  C   UNL     1      -5.560  -9.497  11.240  0.00  0.00    +0.027 A 
ATOM     22  C   UNL     1      -5.070 -11.492   9.970  0.00  0.00    +0.027 A 
ATOM     23  C   UNL     1      -5.570 -10.192  10.031  0.00  0.00    +0.088 A 
BRANCH  23   1
ATOM      1  S   UNL     1      -6.206  -9.432   8.594  0.00  0.00    -0.006 S 
ATOM      4  O   UNL     1      -6.641  -8.082   8.926  0.00  0.00    -0.170 OA
ATOM      5  O   UNL     1      -5.249  -9.639   7.516  0.00  0.00    -0.170 OA
ATOM     25  C   UNL     1      -7.671 -10.367   8.212  0.00  0.00    +0.200 C 
ENDBRANCH  23   1
ENDBRANCH  15  17
ENDBRANCH   6  15
TORSDOF 6
ENDMDL
MODEL 6
REMARK VINA RESULT:      -6.2     27.729     29.587
REMARK  Name = 26743534
REMARK  7 active torsions:
REMARK  status: ('A' for Active; 'I' for Inactive)
REMARK    1  A    between atoms: S_1  and  C_23
REMARK    2  A    between atoms: S_1  and  C_25
REMARK    3  A    between atoms: O_2  and  C_13
REMARK    4  A    between atoms: N_6  and  C_15
REMARK    5  A    between atoms: C_11  and  C_16
REMARK    6  A    between atoms: C_15  and  C_17
REMARK    7  A    between atoms: C_20  and  C_24
REMARK                            x       y       z     vdW  Elec       q    Type
REMARK                         _______ _______ _______ _____ _____    ______ ____
ROOT
ATOM      6  N   UNL     1      -7.248 -10.801  17.442  0.00  0.00    -0.285 NA
ATOM     11  C   UNL     1      -5.896 -11.214  17.873  0.00  0.00    +0.149 C 
ATOM     12  C   UNL     1      -6.063 -12.671  18.347  0.00  0.00    +0.061 C 
ATOM     13  C   UNL     1      -7.548 -12.970  18.187  0.00  0.00    +0.130 C 
ATOM     14  C   UNL     1      -8.192 -11.597  18.223  0.00  0.00    +0.116 C 
ENDROOT
BRANCH  11  16
ATOM      3  O   UNL     1      -3.564 -11.206  17.141  0.00  0.00    -0.336 OA
ATOM      7  N   UNL     1      -5.039 -10.829  15.499  0.00  0.00    -0.189 NA
ATOM      8  N   UNL     1      -2.811 -11.033  15.973  0.00  0.00    -0.054 NA
ATOM     16  C   UNL     1      -4.865 -11.070  16.774  0.00  0.00    +0.245 A 
ATOM     20  C   UNL     1      -3.752 -10.815  15.049  0.00  0.00    +0.222 A 
BRANCH  20  24
ATOM      9  N   UNL     1      -2.130 -10.542  13.344  0.00  0.00    -0.249 NA
ATOM     10  N   UNL     1      -4.148 -10.187  11.429  0.00  0.00    -0.260 NA
ATOM     24  C   UNL     1      -3.438 -10.582  13.669  0.00  0.00    +0.129 A 
ATOM     26  C   UNL     1      -4.429 -10.407  12.729  0.00  0.00    +0.142 A 
ATOM     27  C   UNL     1      -1.849 -10.322  12.044  0.00  0.00    +0.131 A 
ATOM     28  C   UNL     1      -2.841 -10.147  11.103  0.00  0.00    +0.130 A 
ENDBRANCH  20  24
ENDBRANCH  11  16
BRANCH  13   2
ATOM      2  O   UNL     1      -8.010 -13.794  19.240  0.00  0.00    -0.390 OA
ATOM     29  H   UNL     1      -8.514 -13.231  19.852  0.00  0.00    +0.210 HD
ENDBRANCH  13   2
BRANCH   6  15
ATOM     15  C   UNL     1      -7.484  -9.371  17.588  0.00  0.00    +0.120 C 
BRANCH  15  17
ATOM     17  C   UNL     1      -8.669  -8.912  16.783  0.00  0.00    -0.033 A 
ATOM     18  C   UNL     1      -8.816  -9.328  15.459  0.00  0.00    +0.007 A 
ATOM     19  C   UNL     1      -9.622  -8.072  17.359  0.00  0.00    +0.007 A 
ATOM     21  C   UNL     1      -9.915  -8.904  14.713  0.00  0.00    +0.027 A 
ATOM     22  C   UNL     1     -10.721  -7.647  16.612  0.00  0.00    +0.027 A 
ATOM     23  C   UNL     1     -10.868  -8.064  15.289  0.00  0.00    +0.088 A 
BRANCH  23   1
ATOM      1  S   UNL     1     -12.244  -7.535  14.355  0.00  0.00    -0.006 S 
ATOM      4  O   UNL     1     -12.005  -7.837  12.950  0.00  0.00    -0.170 OA
ATOM      5  O   UNL     1     -13.447  -8.033  15.007  0.00  0.00    -0.170 OA
ATOM     25  C   UNL     1     -12.231  -5.763  14.512  0.00  0.00    +0.200 C 
ENDBRANCH  23   1
ENDBRANCH  15  17
ENDBRANCH   6  15
TORSDOF 6
ENDMDL
MODEL 7
REMARK VINA RESULT:      -6.2     30.649     31.976
REMARK  Name = 26743534
REMARK  7 active torsions:
REMARK  status: ('A' for Active; 'I' for Inactive)
REMARK    1  A    between atoms: S_1  and  C_23
REMARK    2  A    between atoms: S_1  and  C_25
REMARK    3  A    between atoms: O_2  and  C_13
REMARK    4  A    between atoms: N_6  and  C_15
REMARK    5  A    between atoms: C_11  and  C_16
REMARK    6  A    between atoms: C_15  and  C_17
REMARK    7  A    between atoms: C_20  and  C_24
REMARK                            x       y       z     vdW  Elec       q    Type
REMARK                         _______ _______ _______ _____ _____    ______ ____
ROOT
ATOM      6  N   UNL     1     -14.245   5.724  33.002  0.00  0.00    -0.285 NA
ATOM     11  C   UNL     1     -15.712   5.861  32.889  0.00  0.00    +0.149 C 
ATOM     12  C   UNL     1     -15.970   7.379  32.929  0.00  0.00    +0.061 C 
ATOM     13  C   UNL     1     -14.594   8.008  33.113  0.00  0.00    +0.130 C 
ATOM     14  C   UNL     1     -13.777   6.895  33.740  0.00  0.00    +0.116 C 
ENDROOT
BRANCH  11  16
ATOM      3  O   UNL     1     -17.246   4.286  31.820  0.00  0.00    -0.336 OA
ATOM      7  N   UNL     1     -15.929   5.395  30.387  0.00  0.00    -0.189 NA
ATOM      8  N   UNL     1     -17.587   3.827  30.542  0.00  0.00    -0.054 NA
ATOM     16  C   UNL     1     -16.263   5.207  31.639  0.00  0.00    +0.245 A 
ATOM     20  C   UNL     1     -16.768   4.528  29.752  0.00  0.00    +0.222 A 
BRANCH  20  24
ATOM      9  N   UNL     1     -17.449   5.309  27.621  0.00  0.00    -0.249 NA
ATOM     10  N   UNL     1     -16.082   3.203  26.370  0.00  0.00    -0.260 NA
ATOM     24  C   UNL     1     -16.764   4.385  28.325  0.00  0.00    +0.129 A 
ATOM     26  C   UNL     1     -16.094   3.350  27.710  0.00  0.00    +0.142 A 
ATOM     27  C   UNL     1     -17.437   5.163  26.281  0.00  0.00    +0.131 A 
ATOM     28  C   UNL     1     -16.766   4.128  25.667  0.00  0.00    +0.130 A 
ENDBRANCH  20  24
ENDBRANCH  11  16
BRANCH  13   2
ATOM      2  O   UNL     1     -14.670   9.142  33.956  0.00  0.00    -0.390 OA
ATOM     29  H   UNL     1     -13.807   9.238  34.394  0.00  0.00    +0.210 HD
ENDBRANCH  13   2
BRANCH   6  15
ATOM     15  C   UNL     1     -13.832   4.477  33.631  0.00  0.00    +0.120 C 
BRANCH  15  17
ATOM     17  C   UNL     1     -14.053   3.293  32.729  0.00  0.00    -0.033 A 
ATOM     18  C   UNL     1     -13.499   3.279  31.449  0.00  0.00    +0.007 A 
ATOM     19  C   UNL     1     -14.812   2.210  33.172  0.00  0.00    +0.007 A 
ATOM     21  C   UNL     1     -13.704   2.181  30.612  0.00  0.00    +0.027 A 
ATOM     22  C   UNL     1     -15.017   1.112  32.335  0.00  0.00    +0.027 A 
ATOM     23  C   UNL     1     -14.462   1.098  31.056  0.00  0.00    +0.088 A 
BRANCH  23   1
ATOM      1  S   UNL     1     -14.716  -0.276  30.009  0.00  0.00    -0.006 S 
ATOM      4  O   UNL     1     -15.452  -1.297  30.742  0.00  0.00    -0.170 OA
ATOM      5  O   UNL     1     -15.230   0.216  28.740  0.00  0.00    -0.170 OA
ATOM     25  C   UNL     1     -13.082  -0.921  29.724  0.00  0.00    +0.200 C 
ENDBRANCH  23   1
ENDBRANCH  15  17
ENDBRANCH   6  15
TORSDOF 6
ENDMDL
MODEL 8
REMARK VINA RESULT:      -5.9      5.387      8.781
REMARK  Name = 26743534
REMARK  7 active torsions:
REMARK  status: ('A' for Active; 'I' for Inactive)
REMARK    1  A    between atoms: S_1  and  C_23
REMARK    2  A    between atoms: S_1  and  C_25
REMARK    3  A    between atoms: O_2  and  C_13
REMARK    4  A    between atoms: N_6  and  C_15
REMARK    5  A    between atoms: C_11  and  C_16
REMARK    6  A    between atoms: C_15  and  C_17
REMARK    7  A    between atoms: C_20  and  C_24
REMARK                            x       y       z     vdW  Elec       q    Type
REMARK                         _______ _______ _______ _____ _____    ______ ____
ROOT
ATOM      6  N   UNL     1      19.154   8.105  21.424  0.00  0.00    -0.285 NA
ATOM     11  C   UNL     1      17.856   8.796  21.571  0.00  0.00    +0.149 C 
ATOM     12  C   UNL     1      18.182  10.290  21.383  0.00  0.00    +0.061 C 
ATOM     13  C   UNL     1      19.692  10.341  21.182  0.00  0.00    +0.130 C 
ATOM     14  C   UNL     1      20.180   9.061  21.833  0.00  0.00    +0.116 C 
ENDROOT
BRANCH  11  16
ATOM      3  O   UNL     1      16.993   7.037  20.109  0.00  0.00    -0.336 OA
ATOM      7  N   UNL     1      15.753   8.902  20.125  0.00  0.00    -0.189 NA
ATOM      8  N   UNL     1      15.924   6.803  19.234  0.00  0.00    -0.054 NA
ATOM     16  C   UNL     1      16.816   8.295  20.590  0.00  0.00    +0.245 A 
ATOM     20  C   UNL     1      15.239   7.948  19.298  0.00  0.00    +0.222 A 
BRANCH  20  24
ATOM      9  N   UNL     1      13.901   9.374  17.959  0.00  0.00    -0.249 NA
ATOM     10  N   UNL     1      11.932   7.388  17.744  0.00  0.00    -0.260 NA
ATOM     24  C   UNL     1      14.035   8.169  18.549  0.00  0.00    +0.129 A 
ATOM     26  C   UNL     1      13.068   7.194  18.444  0.00  0.00    +0.142 A 
ATOM     27  C   UNL     1      12.766   9.568  17.259  0.00  0.00    +0.131 A 
ATOM     28  C   UNL     1      11.798   8.593  17.154  0.00  0.00    +0.130 A 
ENDBRANCH  20  24
ENDBRANCH  11  16
BRANCH  13   2
ATOM      2  O   UNL     1      20.240  11.488  21.802  0.00  0.00    -0.390 OA
ATOM     29  H   UNL     1      19.595  11.802  22.459  0.00  0.00    +0.210 HD
ENDBRANCH  13   2
BRANCH   6  15
ATOM     15  C   UNL     1      19.230   6.861  22.179  0.00  0.00    +0.120 C 
BRANCH  15  17
ATOM     17  C   UNL     1      20.481   6.087  21.860  0.00  0.00    -0.033 A 
ATOM     18  C   UNL     1      21.378   5.761  22.877  0.00  0.00    +0.007 A 
ATOM     19  C   UNL     1      20.743   5.695  20.547  0.00  0.00    +0.007 A 
ATOM     21  C   UNL     1      22.537   5.043  22.581  0.00  0.00    +0.027 A 
ATOM     22  C   UNL     1      21.902   4.977  20.251  0.00  0.00    +0.027 A 
ATOM     23  C   UNL     1      22.798   4.651  21.268  0.00  0.00    +0.088 A 
BRANCH  23   1
ATOM      1  S   UNL     1      24.247   3.750  20.899  0.00  0.00    -0.006 S 
ATOM      4  O   UNL     1      24.621   4.004  19.514  0.00  0.00    -0.170 OA
ATOM      5  O   UNL     1      25.210   3.994  21.964  0.00  0.00    -0.170 OA
ATOM     25  C   UNL     1      23.745   2.046  20.995  0.00  0.00    +0.200 C 
ENDBRANCH  23   1
ENDBRANCH  15  17
ENDBRANCH   6  15
TORSDOF 6
ENDMDL
MODEL 9
REMARK VINA RESULT:      -5.8     27.280     29.113
REMARK  Name = 26743534
REMARK  7 active torsions:
REMARK  status: ('A' for Active; 'I' for Inactive)
REMARK    1  A    between atoms: S_1  and  C_23
REMARK    2  A    between atoms: S_1  and  C_25
REMARK    3  A    between atoms: O_2  and  C_13
REMARK    4  A    between atoms: N_6  and  C_15
REMARK    5  A    between atoms: C_11  and  C_16
REMARK    6  A    between atoms: C_15  and  C_17
REMARK    7  A    between atoms: C_20  and  C_24
REMARK                            x       y       z     vdW  Elec       q    Type
REMARK                         _______ _______ _______ _____ _____    ______ ____
ROOT
ATOM      6  N   UNL     1      -3.416 -11.795  14.556  0.00  0.00    -0.285 NA
ATOM     11  C   UNL     1      -2.322 -11.654  13.573  0.00  0.00    +0.149 C 
ATOM     12  C   UNL     1      -1.916 -13.099  13.226  0.00  0.00    +0.061 C 
ATOM     13  C   UNL     1      -2.805 -13.978  14.098  0.00  0.00    +0.130 C 
ATOM     14  C   UNL     1      -3.191 -13.064  15.245  0.00  0.00    +0.116 C 
ENDROOT
BRANCH  11  16
ATOM      3  O   UNL     1      -1.782 -10.058  11.801  0.00  0.00    -0.336 OA
ATOM      7  N   UNL     1      -3.891 -10.809  11.744  0.00  0.00    -0.189 NA
ATOM      8  N   UNL     1      -2.390  -9.428  10.708  0.00  0.00    -0.054 NA
ATOM     16  C   UNL     1      -2.735 -10.854  12.355  0.00  0.00    +0.245 A 
ATOM     20  C   UNL     1      -3.631  -9.922  10.741  0.00  0.00    +0.222 A 
BRANCH  20  24
ATOM      9  N   UNL     1      -4.566 -10.141   8.575  0.00  0.00    -0.249 NA
ATOM     10  N   UNL     1      -6.561  -8.274   9.205  0.00  0.00    -0.260 NA
ATOM     24  C   UNL     1      -4.634  -9.550   9.784  0.00  0.00    +0.129 A 
ATOM     26  C   UNL     1      -5.613  -8.633  10.094  0.00  0.00    +0.142 A 
ATOM     27  C   UNL     1      -5.514  -9.783   7.686  0.00  0.00    +0.131 A 
ATOM     28  C   UNL     1      -6.493  -8.865   7.995  0.00  0.00    +0.130 A 
ENDBRANCH  20  24
ENDBRANCH  11  16
BRANCH  13   2
ATOM      2  O   UNL     1      -2.095 -15.115  14.550  0.00  0.00    -0.390 OA
ATOM     29  H   UNL     1      -2.499 -15.896  14.134  0.00  0.00    +0.210 HD
ENDBRANCH  13   2
BRANCH   6  15
ATOM     15  C   UNL     1      -3.501 -10.675  15.484  0.00  0.00    +0.120 C 
BRANCH  15  17
ATOM     17  C   UNL     1      -4.922 -10.384  15.883  0.00  0.00    -0.033 A 
ATOM     18  C   UNL     1      -5.897 -10.193  14.904  0.00  0.00    +0.007 A 
ATOM     19  C   UNL     1      -5.266 -10.304  17.233  0.00  0.00    +0.007 A 
ATOM     21  C   UNL     1      -7.215  -9.924  15.274  0.00  0.00    +0.027 A 
ATOM     22  C   UNL     1      -6.584 -10.034  17.603  0.00  0.00    +0.027 A 
ATOM     23  C   UNL     1      -7.558  -9.845  16.623  0.00  0.00    +0.088 A 
BRANCH  23   1
ATOM      1  S   UNL     1      -9.208  -9.510  17.086  0.00  0.00    -0.006 S 
ATOM      4  O   UNL     1      -9.322  -8.101  17.440  0.00  0.00    -0.170 OA
ATOM      5  O   UNL     1     -10.082 -10.073  16.067  0.00  0.00    -0.170 OA
ATOM     25  C   UNL     1      -9.444 -10.440  18.584  0.00  0.00    +0.200 C 
ENDBRANCH  23   1
ENDBRANCH  15  17
ENDBRANCH   6  15
TORSDOF 6
ENDMDL
MODEL 10
REMARK VINA RESULT:      -5.7     13.866     17.342
REMARK  Name = 26743534
REMARK  7 active torsions:
REMARK  status: ('A' for Active; 'I' for Inactive)
REMARK    1  A    between atoms: S_1  and  C_23
REMARK    2  A    between atoms: S_1  and  C_25
REMARK    3  A    between atoms: O_2  and  C_13
REMARK    4  A    between atoms: N_6  and  C_15
REMARK    5  A    between atoms: C_11  and  C_16
REMARK    6  A    between atoms: C_15  and  C_17
REMARK    7  A    between atoms: C_20  and  C_24
REMARK                            x       y       z     vdW  Elec       q    Type
REMARK                         _______ _______ _______ _____ _____    ______ ____
ROOT
ATOM      6  N   UNL     1      11.187   7.172   6.229  0.00  0.00    -0.285 NA
ATOM     11  C   UNL     1      10.608   6.033   5.486  0.00  0.00    +0.149 C 
ATOM     12  C   UNL     1       9.098   6.331   5.425  0.00  0.00    +0.061 C 
ATOM     13  C   UNL     1       8.921   7.632   6.199  0.00  0.00    +0.130 C 
ATOM     14  C   UNL     1      10.133   7.671   7.109  0.00  0.00    +0.116 C 
ENDROOT
BRANCH  11  16
ATOM      3  O   UNL     1      12.134   6.795   3.734  0.00  0.00    -0.336 OA
ATOM      7  N   UNL     1      11.015   4.923   3.223  0.00  0.00    -0.189 NA
ATOM      8  N   UNL     1      12.557   6.426   2.452  0.00  0.00    -0.054 NA
ATOM     16  C   UNL     1      11.226   5.858   4.115  0.00  0.00    +0.245 A 
ATOM     20  C   UNL     1      11.853   5.314   2.221  0.00  0.00    +0.222 A 
BRANCH  20  24
ATOM      9  N   UNL     1      13.183   4.069   0.705  0.00  0.00    -0.249 NA
ATOM     10  N   UNL     1      10.973   3.686  -0.979  0.00  0.00    -0.260 NA
ATOM     24  C   UNL     1      11.966   4.570   0.999  0.00  0.00    +0.129 A 
ATOM     26  C   UNL     1      10.881   4.383   0.172  0.00  0.00    +0.142 A 
ATOM     27  C   UNL     1      13.275   3.373  -0.445  0.00  0.00    +0.131 A 
ATOM     28  C   UNL     1      12.189   3.185  -1.273  0.00  0.00    +0.130 A 
ENDBRANCH  20  24
ENDBRANCH  11  16
BRANCH  13   2
ATOM      2  O   UNL     1       7.712   7.617   6.934  0.00  0.00    -0.390 OA
ATOM     29  H   UNL     1       7.912   7.937   7.830  0.00  0.00    +0.210 HD
ENDBRANCH  13   2
BRANCH   6  15
ATOM     15  C   UNL     1      12.396   6.822   6.963  0.00  0.00    +0.120 C 
BRANCH  15  17
ATOM     17  C   UNL     1      13.519   7.786   6.688  0.00  0.00    -0.033 A 
ATOM     18  C   UNL     1      13.299   9.160   6.789  0.00  0.00    +0.007 A 
ATOM     19  C   UNL     1      14.779   7.306   6.331  0.00  0.00    +0.007 A 
ATOM     21  C   UNL     1      14.340  10.053   6.534  0.00  0.00    +0.027 A 
ATOM     22  C   UNL     1      15.820   8.199   6.076  0.00  0.00    +0.027 A 
ATOM     23  C   UNL     1      15.599   9.572   6.178  0.00  0.00    +0.088 A 
BRANCH  23   1
ATOM      1  S   UNL     1      16.902  10.691   5.861  0.00  0.00    -0.006 S 
ATOM      4  O   UNL     1      16.420  12.050   6.074  0.00  0.00    -0.170 OA
ATOM      5  O   UNL     1      18.080  10.222   6.576  0.00  0.00    -0.170 OA
ATOM     25  C   UNL     1      17.216  10.522   4.118  0.00  0.00    +0.200 C 
ENDBRANCH  23   1
ENDBRANCH  15  17
ENDBRANCH   6  15
TORSDOF 6
ENDMDL
