MODEL 1
REMARK VINA RESULT:      -7.7      0.000      0.000
REMARK  Name = 11886737
REMARK  6 active torsions:
REMARK  status: ('A' for Active; 'I' for Inactive)
REMARK    1  A    between atoms: O_4  and  C_30
REMARK    2  A    between atoms: O_4  and  C_31
REMARK    3  A    between atoms: N_5  and  C_12
REMARK    4  A    between atoms: N_6  and  C_13
REMARK    5  A    between atoms: N_9  and  C_20
REMARK    6  A    between atoms: C_18  and  C_19
REMARK                            x       y       z     vdW  Elec       q    Type
REMARK                         _______ _______ _______ _____ _____    ______ ____
ROOT
ATOM      3  O   UNL     1       9.042   4.220  -2.944  0.00  0.00    -0.252 OA
ATOM      6  N   UNL     1      10.376   5.988  -2.277  0.00  0.00    -0.292 N 
ATOM      9  N   UNL     1       8.359   6.442  -3.278  0.00  0.00    -0.269 N 
ATOM     17  C   UNL     1       9.226   5.432  -2.850  0.00  0.00    +0.304 C 
ATOM     37  H   UNL     1      10.422   6.997  -2.174  0.00  0.00    +0.151 HD
ATOM     38  H   UNL     1       8.665   7.399  -3.125  0.00  0.00    +0.156 HD
ENDROOT
BRANCH   6  13
ATOM      1  O   UNL     1      11.909   3.575  -0.002  0.00  0.00    -0.370 OA
ATOM      2  O   UNL     1      12.649   6.619  -0.277  0.00  0.00    -0.370 OA
ATOM     10  C   UNL     1      11.708   5.890   0.531  0.00  0.00    +0.175 C 
ATOM     11  C   UNL     1      11.165   4.761  -0.322  0.00  0.00    +0.171 C 
ATOM     12  C   UNL     1      12.432   5.198   1.670  0.00  0.00    +0.166 C 
ATOM     13  C   UNL     1      11.455   5.192  -1.742  0.00  0.00    +0.131 C 
ATOM     14  C   UNL     1      12.832   3.860   1.059  0.00  0.00    +0.190 C 
ATOM     15  C   UNL     1      12.716   6.018  -1.578  0.00  0.00    +0.185 C 
BRANCH  12   5
ATOM      5  N   UNL     1      11.616   5.108   2.884  0.00  0.00    -0.243 N 
ATOM      7  N   UNL     1      11.069   3.940   3.246  0.00  0.00    -0.065 NA
ATOM      8  N   UNL     1      10.394   4.160   4.369  0.00  0.00    -0.129 NA
ATOM     16  C   UNL     1      11.315   6.105   3.752  0.00  0.00    +0.139 A 
ATOM     18  C   UNL     1      10.535   5.481   4.692  0.00  0.00    +0.113 A 
BRANCH  18  19
ATOM     19  C   UNL     1       9.953   6.104   5.838  0.00  0.00    +0.004 A 
ATOM     21  C   UNL     1      10.348   5.724   7.125  0.00  0.00    +0.010 A 
ATOM     22  C   UNL     1       8.982   7.099   5.683  0.00  0.00    +0.010 A 
ATOM     25  C   UNL     1       9.779   6.333   8.243  0.00  0.00    +0.001 A 
ATOM     26  C   UNL     1       8.413   7.708   6.802  0.00  0.00    +0.001 A 
ATOM     27  C   UNL     1       8.811   7.325   8.082  0.00  0.00    +0.000 A 
ENDBRANCH  18  19
ENDBRANCH  12   5
ENDBRANCH   6  13
BRANCH   9  20
ATOM     20  C   UNL     1       7.099   6.296  -3.905  0.00  0.00    +0.035 A 
ATOM     23  C   UNL     1       7.043   5.899  -5.231  0.00  0.00    +0.027 A 
ATOM     24  C   UNL     1       5.947   6.553  -3.180  0.00  0.00    +0.027 A 
ATOM     28  C   UNL     1       5.800   5.755  -5.848  0.00  0.00    +0.048 A 
ATOM     29  C   UNL     1       4.704   6.410  -3.797  0.00  0.00    +0.048 A 
ATOM     30  C   UNL     1       4.632   6.011  -5.132  0.00  0.00    +0.129 A 
BRANCH  30   4
ATOM      4  O   UNL     1       3.419   5.870  -5.734  0.00  0.00    -0.456 OA
BRANCH   4  31
ATOM     31  C   UNL     1       2.664   4.756  -5.406  0.00  0.00    +0.128 A 
ATOM     32  C   UNL     1       1.552   4.911  -4.599  0.00  0.00    +0.046 A 
ATOM     33  C   UNL     1       3.041   3.519  -5.895  0.00  0.00    +0.046 A 
ATOM     34  C   UNL     1       0.792   3.790  -4.268  0.00  0.00    +0.004 A 
ATOM     35  C   UNL     1       2.281   2.396  -5.565  0.00  0.00    +0.004 A 
ATOM     36  C   UNL     1       1.156   2.532  -4.751  0.00  0.00    +0.000 A 
ENDBRANCH   4  31
ENDBRANCH  30   4
ENDBRANCH   9  20
TORSDOF 6
ENDMDL
MODEL 2
REMARK VINA RESULT:      -7.7      4.114     12.648
REMARK  Name = 11886737
REMARK  6 active torsions:
REMARK  status: ('A' for Active; 'I' for Inactive)
REMARK    1  A    between atoms: O_4  and  C_30
REMARK    2  A    between atoms: O_4  and  C_31
REMARK    3  A    between atoms: N_5  and  C_12
REMARK    4  A    between atoms: N_6  and  C_13
REMARK    5  A    between atoms: N_9  and  C_20
REMARK    6  A    between atoms: C_18  and  C_19
REMARK                            x       y       z     vdW  Elec       q    Type
REMARK                         _______ _______ _______ _____ _____    ______ ____
ROOT
ATOM      3  O   UNL     1       6.613   6.331  -4.170  0.00  0.00    -0.252 OA
ATOM      6  N   UNL     1       5.929   5.130  -6.024  0.00  0.00    -0.292 N 
ATOM      9  N   UNL     1       7.954   4.623  -5.064  0.00  0.00    -0.269 N 
ATOM     17  C   UNL     1       6.826   5.447  -4.996  0.00  0.00    +0.304 C 
ATOM     37  H   UNL     1       6.145   4.340  -6.625  0.00  0.00    +0.151 HD
ATOM     38  H   UNL     1       7.972   3.938  -5.815  0.00  0.00    +0.156 HD
ENDROOT
BRANCH   6  13
ATOM      1  O   UNL     1       2.332   5.629  -5.621  0.00  0.00    -0.370 OA
ATOM      2  O   UNL     1       3.857   5.105  -8.321  0.00  0.00    -0.370 OA
ATOM     10  C   UNL     1       3.250   4.250  -7.335  0.00  0.00    +0.175 C 
ATOM     11  C   UNL     1       3.503   4.879  -5.979  0.00  0.00    +0.171 C 
ATOM     12  C   UNL     1       1.742   4.270  -7.494  0.00  0.00    +0.166 C 
ATOM     13  C   UNL     1       4.671   5.811  -6.211  0.00  0.00    +0.131 C 
ATOM     14  C   UNL     1       1.322   5.449  -6.623  0.00  0.00    +0.190 C 
ATOM     15  C   UNL     1       4.477   6.218  -7.660  0.00  0.00    +0.185 C 
BRANCH  12   5
ATOM      5  N   UNL     1       1.123   2.988  -7.146  0.00  0.00    -0.243 N 
ATOM      7  N   UNL     1       1.704   2.176  -6.253  0.00  0.00    -0.065 NA
ATOM      8  N   UNL     1       0.927   1.104  -6.141  0.00  0.00    -0.129 NA
ATOM     16  C   UNL     1      -0.034   2.471  -7.631  0.00  0.00    +0.139 A 
ATOM     18  C   UNL     1      -0.141   1.269  -6.978  0.00  0.00    +0.113 A 
BRANCH  18  19
ATOM     19  C   UNL     1      -1.201   0.326  -7.140  0.00  0.00    +0.004 A 
ATOM     21  C   UNL     1      -2.307   0.638  -7.938  0.00  0.00    +0.010 A 
ATOM     22  C   UNL     1      -1.143  -0.916  -6.500  0.00  0.00    +0.010 A 
ATOM     25  C   UNL     1      -3.342  -0.283  -8.096  0.00  0.00    +0.001 A 
ATOM     26  C   UNL     1      -2.179  -1.838  -6.659  0.00  0.00    +0.001 A 
ATOM     27  C   UNL     1      -3.278  -1.522  -7.456  0.00  0.00    +0.000 A 
ENDBRANCH  18  19
ENDBRANCH  12   5
ENDBRANCH   6  13
BRANCH   9  20
ATOM     20  C   UNL     1       9.082   4.626  -4.211  0.00  0.00    +0.035 A 
ATOM     23  C   UNL     1       9.775   5.809  -4.007  0.00  0.00    +0.027 A 
ATOM     24  C   UNL     1       9.472   3.447  -3.598  0.00  0.00    +0.027 A 
ATOM     28  C   UNL     1      10.888   5.810  -3.166  0.00  0.00    +0.048 A 
ATOM     29  C   UNL     1      10.585   3.448  -2.758  0.00  0.00    +0.048 A 
ATOM     30  C   UNL     1      11.293   4.631  -2.543  0.00  0.00    +0.129 A 
BRANCH  30   4
ATOM      4  O   UNL     1      12.379   4.633  -1.721  0.00  0.00    -0.456 OA
BRANCH   4  31
ATOM     31  C   UNL     1      12.189   4.255  -0.402  0.00  0.00    +0.128 A 
ATOM     32  C   UNL     1      11.040   4.658   0.255  0.00  0.00    +0.046 A 
ATOM     33  C   UNL     1      13.152   3.486   0.223  0.00  0.00    +0.046 A 
ATOM     34  C   UNL     1      10.849   4.277   1.582  0.00  0.00    +0.004 A 
ATOM     35  C   UNL     1      12.961   3.104   1.552  0.00  0.00    +0.004 A 
ATOM     36  C   UNL     1      11.809   3.500   2.231  0.00  0.00    +0.000 A 
ENDBRANCH   4  31
ENDBRANCH  30   4
ENDBRANCH   9  20
TORSDOF 6
ENDMDL
MODEL 3
REMARK VINA RESULT:      -7.7     14.097     19.781
REMARK  Name = 11886737
REMARK  6 active torsions:
REMARK  status: ('A' for Active; 'I' for Inactive)
REMARK    1  A    between atoms: O_4  and  C_30
REMARK    2  A    between atoms: O_4  and  C_31
REMARK    3  A    between atoms: N_5  and  C_12
REMARK    4  A    between atoms: N_6  and  C_13
REMARK    5  A    between atoms: N_9  and  C_20
REMARK    6  A    between atoms: C_18  and  C_19
REMARK                            x       y       z     vdW  Elec       q    Type
REMARK                         _______ _______ _______ _____ _____    ______ ____
ROOT
ATOM      3  O   UNL     1      13.248   8.962  15.206  0.00  0.00    -0.252 OA
ATOM      6  N   UNL     1      14.432   9.165  17.182  0.00  0.00    -0.292 N 
ATOM      9  N   UNL     1      14.715  10.762  15.555  0.00  0.00    -0.269 N 
ATOM     17  C   UNL     1      14.053   9.579  15.899  0.00  0.00    +0.304 C 
ATOM     37  H   UNL     1      15.050   9.765  17.719  0.00  0.00    +0.151 HD
ATOM     38  H   UNL     1      15.354  11.144  16.248  0.00  0.00    +0.156 HD
ENDROOT
BRANCH   6  13
ATOM      1  O   UNL     1      11.993   7.196  19.059  0.00  0.00    -0.370 OA
ATOM      2  O   UNL     1      14.933   7.872  19.946  0.00  0.00    -0.370 OA
ATOM     10  C   UNL     1      13.661   8.523  20.125  0.00  0.00    +0.175 C 
ATOM     11  C   UNL     1      12.869   8.315  18.850  0.00  0.00    +0.171 C 
ATOM     12  C   UNL     1      12.862   7.808  21.197  0.00  0.00    +0.166 C 
ATOM     13  C   UNL     1      13.914   7.974  17.811  0.00  0.00    +0.131 C 
ATOM     14  C   UNL     1      12.119   6.734  20.411  0.00  0.00    +0.190 C 
ATOM     15  C   UNL     1      14.980   7.283  18.640  0.00  0.00    +0.185 C 
BRANCH  12   5
ATOM      5  N   UNL     1      12.008   8.719  21.964  0.00  0.00    -0.243 N 
ATOM      7  N   UNL     1      10.809   8.315  22.403  0.00  0.00    -0.065 NA
ATOM      8  N   UNL     1      10.270   9.338  23.056  0.00  0.00    -0.129 NA
ATOM     16  C   UNL     1      12.276  10.001  22.317  0.00  0.00    +0.139 A 
ATOM     18  C   UNL     1      11.156  10.379  23.013  0.00  0.00    +0.113 A 
BRANCH  18  19
ATOM     19  C   UNL     1      10.937  11.659  23.606  0.00  0.00    +0.004 A 
ATOM     21  C   UNL     1      10.726  12.783  22.800  0.00  0.00    +0.010 A 
ATOM     22  C   UNL     1      10.931  11.800  24.998  0.00  0.00    +0.010 A 
ATOM     25  C   UNL     1      10.512  14.033  23.380  0.00  0.00    +0.001 A 
ATOM     26  C   UNL     1      10.716  13.051  25.577  0.00  0.00    +0.001 A 
ATOM     27  C   UNL     1      10.507  14.168  24.769  0.00  0.00    +0.000 A 
ENDBRANCH  18  19
ENDBRANCH  12   5
ENDBRANCH   6  13
BRANCH   9  20
ATOM     20  C   UNL     1      14.607  11.498  14.352  0.00  0.00    +0.035 A 
ATOM     23  C   UNL     1      13.474  12.263  14.125  0.00  0.00    +0.027 A 
ATOM     24  C   UNL     1      15.635  11.439  13.425  0.00  0.00    +0.027 A 
ATOM     28  C   UNL     1      13.368  12.989  12.938  0.00  0.00    +0.048 A 
ATOM     29  C   UNL     1      15.529  12.164  12.238  0.00  0.00    +0.048 A 
ATOM     30  C   UNL     1      14.394  12.938  11.995  0.00  0.00    +0.129 A 
BRANCH  30   4
ATOM      4  O   UNL     1      14.291  13.648  10.838  0.00  0.00    -0.456 OA
BRANCH   4  31
ATOM     31  C   UNL     1      14.079  12.941   9.666  0.00  0.00    +0.128 A 
ATOM     32  C   UNL     1      12.831  12.398   9.423  0.00  0.00    +0.046 A 
ATOM     33  C   UNL     1      15.122  12.796   8.770  0.00  0.00    +0.046 A 
ATOM     34  C   UNL     1      12.618  11.686   8.243  0.00  0.00    +0.004 A 
ATOM     35  C   UNL     1      14.910  12.083   7.589  0.00  0.00    +0.004 A 
ATOM     36  C   UNL     1      13.658  11.529   7.326  0.00  0.00    +0.000 A 
ENDBRANCH   4  31
ENDBRANCH  30   4
ENDBRANCH   9  20
TORSDOF 6
ENDMDL
MODEL 4
REMARK VINA RESULT:      -7.7     24.995     27.538
REMARK  Name = 11886737
REMARK  6 active torsions:
REMARK  status: ('A' for Active; 'I' for Inactive)
REMARK    1  A    between atoms: O_4  and  C_30
REMARK    2  A    between atoms: O_4  and  C_31
REMARK    3  A    between atoms: N_5  and  C_12
REMARK    4  A    between atoms: N_6  and  C_13
REMARK    5  A    between atoms: N_9  and  C_20
REMARK    6  A    between atoms: C_18  and  C_19
REMARK                            x       y       z     vdW  Elec       q    Type
REMARK                         _______ _______ _______ _____ _____    ______ ____
ROOT
ATOM      3  O   UNL     1      -8.863  -8.476  17.875  0.00  0.00    -0.252 OA
ATOM      6  N   UNL     1      -9.316 -10.735  18.078  0.00  0.00    -0.292 N 
ATOM      9  N   UNL     1     -10.735  -9.431  16.827  0.00  0.00    -0.269 N 
ATOM     17  C   UNL     1      -9.577  -9.441  17.611  0.00  0.00    +0.304 C 
ATOM     37  H   UNL     1      -9.914 -11.491  17.760  0.00  0.00    +0.151 HD
ATOM     38  H   UNL     1     -11.211 -10.322  16.708  0.00  0.00    +0.156 HD
ENDROOT
BRANCH   6  13
ATOM      1  O   UNL     1      -5.858 -10.475  19.230  0.00  0.00    -0.370 OA
ATOM      2  O   UNL     1      -7.230 -13.016  17.984  0.00  0.00    -0.370 OA
ATOM     10  C   UNL     1      -6.506 -11.901  17.433  0.00  0.00    +0.175 C 
ATOM     11  C   UNL     1      -6.884 -10.678  18.245  0.00  0.00    +0.171 C 
ATOM     12  C   UNL     1      -5.020 -12.080  17.673  0.00  0.00    +0.166 C 
ATOM     13  C   UNL     1      -8.185 -11.059  18.914  0.00  0.00    +0.131 C 
ATOM     14  C   UNL     1      -4.815 -11.442  19.042  0.00  0.00    +0.190 C 
ATOM     15  C   UNL     1      -8.036 -12.559  19.079  0.00  0.00    +0.185 C 
BRANCH  12   5
ATOM      5  N   UNL     1      -4.204 -11.515  16.595  0.00  0.00    -0.243 N 
ATOM      7  N   UNL     1      -2.978 -11.039  16.853  0.00  0.00    -0.065 NA
ATOM      8  N   UNL     1      -2.484 -10.597  15.702  0.00  0.00    -0.129 NA
ATOM     16  C   UNL     1      -4.533 -11.396  15.285  0.00  0.00    +0.139 A 
ATOM     18  C   UNL     1      -3.424 -10.808  14.732  0.00  0.00    +0.113 A 
BRANCH  18  19
ATOM     19  C   UNL     1      -3.263 -10.465  13.355  0.00  0.00    +0.004 A 
ATOM     21  C   UNL     1      -1.983 -10.297  12.814  0.00  0.00    +0.010 A 
ATOM     22  C   UNL     1      -4.383 -10.292  12.536  0.00  0.00    +0.010 A 
ATOM     25  C   UNL     1      -1.827  -9.962  11.470  0.00  0.00    +0.001 A 
ATOM     26  C   UNL     1      -4.226  -9.957  11.190  0.00  0.00    +0.001 A 
ATOM     27  C   UNL     1      -2.948  -9.791  10.657  0.00  0.00    +0.000 A 
ENDBRANCH  18  19
ENDBRANCH  12   5
ENDBRANCH   6  13
BRANCH   9  20
ATOM     20  C   UNL     1     -11.332  -8.327  16.175  0.00  0.00    +0.035 A 
ATOM     23  C   UNL     1     -10.524  -7.334  15.646  0.00  0.00    +0.027 A 
ATOM     24  C   UNL     1     -12.712  -8.260  16.080  0.00  0.00    +0.027 A 
ATOM     28  C   UNL     1     -11.113  -6.245  15.004  0.00  0.00    +0.048 A 
ATOM     29  C   UNL     1     -13.302  -7.172  15.438  0.00  0.00    +0.048 A 
ATOM     30  C   UNL     1     -12.502  -6.163  14.900  0.00  0.00    +0.129 A 
BRANCH  30   4
ATOM      4  O   UNL     1     -13.076  -5.101  14.272  0.00  0.00    -0.456 OA
BRANCH   4  31
ATOM     31  C   UNL     1     -12.719  -4.862  12.955  0.00  0.00    +0.128 A 
ATOM     32  C   UNL     1     -12.768  -5.901  12.045  0.00  0.00    +0.046 A 
ATOM     33  C   UNL     1     -12.323  -3.590  12.586  0.00  0.00    +0.046 A 
ATOM     34  C   UNL     1     -12.408  -5.661  10.720  0.00  0.00    +0.004 A 
ATOM     35  C   UNL     1     -11.963  -3.348  11.260  0.00  0.00    +0.004 A 
ATOM     36  C   UNL     1     -12.006  -4.383  10.327  0.00  0.00    +0.000 A 
ENDBRANCH   4  31
ENDBRANCH  30   4
ENDBRANCH   9  20
TORSDOF 6
ENDMDL
MODEL 5
REMARK VINA RESULT:      -7.6     27.603     30.280
REMARK  Name = 11886737
REMARK  6 active torsions:
REMARK  status: ('A' for Active; 'I' for Inactive)
REMARK    1  A    between atoms: O_4  and  C_30
REMARK    2  A    between atoms: O_4  and  C_31
REMARK    3  A    between atoms: N_5  and  C_12
REMARK    4  A    between atoms: N_6  and  C_13
REMARK    5  A    between atoms: N_9  and  C_20
REMARK    6  A    between atoms: C_18  and  C_19
REMARK                            x       y       z     vdW  Elec       q    Type
REMARK                         _______ _______ _______ _____ _____    ______ ____
ROOT
ATOM      3  O   UNL     1      -9.955 -10.721  20.464  0.00  0.00    -0.252 OA
ATOM      6  N   UNL     1      -8.755 -10.854  18.492  0.00  0.00    -0.292 N 
ATOM      9  N   UNL     1     -10.963 -10.227  18.402  0.00  0.00    -0.269 N 
ATOM     17  C   UNL     1      -9.912 -10.608  19.242  0.00  0.00    +0.304 C 
ATOM     37  H   UNL     1      -8.780 -10.672  17.494  0.00  0.00    +0.151 HD
ATOM     38  H   UNL     1     -10.757 -10.183  17.407  0.00  0.00    +0.156 HD
ENDROOT
BRANCH   6  13
ATOM      1  O   UNL     1      -5.141 -10.748  19.027  0.00  0.00    -0.370 OA
ATOM      2  O   UNL     1      -6.788 -13.153  17.846  0.00  0.00    -0.370 OA
ATOM     10  C   UNL     1      -6.139 -12.006  17.265  0.00  0.00    +0.175 C 
ATOM     11  C   UNL     1      -6.330 -10.850  18.227  0.00  0.00    +0.171 C 
ATOM     12  C   UNL     1      -4.640 -12.229  17.222  0.00  0.00    +0.166 C 
ATOM     13  C   UNL     1      -7.504 -11.265  19.084  0.00  0.00    +0.131 C 
ATOM     14  C   UNL     1      -4.178 -11.711  18.579  0.00  0.00    +0.190 C 
ATOM     15  C   UNL     1      -7.375 -12.776  19.100  0.00  0.00    +0.185 C 
BRANCH  12   5
ATOM      5  N   UNL     1      -4.010 -11.588  16.065  0.00  0.00    -0.243 N 
ATOM      7  N   UNL     1      -2.748 -11.146  16.140  0.00  0.00    -0.065 NA
ATOM      8  N   UNL     1      -2.450 -10.619  14.958  0.00  0.00    -0.129 NA
ATOM     16  C   UNL     1      -4.558 -11.364  14.845  0.00  0.00    +0.139 A 
ATOM     18  C   UNL     1      -3.548 -10.745  14.153  0.00  0.00    +0.113 A 
BRANCH  18  19
ATOM     19  C   UNL     1      -3.619 -10.296  12.799  0.00  0.00    +0.004 A 
ATOM     21  C   UNL     1      -2.461 -10.220  12.018  0.00  0.00    +0.010 A 
ATOM     22  C   UNL     1      -4.848  -9.928  12.242  0.00  0.00    +0.010 A 
ATOM     25  C   UNL     1      -2.531  -9.782  10.697  0.00  0.00    +0.001 A 
ATOM     26  C   UNL     1      -4.918  -9.489  10.919  0.00  0.00    +0.001 A 
ATOM     27  C   UNL     1      -3.760  -9.416  10.147  0.00  0.00    +0.000 A 
ENDBRANCH  18  19
ENDBRANCH  12   5
ENDBRANCH   6  13
BRANCH   9  20
ATOM     20  C   UNL     1     -12.288  -9.894  18.767  0.00  0.00    +0.035 A 
ATOM     23  C   UNL     1     -13.206  -9.582  17.777  0.00  0.00    +0.027 A 
ATOM     24  C   UNL     1     -12.640  -9.884  20.106  0.00  0.00    +0.027 A 
ATOM     28  C   UNL     1     -14.512  -9.253  18.138  0.00  0.00    +0.048 A 
ATOM     29  C   UNL     1     -13.947  -9.555  20.468  0.00  0.00    +0.048 A 
ATOM     30  C   UNL     1     -14.883  -9.238  19.482  0.00  0.00    +0.129 A 
BRANCH  30   4
ATOM      4  O   UNL     1     -16.158  -8.919  19.834  0.00  0.00    -0.456 OA
BRANCH   4  31
ATOM     31  C   UNL     1     -16.404  -7.623  20.257  0.00  0.00    +0.128 A 
ATOM     32  C   UNL     1     -16.214  -7.302  21.589  0.00  0.00    +0.046 A 
ATOM     33  C   UNL     1     -16.832  -6.684  19.337  0.00  0.00    +0.046 A 
ATOM     34  C   UNL     1     -16.461  -5.998  22.015  0.00  0.00    +0.004 A 
ATOM     35  C   UNL     1     -17.079  -5.378  19.762  0.00  0.00    +0.004 A 
ATOM     36  C   UNL     1     -16.894  -5.035  21.101  0.00  0.00    +0.000 A 
ENDBRANCH   4  31
ENDBRANCH  30   4
ENDBRANCH   9  20
TORSDOF 6
ENDMDL
MODEL 6
REMARK VINA RESULT:      -7.3     24.871     27.280
REMARK  Name = 11886737
REMARK  6 active torsions:
REMARK  status: ('A' for Active; 'I' for Inactive)
REMARK    1  A    between atoms: O_4  and  C_30
REMARK    2  A    between atoms: O_4  and  C_31
REMARK    3  A    between atoms: N_5  and  C_12
REMARK    4  A    between atoms: N_6  and  C_13
REMARK    5  A    between atoms: N_9  and  C_20
REMARK    6  A    between atoms: C_18  and  C_19
REMARK                            x       y       z     vdW  Elec       q    Type
REMARK                         _______ _______ _______ _____ _____    ______ ____
ROOT
ATOM      3  O   UNL     1      -5.586 -12.270  14.426  0.00  0.00    -0.252 OA
ATOM      6  N   UNL     1      -4.379 -11.545  16.261  0.00  0.00    -0.292 N 
ATOM      9  N   UNL     1      -3.963 -10.587  14.215  0.00  0.00    -0.269 N 
ATOM     17  C   UNL     1      -4.726 -11.534  14.904  0.00  0.00    +0.304 C 
ATOM     37  H   UNL     1      -3.707 -10.859  16.592  0.00  0.00    +0.151 HD
ATOM     38  H   UNL     1      -3.290 -10.058  14.764  0.00  0.00    +0.156 HD
ENDROOT
BRANCH   6  13
ATOM      1  O   UNL     1      -7.175 -13.239  17.893  0.00  0.00    -0.370 OA
ATOM      2  O   UNL     1      -5.233 -11.142  19.206  0.00  0.00    -0.370 OA
ATOM     10  C   UNL     1      -6.481 -11.039  18.496  0.00  0.00    +0.175 C 
ATOM     11  C   UNL     1      -6.463 -12.091  17.405  0.00  0.00    +0.171 C 
ATOM     12  C   UNL     1      -7.626 -11.445  19.404  0.00  0.00    +0.166 C 
ATOM     13  C   UNL     1      -4.998 -12.421  17.227  0.00  0.00    +0.131 C 
ATOM     14  C   UNL     1      -7.714 -12.952  19.191  0.00  0.00    +0.190 C 
ATOM     15  C   UNL     1      -4.441 -12.184  18.618  0.00  0.00    +0.185 C 
BRANCH  12   5
ATOM      5  N   UNL     1      -8.858 -10.705  19.120  0.00  0.00    -0.243 N 
ATOM      7  N   UNL     1      -9.914 -10.810  19.937  0.00  0.00    -0.065 NA
ATOM      8  N   UNL     1     -10.871 -10.038  19.434  0.00  0.00    -0.129 NA
ATOM     16  C   UNL     1      -9.099  -9.871  18.077  0.00  0.00    +0.139 A 
ATOM     18  C   UNL     1     -10.388  -9.456  18.295  0.00  0.00    +0.113 A 
BRANCH  18  19
ATOM     19  C   UNL     1     -11.124  -8.555  17.467  0.00  0.00    +0.004 A 
ATOM     21  C   UNL     1     -10.545  -7.353  17.044  0.00  0.00    +0.010 A 
ATOM     22  C   UNL     1     -12.429  -8.864  17.074  0.00  0.00    +0.010 A 
ATOM     25  C   UNL     1     -11.263  -6.473  16.235  0.00  0.00    +0.001 A 
ATOM     26  C   UNL     1     -13.148  -7.984  16.264  0.00  0.00    +0.001 A 
ATOM     27  C   UNL     1     -12.566  -6.788  15.845  0.00  0.00    +0.000 A 
ENDBRANCH  18  19
ENDBRANCH  12   5
ENDBRANCH   6  13
BRANCH   9  20
ATOM     20  C   UNL     1      -4.011 -10.270  12.837  0.00  0.00    +0.035 A 
ATOM     23  C   UNL     1      -2.872 -10.431  12.064  0.00  0.00    +0.027 A 
ATOM     24  C   UNL     1      -5.195  -9.805  12.289  0.00  0.00    +0.027 A 
ATOM     28  C   UNL     1      -2.921 -10.118  10.706  0.00  0.00    +0.048 A 
ATOM     29  C   UNL     1      -5.243  -9.492  10.930  0.00  0.00    +0.048 A 
ATOM     30  C   UNL     1      -4.105  -9.648  10.139  0.00  0.00    +0.129 A 
BRANCH  30   4
ATOM      4  O   UNL     1      -4.152  -9.345   8.813  0.00  0.00    -0.456 OA
BRANCH   4  31
ATOM     31  C   UNL     1      -4.909 -10.163   7.992  0.00  0.00    +0.128 A 
ATOM     32  C   UNL     1      -4.556 -11.493   7.856  0.00  0.00    +0.046 A 
ATOM     33  C   UNL     1      -5.999  -9.628   7.330  0.00  0.00    +0.046 A 
ATOM     34  C   UNL     1      -5.319 -12.317   7.029  0.00  0.00    +0.004 A 
ATOM     35  C   UNL     1      -6.763 -10.452   6.502  0.00  0.00    +0.004 A 
ATOM     36  C   UNL     1      -6.423 -11.796   6.352  0.00  0.00    +0.000 A 
ENDBRANCH   4  31
ENDBRANCH  30   4
ENDBRANCH   9  20
TORSDOF 6
ENDMDL
MODEL 7
REMARK VINA RESULT:      -7.3     22.696     24.343
REMARK  Name = 11886737
REMARK  6 active torsions:
REMARK  status: ('A' for Active; 'I' for Inactive)
REMARK    1  A    between atoms: O_4  and  C_30
REMARK    2  A    between atoms: O_4  and  C_31
REMARK    3  A    between atoms: N_5  and  C_12
REMARK    4  A    between atoms: N_6  and  C_13
REMARK    5  A    between atoms: N_9  and  C_20
REMARK    6  A    between atoms: C_18  and  C_19
REMARK                            x       y       z     vdW  Elec       q    Type
REMARK                         _______ _______ _______ _____ _____    ______ ____
ROOT
ATOM      3  O   UNL     1      -9.234  -9.069   8.841  0.00  0.00    -0.252 OA
ATOM      6  N   UNL     1      -7.332  -9.048   7.525  0.00  0.00    -0.292 N 
ATOM      9  N   UNL     1      -8.536  -7.106   7.759  0.00  0.00    -0.269 N 
ATOM     17  C   UNL     1      -8.455  -8.455   8.116  0.00  0.00    +0.304 C 
ATOM     37  H   UNL     1      -6.699  -8.458   6.995  0.00  0.00    +0.151 HD
ATOM     38  H   UNL     1      -7.805  -6.753   7.147  0.00  0.00    +0.156 HD
ENDROOT
BRANCH   6  13
ATOM      1  O   UNL     1      -6.621 -12.061   9.466  0.00  0.00    -0.370 OA
ATOM      2  O   UNL     1      -4.622 -10.537   7.576  0.00  0.00    -0.370 OA
ATOM     10  C   UNL     1      -4.953 -10.431   8.973  0.00  0.00    +0.175 C 
ATOM     11  C   UNL     1      -6.442 -10.684   9.100  0.00  0.00    +0.171 C 
ATOM     12  C   UNL     1      -4.302 -11.563   9.745  0.00  0.00    +0.166 C 
ATOM     13  C   UNL     1      -6.984 -10.437   7.711  0.00  0.00    +0.131 C 
ATOM     14  C   UNL     1      -5.339 -12.676   9.659  0.00  0.00    +0.190 C 
ATOM     15  C   UNL     1      -5.812 -10.831   6.831  0.00  0.00    +0.185 C 
BRANCH  12   5
ATOM      5  N   UNL     1      -3.922 -11.170  11.105  0.00  0.00    -0.243 N 
ATOM      7  N   UNL     1      -2.702 -10.676  11.351  0.00  0.00    -0.065 NA
ATOM      8  N   UNL     1      -2.645 -10.414  12.652  0.00  0.00    -0.129 NA
ATOM     16  C   UNL     1      -4.681 -11.240  12.227  0.00  0.00    +0.139 A 
ATOM     18  C   UNL     1      -3.849 -10.753  13.203  0.00  0.00    +0.113 A 
BRANCH  18  19
ATOM     19  C   UNL     1      -4.178 -10.618  14.585  0.00  0.00    +0.004 A 
ATOM     21  C   UNL     1      -5.405 -10.063  14.968  0.00  0.00    +0.010 A 
ATOM     22  C   UNL     1      -3.277 -11.037  15.570  0.00  0.00    +0.010 A 
ATOM     25  C   UNL     1      -5.726  -9.930  16.318  0.00  0.00    +0.001 A 
ATOM     26  C   UNL     1      -3.599 -10.904  16.921  0.00  0.00    +0.001 A 
ATOM     27  C   UNL     1      -4.823 -10.351  17.295  0.00  0.00    +0.000 A 
ENDBRANCH  18  19
ENDBRANCH  12   5
ENDBRANCH   6  13
BRANCH   9  20
ATOM     20  C   UNL     1      -9.517  -6.164   8.147  0.00  0.00    +0.035 A 
ATOM     23  C   UNL     1     -10.857  -6.502   8.050  0.00  0.00    +0.027 A 
ATOM     24  C   UNL     1      -9.118  -4.922   8.614  0.00  0.00    +0.027 A 
ATOM     28  C   UNL     1     -11.824  -5.572   8.431  0.00  0.00    +0.048 A 
ATOM     29  C   UNL     1     -10.085  -3.992   8.996  0.00  0.00    +0.048 A 
ATOM     30  C   UNL     1     -11.439  -4.318   8.903  0.00  0.00    +0.129 A 
BRANCH  30   4
ATOM      4  O   UNL     1     -12.383  -3.411   9.278  0.00  0.00    -0.456 OA
BRANCH   4  31
ATOM     31  C   UNL     1     -13.008  -3.600  10.499  0.00  0.00    +0.128 A 
ATOM     32  C   UNL     1     -14.388  -3.686  10.543  0.00  0.00    +0.046 A 
ATOM     33  C   UNL     1     -12.237  -3.697  11.642  0.00  0.00    +0.046 A 
ATOM     34  C   UNL     1     -15.017  -3.875  11.773  0.00  0.00    +0.004 A 
ATOM     35  C   UNL     1     -12.865  -3.888  12.873  0.00  0.00    +0.004 A 
ATOM     36  C   UNL     1     -14.256  -3.977  12.938  0.00  0.00    +0.000 A 
ENDBRANCH   4  31
ENDBRANCH  30   4
ENDBRANCH   9  20
TORSDOF 6
ENDMDL
MODEL 8
REMARK VINA RESULT:      -7.3     31.983     36.345
REMARK  Name = 11886737
REMARK  6 active torsions:
REMARK  status: ('A' for Active; 'I' for Inactive)
REMARK    1  A    between atoms: O_4  and  C_30
REMARK    2  A    between atoms: O_4  and  C_31
REMARK    3  A    between atoms: N_5  and  C_12
REMARK    4  A    between atoms: N_6  and  C_13
REMARK    5  A    between atoms: N_9  and  C_20
REMARK    6  A    between atoms: C_18  and  C_19
REMARK                            x       y       z     vdW  Elec       q    Type
REMARK                         _______ _______ _______ _____ _____    ______ ____
ROOT
ATOM      3  O   UNL     1     -11.445   9.784  27.774  0.00  0.00    -0.252 OA
ATOM      6  N   UNL     1     -12.338  11.367  29.204  0.00  0.00    -0.292 N 
ATOM      9  N   UNL     1     -12.987  11.377  27.001  0.00  0.00    -0.269 N 
ATOM     17  C   UNL     1     -12.187  10.746  27.958  0.00  0.00    +0.304 C 
ATOM     37  H   UNL     1     -13.021  12.113  29.291  0.00  0.00    +0.151 HD
ATOM     38  H   UNL     1     -13.544  12.165  27.321  0.00  0.00    +0.156 HD
ENDROOT
BRANCH   6  13
ATOM      1  O   UNL     1     -11.105   8.927  31.629  0.00  0.00    -0.370 OA
ATOM      2  O   UNL     1     -13.146  11.254  32.188  0.00  0.00    -0.370 OA
ATOM     10  C   UNL     1     -13.284   9.883  31.769  0.00  0.00    +0.175 C 
ATOM     11  C   UNL     1     -12.119   9.578  30.848  0.00  0.00    +0.171 C 
ATOM     12  C   UNL     1     -13.091   8.959  32.955  0.00  0.00    +0.166 C 
ATOM     13  C   UNL     1     -11.637  10.936  30.390  0.00  0.00    +0.131 C 
ATOM     14  C   UNL     1     -11.584   8.727  32.966  0.00  0.00    +0.190 C 
ATOM     15  C   UNL     1     -11.975  11.816  31.578  0.00  0.00    +0.185 C 
BRANCH  12   5
ATOM      5  N   UNL     1     -13.906   7.745  32.861  0.00  0.00    -0.243 N 
ATOM      7  N   UNL     1     -15.242   7.824  32.883  0.00  0.00    -0.065 NA
ATOM      8  N   UNL     1     -15.706   6.583  32.782  0.00  0.00    -0.129 NA
ATOM     16  C   UNL     1     -13.471   6.465  32.746  0.00  0.00    +0.139 A 
ATOM     18  C   UNL     1     -14.634   5.739  32.697  0.00  0.00    +0.113 A 
BRANCH  18  19
ATOM     19  C   UNL     1     -14.724   4.319  32.577  0.00  0.00    +0.004 A 
ATOM     21  C   UNL     1     -14.581   3.505  33.706  0.00  0.00    +0.010 A 
ATOM     22  C   UNL     1     -14.955   3.730  31.330  0.00  0.00    +0.010 A 
ATOM     25  C   UNL     1     -14.669   2.118  33.589  0.00  0.00    +0.001 A 
ATOM     26  C   UNL     1     -15.043   2.342  31.213  0.00  0.00    +0.001 A 
ATOM     27  C   UNL     1     -14.900   1.536  32.342  0.00  0.00    +0.000 A 
ENDBRANCH  18  19
ENDBRANCH  12   5
ENDBRANCH   6  13
BRANCH   9  20
ATOM     20  C   UNL     1     -13.118  11.053  25.630  0.00  0.00    +0.035 A 
ATOM     23  C   UNL     1     -14.259  10.397  25.195  0.00  0.00    +0.027 A 
ATOM     24  C   UNL     1     -12.104  11.398  24.752  0.00  0.00    +0.027 A 
ATOM     28  C   UNL     1     -14.387  10.078  23.843  0.00  0.00    +0.048 A 
ATOM     29  C   UNL     1     -12.233  11.078  23.400  0.00  0.00    +0.048 A 
ATOM     30  C   UNL     1     -13.375  10.417  22.946  0.00  0.00    +0.129 A 
BRANCH  30   4
ATOM      4  O   UNL     1     -13.501  10.107  21.627  0.00  0.00    -0.456 OA
BRANCH   4  31
ATOM     31  C   UNL     1     -12.861   8.967  21.169  0.00  0.00    +0.128 A 
ATOM     32  C   UNL     1     -13.309   7.729  21.590  0.00  0.00    +0.046 A 
ATOM     33  C   UNL     1     -11.791   9.098  20.304  0.00  0.00    +0.046 A 
ATOM     34  C   UNL     1     -12.664   6.581  21.130  0.00  0.00    +0.004 A 
ATOM     35  C   UNL     1     -11.145   7.951  19.842  0.00  0.00    +0.004 A 
ATOM     36  C   UNL     1     -11.582   6.692  20.255  0.00  0.00    +0.000 A 
ENDBRANCH   4  31
ENDBRANCH  30   4
ENDBRANCH   9  20
TORSDOF 6
ENDMDL
MODEL 9
REMARK VINA RESULT:      -7.3     38.575     41.287
REMARK  Name = 11886737
REMARK  6 active torsions:
REMARK  status: ('A' for Active; 'I' for Inactive)
REMARK    1  A    between atoms: O_4  and  C_30
REMARK    2  A    between atoms: O_4  and  C_31
REMARK    3  A    between atoms: N_5  and  C_12
REMARK    4  A    between atoms: N_6  and  C_13
REMARK    5  A    between atoms: N_9  and  C_20
REMARK    6  A    between atoms: C_18  and  C_19
REMARK                            x       y       z     vdW  Elec       q    Type
REMARK                         _______ _______ _______ _____ _____    ______ ____
ROOT
ATOM      3  O   UNL     1      -7.428  11.036  36.809  0.00  0.00    -0.252 OA
ATOM      6  N   UNL     1      -7.799  10.376  34.623  0.00  0.00    -0.292 N 
ATOM      9  N   UNL     1      -5.944   9.578  35.719  0.00  0.00    -0.269 N 
ATOM     17  C   UNL     1      -7.079  10.390  35.824  0.00  0.00    +0.304 C 
ATOM     37  H   UNL     1      -7.483   9.763  33.878  0.00  0.00    +0.151 HD
ATOM     38  H   UNL     1      -5.801   9.111  34.828  0.00  0.00    +0.156 HD
ENDROOT
BRANCH   6  13
ATOM      1  O   UNL     1     -11.369  11.056  35.004  0.00  0.00    -0.370 OA
ATOM      2  O   UNL     1      -9.855  10.457  32.314  0.00  0.00    -0.370 OA
ATOM     10  C   UNL     1     -10.511   9.633  33.295  0.00  0.00    +0.175 C 
ATOM     11  C   UNL     1     -10.235  10.248  34.653  0.00  0.00    +0.171 C 
ATOM     12  C   UNL     1     -12.015   9.728  33.127  0.00  0.00    +0.166 C 
ATOM     13  C   UNL     1      -9.021  11.120  34.429  0.00  0.00    +0.131 C 
ATOM     14  C   UNL     1     -12.381  10.927  33.996  0.00  0.00    +0.190 C 
ATOM     15  C   UNL     1      -9.184  11.536  32.979  0.00  0.00    +0.185 C 
BRANCH  12   5
ATOM      5  N   UNL     1     -12.700   8.479  33.470  0.00  0.00    -0.243 N 
ATOM      7  N   UNL     1     -13.045   8.224  34.739  0.00  0.00    -0.065 NA
ATOM      8  N   UNL     1     -13.642   7.037  34.747  0.00  0.00    -0.129 NA
ATOM     16  C   UNL     1     -13.060   7.477  32.630  0.00  0.00    +0.139 A 
ATOM     18  C   UNL     1     -13.659   6.566  33.463  0.00  0.00    +0.113 A 
BRANCH  18  19
ATOM     19  C   UNL     1     -14.218   5.315  33.063  0.00  0.00    +0.004 A 
ATOM     21  C   UNL     1     -15.531   4.983  33.415  0.00  0.00    +0.010 A 
ATOM     22  C   UNL     1     -13.457   4.408  32.318  0.00  0.00    +0.010 A 
ATOM     25  C   UNL     1     -16.077   3.761  33.025  0.00  0.00    +0.001 A 
ATOM     26  C   UNL     1     -14.004   3.185  31.927  0.00  0.00    +0.001 A 
ATOM     27  C   UNL     1     -15.313   2.861  32.280  0.00  0.00    +0.000 A 
ENDBRANCH  18  19
ENDBRANCH  12   5
ENDBRANCH   6  13
BRANCH   9  20
ATOM     20  C   UNL     1      -4.964   9.327  36.706  0.00  0.00    +0.035 A 
ATOM     23  C   UNL     1      -5.355   8.828  37.939  0.00  0.00    +0.027 A 
ATOM     24  C   UNL     1      -3.633   9.584  36.421  0.00  0.00    +0.027 A 
ATOM     28  C   UNL     1      -4.387   8.581  38.912  0.00  0.00    +0.048 A 
ATOM     29  C   UNL     1      -2.665   9.336  37.395  0.00  0.00    +0.048 A 
ATOM     30  C   UNL     1      -3.043   8.835  38.641  0.00  0.00    +0.129 A 
BRANCH  30   4
ATOM      4  O   UNL     1      -2.098   8.592  39.591  0.00  0.00    -0.456 OA
BRANCH   4  31
ATOM     31  C   UNL     1      -1.630   7.294  39.715  0.00  0.00    +0.128 A 
ATOM     32  C   UNL     1      -0.454   6.939  39.079  0.00  0.00    +0.046 A 
ATOM     33  C   UNL     1      -2.350   6.388  40.471  0.00  0.00    +0.046 A 
ATOM     34  C   UNL     1       0.017   5.633  39.204  0.00  0.00    +0.004 A 
ATOM     35  C   UNL     1      -1.879   5.081  40.597  0.00  0.00    +0.004 A 
ATOM     36  C   UNL     1      -0.695   4.703  39.963  0.00  0.00    +0.000 A 
ENDBRANCH   4  31
ENDBRANCH  30   4
ENDBRANCH   9  20
TORSDOF 6
ENDMDL
MODEL 10
REMARK VINA RESULT:      -7.3     21.444     25.246
REMARK  Name = 11886737
REMARK  6 active torsions:
REMARK  status: ('A' for Active; 'I' for Inactive)
REMARK    1  A    between atoms: O_4  and  C_30
REMARK    2  A    between atoms: O_4  and  C_31
REMARK    3  A    between atoms: N_5  and  C_12
REMARK    4  A    between atoms: N_6  and  C_13
REMARK    5  A    between atoms: N_9  and  C_20
REMARK    6  A    between atoms: C_18  and  C_19
REMARK                            x       y       z     vdW  Elec       q    Type
REMARK                         _______ _______ _______ _____ _____    ______ ____
ROOT
ATOM      3  O   UNL     1      -7.217 -10.108   9.197  0.00  0.00    -0.252 OA
ATOM      6  N   UNL     1      -6.916  -9.185   7.098  0.00  0.00    -0.292 N 
ATOM      9  N   UNL     1      -5.063  -9.703   8.354  0.00  0.00    -0.269 N 
ATOM     17  C   UNL     1      -6.461  -9.709   8.315  0.00  0.00    +0.304 C 
ATOM     37  H   UNL     1      -6.228  -8.940   6.392  0.00  0.00    +0.151 HD
ATOM     38  H   UNL     1      -4.587  -9.335   7.535  0.00  0.00    +0.156 HD
ENDROOT
BRANCH   6  13
ATOM      1  O   UNL     1      -9.898  -9.698   5.049  0.00  0.00    -0.370 OA
ATOM      2  O   UNL     1      -8.559  -6.939   5.749  0.00  0.00    -0.370 OA
ATOM     10  C   UNL     1      -8.386  -7.891   4.683  0.00  0.00    +0.175 C 
ATOM     11  C   UNL     1      -8.546  -9.272   5.286  0.00  0.00    +0.171 C 
ATOM     12  C   UNL     1      -9.527  -7.769   3.691  0.00  0.00    +0.166 C 
ATOM     13  C   UNL     1      -8.315  -9.064   6.766  0.00  0.00    +0.131 C 
ATOM     14  C   UNL     1     -10.580  -8.711   4.263  0.00  0.00    +0.190 C 
ATOM     15  C   UNL     1      -8.807  -7.644   6.973  0.00  0.00    +0.185 C 
BRANCH  12   5
ATOM      5  N   UNL     1      -9.112  -8.062   2.317  0.00  0.00    -0.243 N 
ATOM      7  N   UNL     1      -7.815  -8.222   2.021  0.00  0.00    -0.065 NA
ATOM      8  N   UNL     1      -7.743  -8.474   0.719  0.00  0.00    -0.129 NA
ATOM     16  C   UNL     1      -9.906  -8.204   1.227  0.00  0.00    +0.139 A 
ATOM     18  C   UNL     1      -9.015  -8.466   0.218  0.00  0.00    +0.113 A 
BRANCH  18  19
ATOM     19  C   UNL     1      -9.351  -8.697  -1.151  0.00  0.00    +0.004 A 
ATOM     21  C   UNL     1     -10.494  -8.111  -1.705  0.00  0.00    +0.010 A 
ATOM     22  C   UNL     1      -8.541  -9.512  -1.948  0.00  0.00    +0.010 A 
ATOM     25  C   UNL     1     -10.822  -8.337  -3.041  0.00  0.00    +0.001 A 
ATOM     26  C   UNL     1      -8.870  -9.738  -3.286  0.00  0.00    +0.001 A 
ATOM     27  C   UNL     1     -10.011  -9.151  -3.832  0.00  0.00    +0.000 A 
ENDBRANCH  18  19
ENDBRANCH  12   5
ENDBRANCH   6  13
BRANCH   9  20
ATOM     20  C   UNL     1      -4.223 -10.147   9.401  0.00  0.00    +0.035 A 
ATOM     23  C   UNL     1      -4.177 -11.498   9.707  0.00  0.00    +0.027 A 
ATOM     24  C   UNL     1      -3.464  -9.223  10.101  0.00  0.00    +0.027 A 
ATOM     28  C   UNL     1      -3.348 -11.935  10.741  0.00  0.00    +0.048 A 
ATOM     29  C   UNL     1      -2.636  -9.660  11.135  0.00  0.00    +0.048 A 
ATOM     30  C   UNL     1      -2.579 -11.017  11.454  0.00  0.00    +0.129 A 
BRANCH  30   4
ATOM      4  O   UNL     1      -1.769 -11.445  12.462  0.00  0.00    -0.456 OA
BRANCH   4  31
ATOM     31  C   UNL     1      -2.214 -11.273  13.762  0.00  0.00    +0.128 A 
ATOM     32  C   UNL     1      -3.407 -11.855  14.148  0.00  0.00    +0.046 A 
ATOM     33  C   UNL     1      -1.453 -10.523  14.640  0.00  0.00    +0.046 A 
ATOM     34  C   UNL     1      -3.855 -11.682  15.457  0.00  0.00    +0.004 A 
ATOM     35  C   UNL     1      -1.901 -10.349  15.950  0.00  0.00    +0.004 A 
ATOM     36  C   UNL     1      -3.101 -10.929  16.359  0.00  0.00    +0.000 A 
ENDBRANCH   4  31
ENDBRANCH  30   4
ENDBRANCH   9  20
TORSDOF 6
ENDMDL
