MODEL 1
REMARK VINA RESULT:      -5.8      0.000      0.000
REMARK  Name = 7051087
REMARK  12 active torsions:
REMARK  status: ('A' for Active; 'I' for Inactive)
REMARK    1  A    between atoms: O_3  and  C_15
REMARK    2  A    between atoms: O_4  and  C_20
REMARK    3  A    between atoms: N_8  and  C_26
REMARK    4  A    between atoms: N_8  and  C_27
REMARK    5  A    between atoms: C_10  and  C_18
REMARK    6  A    between atoms: C_12  and  C_20
REMARK    7  A    between atoms: C_12  and  C_21
REMARK    8  A    between atoms: C_13  and  C_23
REMARK    9  A    between atoms: C_23  and  C_24
REMARK   10  A    between atoms: C_26  and  C_29
REMARK   11  A    between atoms: C_27  and  C_30
REMARK   12  A    between atoms: C_28  and  C_31
REMARK                            x       y       z     vdW  Elec       q    Type
REMARK                         _______ _______ _______ _____ _____    ______ ____
ROOT
ATOM      1  S   UNL     1      -5.564 -10.972  12.591  0.00  0.00    -0.057 S 
ATOM      6  O   UNL     1      -8.693  -8.422  10.339  0.00  0.00    -0.269 OA
ATOM      7  N   UNL     1      -7.715  -9.557  12.841  0.00  0.00    -0.229 NA
ATOM      9  N   UNL     1      -6.802  -9.763  10.620  0.00  0.00    -0.260 N 
ATOM     10  C   UNL     1      -7.848 -10.649  16.537  0.00  0.00    -0.019 C 
ATOM     11  C   UNL     1      -6.263 -10.759  16.644  0.00  0.00    +0.011 C 
ATOM     12  C   UNL     1      -5.674 -11.319  17.994  0.00  0.00    +0.021 C 
ATOM     13  C   UNL     1      -8.194  -9.680  15.315  0.00  0.00    +0.054 C 
ATOM     14  C   UNL     1      -8.409 -10.018  17.836  0.00  0.00    +0.010 C 
ATOM     15  C   UNL     1      -6.375 -10.615  19.190  0.00  0.00    +0.123 C 
ATOM     16  C   UNL     1      -5.652 -11.417  15.372  0.00  0.00    +0.049 C 
ATOM     17  C   UNL     1      -7.897 -10.672  19.112  0.00  0.00    +0.032 C 
ATOM     18  C   UNL     1      -8.532 -12.021  16.316  0.00  0.00    +0.012 C 
ATOM     19  C   UNL     1      -7.381 -10.031  14.096  0.00  0.00    +0.058 A 
ATOM     21  C   UNL     1      -4.161 -10.965  18.073  0.00  0.00    +0.016 C 
ATOM     22  C   UNL     1      -6.234 -10.797  14.147  0.00  0.00    +0.015 A 
ATOM     25  C   UNL     1      -6.832  -9.995  11.970  0.00  0.00    +0.165 A 
ATOM     28  C   UNL     1      -7.717  -8.998   9.863  0.00  0.00    +0.256 C 
ATOM     37  H   UNL     1      -6.029 -10.206  10.129  0.00  0.00    +0.157 HD
ENDROOT
BRANCH  28  31
ATOM      2  S   UNL     1      -8.207  -7.762   7.456  0.00  0.00    -0.092 S 
ATOM     31  C   UNL     1      -7.454  -8.964   8.414  0.00  0.00    +0.074 A 
ATOM     32  C   UNL     1      -6.650  -9.794   7.663  0.00  0.00    +0.021 A 
ATOM     33  C   UNL     1      -6.653  -9.438   6.284  0.00  0.00    +0.008 A 
ATOM     34  C   UNL     1      -7.460  -8.349   6.032  0.00  0.00    +0.046 A 
ENDBRANCH  28  31
BRANCH  15   3
ATOM      3  O   UNL     1      -5.957 -11.190  20.428  0.00  0.00    -0.391 OA
ATOM     35  H   UNL     1      -6.309 -10.636  21.145  0.00  0.00    +0.210 HD
ENDBRANCH  15   3
BRANCH  12  20
ATOM     20  C   UNL     1      -5.748 -12.855  18.138  0.00  0.00    +0.165 C 
BRANCH  20   4
ATOM      4  O   UNL     1      -4.490 -13.308  18.589  0.00  0.00    -0.394 OA
ATOM     36  H   UNL     1      -4.462 -13.176  19.551  0.00  0.00    +0.209 HD
ENDBRANCH  20   4
ENDBRANCH  12  20
BRANCH  13  23
ATOM     23  C   UNL     1      -9.690  -9.580  14.983  0.00  0.00    +0.106 C 
BRANCH  23  24
ATOM      5  O   UNL     1      -9.707  -7.424  16.031  0.00  0.00    -0.276 OA
ATOM      8  N   UNL     1     -11.358  -7.839  14.454  0.00  0.00    -0.302 N 
ATOM     24  C   UNL     1     -10.236  -8.185  15.216  0.00  0.00    +0.216 C 
BRANCH   8  26
ATOM     26  C   UNL     1     -11.968  -8.758  13.495  0.00  0.00    +0.104 C 
ATOM     29  C   UNL     1     -12.318  -8.055  12.200  0.00  0.00    +0.024 C 
ENDBRANCH   8  26
BRANCH   8  27
ATOM     27  C   UNL     1     -12.002  -6.535  14.559  0.00  0.00    +0.104 C 
ATOM     30  C   UNL     1     -13.113  -6.547  15.589  0.00  0.00    +0.024 C 
ENDBRANCH   8  27
ENDBRANCH  23  24
ENDBRANCH  13  23
TORSDOF 8
ENDMDL
MODEL 2
REMARK VINA RESULT:      -5.7      3.204      8.587
REMARK  Name = 7051087
REMARK  12 active torsions:
REMARK  status: ('A' for Active; 'I' for Inactive)
REMARK    1  A    between atoms: O_3  and  C_15
REMARK    2  A    between atoms: O_4  and  C_20
REMARK    3  A    between atoms: N_8  and  C_26
REMARK    4  A    between atoms: N_8  and  C_27
REMARK    5  A    between atoms: C_10  and  C_18
REMARK    6  A    between atoms: C_12  and  C_20
REMARK    7  A    between atoms: C_12  and  C_21
REMARK    8  A    between atoms: C_13  and  C_23
REMARK    9  A    between atoms: C_23  and  C_24
REMARK   10  A    between atoms: C_26  and  C_29
REMARK   11  A    between atoms: C_27  and  C_30
REMARK   12  A    between atoms: C_28  and  C_31
REMARK                            x       y       z     vdW  Elec       q    Type
REMARK                         _______ _______ _______ _____ _____    ______ ____
ROOT
ATOM      1  S   UNL     1      -9.712  -9.523  13.880  0.00  0.00    -0.057 S 
ATOM      6  O   UNL     1      -8.646 -10.424  18.287  0.00  0.00    -0.269 OA
ATOM      7  N   UNL     1      -7.798 -10.127  15.513  0.00  0.00    -0.229 NA
ATOM      9  N   UNL     1     -10.001  -9.890  16.462  0.00  0.00    -0.260 N 
ATOM     10  C   UNL     1      -5.472 -10.459  12.455  0.00  0.00    -0.019 C 
ATOM     11  C   UNL     1      -6.268  -9.354  11.630  0.00  0.00    +0.011 C 
ATOM     12  C   UNL     1      -5.819  -9.114  10.138  0.00  0.00    +0.021 C 
ATOM     13  C   UNL     1      -5.776 -10.231  14.007  0.00  0.00    +0.054 C 
ATOM     14  C   UNL     1      -3.950 -10.278  12.223  0.00  0.00    +0.010 C 
ATOM     15  C   UNL     1      -4.270  -9.001  10.080  0.00  0.00    +0.123 C 
ATOM     16  C   UNL     1      -7.806  -9.513  11.805  0.00  0.00    +0.049 C 
ATOM     17  C   UNL     1      -3.557 -10.166  10.757  0.00  0.00    +0.032 C 
ATOM     18  C   UNL     1      -5.865 -11.904  12.060  0.00  0.00    +0.012 C 
ATOM     19  C   UNL     1      -7.250 -10.031  14.247  0.00  0.00    +0.058 A 
ATOM     21  C   UNL     1      -6.400  -7.756   9.646  0.00  0.00    +0.016 C 
ATOM     22  C   UNL     1      -8.140  -9.691  13.248  0.00  0.00    +0.015 A 
ATOM     25  C   UNL     1      -9.089  -9.887  15.439  0.00  0.00    +0.165 A 
ATOM     28  C   UNL     1      -9.752 -10.154  17.827  0.00  0.00    +0.256 C 
ATOM     37  H   UNL     1     -10.956  -9.683  16.181  0.00  0.00    +0.157 HD
ENDROOT
BRANCH  28  31
ATOM      2  S   UNL     1     -12.427  -9.558  18.056  0.00  0.00    -0.092 S 
ATOM     31  C   UNL     1     -10.945 -10.132  18.693  0.00  0.00    +0.074 A 
ATOM     32  C   UNL     1     -11.064 -10.522  20.009  0.00  0.00    +0.021 A 
ATOM     33  C   UNL     1     -12.389 -10.347  20.501  0.00  0.00    +0.008 A 
ATOM     34  C   UNL     1     -13.233  -9.830  19.542  0.00  0.00    +0.046 A 
ENDBRANCH  28  31
BRANCH  15   3
ATOM      3  O   UNL     1      -3.822  -8.911   8.728  0.00  0.00    -0.391 OA
ATOM     35  H   UNL     1      -3.453  -8.021   8.597  0.00  0.00    +0.210 HD
ENDBRANCH  15   3
BRANCH  12  20
ATOM     20  C   UNL     1      -6.333 -10.171   9.136  0.00  0.00    +0.165 C 
BRANCH  20   4
ATOM      4  O   UNL     1      -6.597  -9.517   7.914  0.00  0.00    -0.394 OA
ATOM     36  H   UNL     1      -6.927  -8.628   8.127  0.00  0.00    +0.209 HD
ENDBRANCH  20   4
ENDBRANCH  12  20
BRANCH  13  23
ATOM     23  C   UNL     1      -5.197 -11.307  14.936  0.00  0.00    +0.106 C 
BRANCH  23  24
ATOM      5  O   UNL     1      -4.564  -9.595  16.489  0.00  0.00    -0.276 OA
ATOM      8  N   UNL     1      -5.049 -11.686  17.371  0.00  0.00    -0.302 N 
ATOM     24  C   UNL     1      -4.905 -10.770  16.323  0.00  0.00    +0.216 C 
BRANCH   8  26
ATOM     26  C   UNL     1      -5.454 -13.073  17.149  0.00  0.00    +0.104 C 
ATOM     29  C   UNL     1      -6.884 -13.309  17.587  0.00  0.00    +0.024 C 
ENDBRANCH   8  26
BRANCH   8  27
ATOM     27  C   UNL     1      -4.807 -11.326  18.762  0.00  0.00    +0.104 C 
ATOM     30  C   UNL     1      -3.703 -12.167  19.369  0.00  0.00    +0.024 C 
ENDBRANCH   8  27
ENDBRANCH  23  24
ENDBRANCH  13  23
TORSDOF 8
ENDMDL
MODEL 3
REMARK VINA RESULT:      -5.7     29.330     31.844
REMARK  Name = 7051087
REMARK  12 active torsions:
REMARK  status: ('A' for Active; 'I' for Inactive)
REMARK    1  A    between atoms: O_3  and  C_15
REMARK    2  A    between atoms: O_4  and  C_20
REMARK    3  A    between atoms: N_8  and  C_26
REMARK    4  A    between atoms: N_8  and  C_27
REMARK    5  A    between atoms: C_10  and  C_18
REMARK    6  A    between atoms: C_12  and  C_20
REMARK    7  A    between atoms: C_12  and  C_21
REMARK    8  A    between atoms: C_13  and  C_23
REMARK    9  A    between atoms: C_23  and  C_24
REMARK   10  A    between atoms: C_26  and  C_29
REMARK   11  A    between atoms: C_27  and  C_30
REMARK   12  A    between atoms: C_28  and  C_31
REMARK                            x       y       z     vdW  Elec       q    Type
REMARK                         _______ _______ _______ _____ _____    ______ ____
ROOT
ATOM      1  S   UNL     1      17.735  -4.417  -2.053  0.00  0.00    -0.057 S 
ATOM      6  O   UNL     1      20.481  -7.606  -0.140  0.00  0.00    -0.269 OA
ATOM      7  N   UNL     1      18.375  -6.924  -2.039  0.00  0.00    -0.229 NA
ATOM      9  N   UNL     1      19.569  -5.489  -0.514  0.00  0.00    -0.260 N 
ATOM     10  C   UNL     1      15.458  -7.548  -4.483  0.00  0.00    -0.019 C 
ATOM     11  C   UNL     1      15.597  -6.105  -5.141  0.00  0.00    +0.011 C 
ATOM     12  C   UNL     1      14.514  -5.699  -6.213  0.00  0.00    +0.021 C 
ATOM     13  C   UNL     1      16.852  -7.911  -3.792  0.00  0.00    +0.054 C 
ATOM     14  C   UNL     1      15.175  -8.594  -5.591  0.00  0.00    +0.010 C 
ATOM     15  C   UNL     1      14.321  -6.873  -7.215  0.00  0.00    +0.123 C 
ATOM     16  C   UNL     1      15.853  -5.010  -4.064  0.00  0.00    +0.049 C 
ATOM     17  C   UNL     1      14.041  -8.207  -6.531  0.00  0.00    +0.032 C 
ATOM     18  C   UNL     1      14.326  -7.621  -3.429  0.00  0.00    +0.012 C 
ATOM     19  C   UNL     1      17.368  -6.757  -2.971  0.00  0.00    +0.058 A 
ATOM     21  C   UNL     1      15.037  -4.480  -7.026  0.00  0.00    +0.016 C 
ATOM     22  C   UNL     1      16.919  -5.460  -3.123  0.00  0.00    +0.015 A 
ATOM     25  C   UNL     1      18.644  -5.760  -1.488  0.00  0.00    +0.165 A 
ATOM     28  C   UNL     1      20.441  -6.405   0.116  0.00  0.00    +0.256 C 
ATOM     37  H   UNL     1      19.610  -4.515  -0.225  0.00  0.00    +0.157 HD
ENDROOT
BRANCH  28  31
ATOM      2  S   UNL     1      22.766  -6.613   1.570  0.00  0.00    -0.092 S 
ATOM     31  C   UNL     1      21.298  -5.828   1.167  0.00  0.00    +0.074 A 
ATOM     32  C   UNL     1      21.095  -4.693   1.919  0.00  0.00    +0.021 A 
ATOM     33  C   UNL     1      22.159  -4.463   2.839  0.00  0.00    +0.008 A 
ATOM     34  C   UNL     1      23.134  -5.433   2.755  0.00  0.00    +0.046 A 
ENDBRANCH  28  31
BRANCH  15   3
ATOM      3  O   UNL     1      13.257  -6.590  -8.122  0.00  0.00    -0.391 OA
ATOM     35  H   UNL     1      12.660  -5.956  -7.690  0.00  0.00    +0.210 HD
ENDBRANCH  15   3
BRANCH  12  20
ATOM     20  C   UNL     1      13.161  -5.252  -5.620  0.00  0.00    +0.165 C 
BRANCH  20   4
ATOM      4  O   UNL     1      12.544  -4.391  -6.551  0.00  0.00    -0.394 OA
ATOM     36  H   UNL     1      12.926  -4.586  -7.424  0.00  0.00    +0.209 HD
ENDBRANCH  20   4
ENDBRANCH  12  20
BRANCH  13  23
ATOM     23  C   UNL     1      16.843  -9.215  -2.982  0.00  0.00    +0.106 C 
BRANCH  23  24
ATOM      5  O   UNL     1      18.699  -9.962  -4.302  0.00  0.00    -0.276 OA
ATOM      8  N   UNL     1      18.438 -10.934  -2.211  0.00  0.00    -0.302 N 
ATOM     24  C   UNL     1      18.075 -10.059  -3.241  0.00  0.00    +0.216 C 
BRANCH   8  26
ATOM     26  C   UNL     1      17.683 -11.032  -0.964  0.00  0.00    +0.104 C 
ATOM     29  C   UNL     1      18.508 -10.572   0.220  0.00  0.00    +0.024 C 
ENDBRANCH   8  26
BRANCH   8  27
ATOM     27  C   UNL     1      19.598 -11.812  -2.304  0.00  0.00    +0.104 C 
ATOM     30  C   UNL     1      19.186 -13.264  -2.435  0.00  0.00    +0.024 C 
ENDBRANCH   8  27
ENDBRANCH  23  24
ENDBRANCH  13  23
TORSDOF 8
ENDMDL
MODEL 4
REMARK VINA RESULT:      -5.6     26.878     30.202
REMARK  Name = 7051087
REMARK  12 active torsions:
REMARK  status: ('A' for Active; 'I' for Inactive)
REMARK    1  A    between atoms: O_3  and  C_15
REMARK    2  A    between atoms: O_4  and  C_20
REMARK    3  A    between atoms: N_8  and  C_26
REMARK    4  A    between atoms: N_8  and  C_27
REMARK    5  A    between atoms: C_10  and  C_18
REMARK    6  A    between atoms: C_12  and  C_20
REMARK    7  A    between atoms: C_12  and  C_21
REMARK    8  A    between atoms: C_13  and  C_23
REMARK    9  A    between atoms: C_23  and  C_24
REMARK   10  A    between atoms: C_26  and  C_29
REMARK   11  A    between atoms: C_27  and  C_30
REMARK   12  A    between atoms: C_28  and  C_31
REMARK                            x       y       z     vdW  Elec       q    Type
REMARK                         _______ _______ _______ _____ _____    ______ ____
ROOT
ATOM      1  S   UNL     1      16.371   7.368   1.864  0.00  0.00    -0.057 S 
ATOM      6  O   UNL     1      15.867   8.524   6.312  0.00  0.00    -0.269 OA
ATOM      7  N   UNL     1      14.710   7.483   3.845  0.00  0.00    -0.229 NA
ATOM      9  N   UNL     1      16.960   8.235   4.269  0.00  0.00    -0.260 N 
ATOM     10  C   UNL     1      11.923   6.426   1.399  0.00  0.00    -0.019 C 
ATOM     11  C   UNL     1      12.924   5.573   0.502  0.00  0.00    +0.011 C 
ATOM     12  C   UNL     1      12.341   4.942  -0.820  0.00  0.00    +0.021 C 
ATOM     13  C   UNL     1      12.573   6.584   2.850  0.00  0.00    +0.054 C 
ATOM     14  C   UNL     1      10.583   5.660   1.545  0.00  0.00    +0.010 C 
ATOM     15  C   UNL     1      10.982   4.258  -0.505  0.00  0.00    +0.123 C 
ATOM     16  C   UNL     1      14.278   6.314   0.300  0.00  0.00    +0.049 C 
ATOM     17  C   UNL     1      10.003   5.172   0.224  0.00  0.00    +0.032 C 
ATOM     18  C   UNL     1      11.632   7.827   0.808  0.00  0.00    +0.012 C 
ATOM     19  C   UNL     1      14.023   6.985   2.754  0.00  0.00    +0.058 A 
ATOM     21  C   UNL     1      13.311   3.834  -1.323  0.00  0.00    +0.016 C 
ATOM     22  C   UNL     1      14.774   6.837   1.606  0.00  0.00    +0.015 A 
ATOM     25  C   UNL     1      15.953   7.727   3.491  0.00  0.00    +0.165 A 
ATOM     28  C   UNL     1      16.884   8.610   5.629  0.00  0.00    +0.256 C 
ATOM     37  H   UNL     1      17.850   8.352   3.791  0.00  0.00    +0.157 HD
ENDROOT
BRANCH  28  31
ATOM      2  S   UNL     1      18.248  10.865   6.415  0.00  0.00    -0.092 S 
ATOM     31  C   UNL     1      18.125   9.171   6.192  0.00  0.00    +0.074 A 
ATOM     32  C   UNL     1      19.268   8.513   6.589  0.00  0.00    +0.021 A 
ATOM     33  C   UNL     1      20.258   9.411   7.084  0.00  0.00    +0.008 A 
ATOM     34  C   UNL     1      19.834  10.721   7.046  0.00  0.00    +0.046 A 
ENDBRANCH  28  31
BRANCH  15   3
ATOM      3  O   UNL     1      10.365   3.788  -1.703  0.00  0.00    -0.391 OA
ATOM     35  H   UNL     1       9.771   4.487  -2.024  0.00  0.00    +0.210 HD
ENDBRANCH  15   3
BRANCH  12  20
ATOM     20  C   UNL     1      12.200   5.934  -1.995  0.00  0.00    +0.165 C 
BRANCH  20   4
ATOM      4  O   UNL     1      12.323   5.203  -3.195  0.00  0.00    -0.394 OA
ATOM     36  H   UNL     1      11.827   4.374  -3.082  0.00  0.00    +0.209 HD
ENDBRANCH  20   4
ENDBRANCH  12  20
BRANCH  13  23
ATOM     23  C   UNL     1      11.797   7.509   3.799  0.00  0.00    +0.106 C 
BRANCH  23  24
ATOM      5  O   UNL     1      11.122   5.702   5.223  0.00  0.00    -0.276 OA
ATOM      8  N   UNL     1       9.521   7.309   4.736  0.00  0.00    -0.302 N 
ATOM     24  C   UNL     1      10.800   6.748   4.651  0.00  0.00    +0.216 C 
BRANCH   8  26
ATOM     26  C   UNL     1       9.164   8.549   4.049  0.00  0.00    +0.104 C 
ATOM     29  C   UNL     1       8.341   8.277   2.807  0.00  0.00    +0.024 C 
ENDBRANCH   8  26
BRANCH   8  27
ATOM     27  C   UNL     1       8.451   6.702   5.515  0.00  0.00    +0.104 C 
ATOM     30  C   UNL     1       8.356   7.311   6.899  0.00  0.00    +0.024 C 
ENDBRANCH   8  27
ENDBRANCH  23  24
ENDBRANCH  13  23
TORSDOF 8
ENDMDL
MODEL 5
REMARK VINA RESULT:      -5.5      2.450      3.659
REMARK  Name = 7051087
REMARK  12 active torsions:
REMARK  status: ('A' for Active; 'I' for Inactive)
REMARK    1  A    between atoms: O_3  and  C_15
REMARK    2  A    between atoms: O_4  and  C_20
REMARK    3  A    between atoms: N_8  and  C_26
REMARK    4  A    between atoms: N_8  and  C_27
REMARK    5  A    between atoms: C_10  and  C_18
REMARK    6  A    between atoms: C_12  and  C_20
REMARK    7  A    between atoms: C_12  and  C_21
REMARK    8  A    between atoms: C_13  and  C_23
REMARK    9  A    between atoms: C_23  and  C_24
REMARK   10  A    between atoms: C_26  and  C_29
REMARK   11  A    between atoms: C_27  and  C_30
REMARK   12  A    between atoms: C_28  and  C_31
REMARK                            x       y       z     vdW  Elec       q    Type
REMARK                         _______ _______ _______ _____ _____    ______ ____
ROOT
ATOM      1  S   UNL     1      -4.905  -9.468  10.178  0.00  0.00    -0.057 S 
ATOM      6  O   UNL     1      -9.405  -8.448   9.899  0.00  0.00    -0.269 OA
ATOM      7  N   UNL     1      -7.140  -9.384  11.479  0.00  0.00    -0.229 NA
ATOM      9  N   UNL     1      -7.200  -8.696   9.170  0.00  0.00    -0.260 N 
ATOM     10  C   UNL     1      -5.327 -11.056  14.444  0.00  0.00    -0.019 C 
ATOM     11  C   UNL     1      -3.933 -10.381  14.075  0.00  0.00    +0.011 C 
ATOM     12  C   UNL     1      -2.680 -10.811  14.930  0.00  0.00    +0.021 C 
ATOM     13  C   UNL     1      -6.489 -10.182  13.783  0.00  0.00    +0.054 C 
ATOM     14  C   UNL     1      -5.516 -11.039  15.982  0.00  0.00    +0.010 C 
ATOM     15  C   UNL     1      -3.056 -10.783  16.438  0.00  0.00    +0.123 C 
ATOM     16  C   UNL     1      -3.681 -10.400  12.539  0.00  0.00    +0.049 C 
ATOM     17  C   UNL     1      -4.320 -11.573  16.758  0.00  0.00    +0.032 C 
ATOM     18  C   UNL     1      -5.436 -12.519  13.946  0.00  0.00    +0.012 C 
ATOM     19  C   UNL     1      -6.171  -9.851  12.347  0.00  0.00    +0.058 A 
ATOM     21  C   UNL     1      -1.541  -9.772  14.718  0.00  0.00    +0.016 C 
ATOM     22  C   UNL     1      -4.900  -9.939  11.815  0.00  0.00    +0.015 A 
ATOM     25  C   UNL     1      -6.589  -9.156  10.307  0.00  0.00    +0.165 A 
ATOM     28  C   UNL     1      -8.564  -8.364   9.007  0.00  0.00    +0.256 C 
ATOM     37  H   UNL     1      -6.585  -8.597   8.367  0.00  0.00    +0.157 HD
ENDROOT
BRANCH  28  31
ATOM      2  S   UNL     1      -7.988  -8.439   6.320  0.00  0.00    -0.092 S 
ATOM     31  C   UNL     1      -8.944  -7.938   7.649  0.00  0.00    +0.074 A 
ATOM     32  C   UNL     1     -10.007  -7.156   7.255  0.00  0.00    +0.021 A 
ATOM     33  C   UNL     1     -10.037  -6.966   5.843  0.00  0.00    +0.008 A 
ATOM     34  C   UNL     1      -8.995  -7.610   5.212  0.00  0.00    +0.046 A 
ENDBRANCH  28  31
BRANCH  15   3
ATOM      3  O   UNL     1      -1.985 -11.289  17.234  0.00  0.00    -0.391 OA
ATOM     35  H   UNL     1      -1.156 -10.922  16.882  0.00  0.00    +0.210 HD
ENDBRANCH  15   3
BRANCH  12  20
ATOM     20  C   UNL     1      -2.074 -12.176  14.538  0.00  0.00    +0.165 C 
BRANCH  20   4
ATOM      4  O   UNL     1      -0.708 -12.160  14.890  0.00  0.00    -0.394 OA
ATOM     36  H   UNL     1      -0.655 -11.939  15.835  0.00  0.00    +0.209 HD
ENDBRANCH  20   4
ENDBRANCH  12  20
BRANCH  13  23
ATOM     23  C   UNL     1      -7.896 -10.780  13.922  0.00  0.00    +0.106 C 
BRANCH  23  24
ATOM      5  O   UNL     1      -9.070  -8.728  14.313  0.00  0.00    -0.276 OA
ATOM      8  N   UNL     1      -9.381 -10.427  15.862  0.00  0.00    -0.302 N 
ATOM     24  C   UNL     1      -8.829  -9.875  14.701  0.00  0.00    +0.216 C 
BRANCH   8  26
ATOM     26  C   UNL     1      -9.081 -11.788  16.301  0.00  0.00    +0.104 C 
ATOM     29  C   UNL     1      -8.567 -11.810  17.726  0.00  0.00    +0.024 C 
ENDBRANCH   8  26
BRANCH   8  27
ATOM     27  C   UNL     1     -10.298  -9.686  16.720  0.00  0.00    +0.104 C 
ATOM     30  C   UNL     1      -9.619  -8.493  17.359  0.00  0.00    +0.024 C 
ENDBRANCH   8  27
ENDBRANCH  23  24
ENDBRANCH  13  23
TORSDOF 8
ENDMDL
MODEL 6
REMARK VINA RESULT:      -5.5      3.390      9.738
REMARK  Name = 7051087
REMARK  12 active torsions:
REMARK  status: ('A' for Active; 'I' for Inactive)
REMARK    1  A    between atoms: O_3  and  C_15
REMARK    2  A    between atoms: O_4  and  C_20
REMARK    3  A    between atoms: N_8  and  C_26
REMARK    4  A    between atoms: N_8  and  C_27
REMARK    5  A    between atoms: C_10  and  C_18
REMARK    6  A    between atoms: C_12  and  C_20
REMARK    7  A    between atoms: C_12  and  C_21
REMARK    8  A    between atoms: C_13  and  C_23
REMARK    9  A    between atoms: C_23  and  C_24
REMARK   10  A    between atoms: C_26  and  C_29
REMARK   11  A    between atoms: C_27  and  C_30
REMARK   12  A    between atoms: C_28  and  C_31
REMARK                            x       y       z     vdW  Elec       q    Type
REMARK                         _______ _______ _______ _____ _____    ______ ____
ROOT
ATOM      1  S   UNL     1      -8.461  -9.280  12.589  0.00  0.00    -0.057 S 
ATOM      6  O   UNL     1      -4.614 -10.624  14.771  0.00  0.00    -0.269 OA
ATOM      7  N   UNL     1      -6.008 -10.044  12.276  0.00  0.00    -0.229 NA
ATOM      9  N   UNL     1      -6.825  -9.910  14.540  0.00  0.00    -0.260 N 
ATOM     10  C   UNL     1      -6.634 -10.056   8.471  0.00  0.00    -0.019 C 
ATOM     11  C   UNL     1      -7.697  -8.874   8.562  0.00  0.00    +0.011 C 
ATOM     12  C   UNL     1      -8.447  -8.482   7.232  0.00  0.00    +0.021 C 
ATOM     13  C   UNL     1      -5.708  -9.988   9.772  0.00  0.00    +0.054 C 
ATOM     14  C   UNL     1      -5.739  -9.848   7.223  0.00  0.00    +0.010 C 
ATOM     15  C   UNL     1      -7.413  -8.360   6.078  0.00  0.00    +0.123 C 
ATOM     16  C   UNL     1      -8.643  -9.054   9.786  0.00  0.00    +0.049 C 
ATOM     17  C   UNL     1      -6.517  -9.587   5.941  0.00  0.00    +0.032 C 
ATOM     18  C   UNL     1      -7.295 -11.454   8.382  0.00  0.00    +0.012 C 
ATOM     19  C   UNL     1      -6.537  -9.817  11.019  0.00  0.00    +0.058 A 
ATOM     21  C   UNL     1      -9.103  -7.083   7.414  0.00  0.00    +0.016 C 
ATOM     22  C   UNL     1      -7.845  -9.379  11.004  0.00  0.00    +0.015 A 
ATOM     25  C   UNL     1      -6.934  -9.800  13.179  0.00  0.00    +0.165 A 
ATOM     28  C   UNL     1      -5.689 -10.311  15.277  0.00  0.00    +0.256 C 
ATOM     37  H   UNL     1      -7.671  -9.677  15.055  0.00  0.00    +0.157 HD
ENDROOT
BRANCH  28  31
ATOM      2  S   UNL     1      -7.404  -9.947  17.395  0.00  0.00    -0.092 S 
ATOM     31  C   UNL     1      -5.884 -10.380  16.736  0.00  0.00    +0.074 A 
ATOM     32  C   UNL     1      -4.988 -10.760  17.711  0.00  0.00    +0.021 A 
ATOM     33  C   UNL     1      -5.556 -10.694  19.016  0.00  0.00    +0.008 A 
ATOM     34  C   UNL     1      -6.866 -10.266  18.989  0.00  0.00    +0.046 A 
ENDBRANCH  28  31
BRANCH  15   3
ATOM      3  O   UNL     1      -8.072  -8.132   4.833  0.00  0.00    -0.391 OA
ATOM     35  H   UNL     1      -7.492  -7.572   4.290  0.00  0.00    +0.210 HD
ENDBRANCH  15   3
BRANCH  12  20
ATOM     20  C   UNL     1      -9.600  -9.432   6.841  0.00  0.00    +0.165 C 
BRANCH  20   4
ATOM      4  O   UNL     1     -10.601  -8.663   6.214  0.00  0.00    -0.394 OA
ATOM     36  H   UNL     1     -11.382  -8.675   6.793  0.00  0.00    +0.209 HD
ENDBRANCH  20   4
ENDBRANCH  12  20
BRANCH  13  23
ATOM     23  C   UNL     1      -4.718 -11.152   9.912  0.00  0.00    +0.106 C 
BRANCH  23  24
ATOM      5  O   UNL     1      -2.846  -9.705  10.295  0.00  0.00    -0.276 OA
ATOM      8  N   UNL     1      -3.004 -11.593  11.634  0.00  0.00    -0.302 N 
ATOM     24  C   UNL     1      -3.442 -10.737  10.617  0.00  0.00    +0.216 C 
BRANCH   8  26
ATOM     26  C   UNL     1      -3.727 -12.811  11.997  0.00  0.00    +0.104 C 
ATOM     29  C   UNL     1      -3.287 -13.988  11.153  0.00  0.00    +0.024 C 
ENDBRANCH   8  26
BRANCH   8  27
ATOM     27  C   UNL     1      -1.797 -11.335  12.408  0.00  0.00    +0.104 C 
ATOM     30  C   UNL     1      -1.756 -12.173  13.669  0.00  0.00    +0.024 C 
ENDBRANCH   8  27
ENDBRANCH  23  24
ENDBRANCH  13  23
TORSDOF 8
ENDMDL
MODEL 7
REMARK VINA RESULT:      -5.4     27.438     30.231
REMARK  Name = 7051087
REMARK  12 active torsions:
REMARK  status: ('A' for Active; 'I' for Inactive)
REMARK    1  A    between atoms: O_3  and  C_15
REMARK    2  A    between atoms: O_4  and  C_20
REMARK    3  A    between atoms: N_8  and  C_26
REMARK    4  A    between atoms: N_8  and  C_27
REMARK    5  A    between atoms: C_10  and  C_18
REMARK    6  A    between atoms: C_12  and  C_20
REMARK    7  A    between atoms: C_12  and  C_21
REMARK    8  A    between atoms: C_13  and  C_23
REMARK    9  A    between atoms: C_23  and  C_24
REMARK   10  A    between atoms: C_26  and  C_29
REMARK   11  A    between atoms: C_27  and  C_30
REMARK   12  A    between atoms: C_28  and  C_31
REMARK                            x       y       z     vdW  Elec       q    Type
REMARK                         _______ _______ _______ _____ _____    ______ ____
ROOT
ATOM      1  S   UNL     1      19.648  -5.970  20.285  0.00  0.00    -0.057 S 
ATOM      6  O   UNL     1      21.767  -9.868  21.585  0.00  0.00    -0.269 OA
ATOM      7  N   UNL     1      20.405  -7.393  22.309  0.00  0.00    -0.229 NA
ATOM      9  N   UNL     1      20.909  -8.265  20.120  0.00  0.00    -0.260 N 
ATOM     10  C   UNL     1      19.257  -4.509  24.598  0.00  0.00    -0.019 C 
ATOM     11  C   UNL     1      18.105  -4.065  23.593  0.00  0.00    +0.011 C 
ATOM     12  C   UNL     1      17.298  -2.760  23.960  0.00  0.00    +0.021 C 
ATOM     13  C   UNL     1      19.624  -6.033  24.285  0.00  0.00    +0.054 C 
ATOM     14  C   UNL     1      18.733  -4.421  26.054  0.00  0.00    +0.010 C 
ATOM     15  C   UNL     1      16.891  -2.815  25.459  0.00  0.00    +0.123 C 
ATOM     16  C   UNL     1      18.592  -4.107  22.115  0.00  0.00    +0.049 C 
ATOM     17  C   UNL     1      18.064  -3.095  26.391  0.00  0.00    +0.032 C 
ATOM     18  C   UNL     1      20.531  -3.637  24.475  0.00  0.00    +0.012 C 
ATOM     19  C   UNL     1      19.789  -6.258  22.805  0.00  0.00    +0.058 A 
ATOM     21  C   UNL     1      15.986  -2.724  23.125  0.00  0.00    +0.016 C 
ATOM     22  C   UNL     1      19.302  -5.391  21.848  0.00  0.00    +0.015 A 
ATOM     25  C   UNL     1      20.394  -7.345  20.995  0.00  0.00    +0.165 A 
ATOM     28  C   UNL     1      21.566  -9.474  20.439  0.00  0.00    +0.256 C 
ATOM     37  H   UNL     1      20.798  -8.026  19.138  0.00  0.00    +0.157 HD
ENDROOT
BRANCH  28  31
ATOM      2  S   UNL     1      23.714 -10.161  18.865  0.00  0.00    -0.092 S 
ATOM     31  C   UNL     1      22.055 -10.242  19.280  0.00  0.00    +0.074 A 
ATOM     32  C   UNL     1      21.349 -11.064  18.429  0.00  0.00    +0.021 A 
ATOM     33  C   UNL     1      22.181 -11.634  17.423  0.00  0.00    +0.008 A 
ATOM     34  C   UNL     1      23.492 -11.225  17.543  0.00  0.00    +0.046 A 
ENDBRANCH  28  31
BRANCH  15   3
ATOM      3  O   UNL     1      16.271  -1.592  25.857  0.00  0.00    -0.391 OA
ATOM     35  H   UNL     1      15.875  -1.733  26.733  0.00  0.00    +0.210 HD
ENDBRANCH  15   3
BRANCH  12  20
ATOM     20  C   UNL     1      18.032  -1.441  23.635  0.00  0.00    +0.165 C 
BRANCH  20   4
ATOM      4  O   UNL     1      17.506  -0.940  22.426  0.00  0.00    -0.394 OA
ATOM     36  H   UNL     1      18.149  -1.139  21.726  0.00  0.00    +0.209 HD
ENDBRANCH  20   4
ENDBRANCH  12  20
BRANCH  13  23
ATOM     23  C   UNL     1      20.824  -6.575  25.074  0.00  0.00    +0.106 C 
BRANCH  23  24
ATOM      5  O   UNL     1      19.472  -8.070  26.370  0.00  0.00    -0.276 OA
ATOM      8  N   UNL     1      21.495  -8.894  25.588  0.00  0.00    -0.302 N 
ATOM     24  C   UNL     1      20.520  -7.902  25.740  0.00  0.00    +0.216 C 
BRANCH   8  26
ATOM     26  C   UNL     1      22.729  -8.671  24.837  0.00  0.00    +0.104 C 
ATOM     29  C   UNL     1      23.948  -8.786  25.728  0.00  0.00    +0.024 C 
ENDBRANCH   8  26
BRANCH   8  27
ATOM     27  C   UNL     1      21.353 -10.225  26.166  0.00  0.00    +0.104 C 
ATOM     30  C   UNL     1      20.936 -11.241  25.123  0.00  0.00    +0.024 C 
ENDBRANCH   8  27
ENDBRANCH  23  24
ENDBRANCH  13  23
TORSDOF 8
ENDMDL
MODEL 8
REMARK VINA RESULT:      -5.3     28.891     31.523
REMARK  Name = 7051087
REMARK  12 active torsions:
REMARK  status: ('A' for Active; 'I' for Inactive)
REMARK    1  A    between atoms: O_3  and  C_15
REMARK    2  A    between atoms: O_4  and  C_20
REMARK    3  A    between atoms: N_8  and  C_26
REMARK    4  A    between atoms: N_8  and  C_27
REMARK    5  A    between atoms: C_10  and  C_18
REMARK    6  A    between atoms: C_12  and  C_20
REMARK    7  A    between atoms: C_12  and  C_21
REMARK    8  A    between atoms: C_13  and  C_23
REMARK    9  A    between atoms: C_23  and  C_24
REMARK   10  A    between atoms: C_26  and  C_29
REMARK   11  A    between atoms: C_27  and  C_30
REMARK   12  A    between atoms: C_28  and  C_31
REMARK                            x       y       z     vdW  Elec       q    Type
REMARK                         _______ _______ _______ _____ _____    ______ ____
ROOT
ATOM      1  S   UNL     1      19.142  -4.518  -1.954  0.00  0.00    -0.057 S 
ATOM      6  O   UNL     1      16.001  -7.615  -3.339  0.00  0.00    -0.269 OA
ATOM      7  N   UNL     1      18.320  -6.959  -1.697  0.00  0.00    -0.229 NA
ATOM      9  N   UNL     1      17.098  -5.556  -3.230  0.00  0.00    -0.260 N 
ATOM     10  C   UNL     1      21.398  -7.622   0.529  0.00  0.00    -0.019 C 
ATOM     11  C   UNL     1      21.428  -6.125   1.071  0.00  0.00    +0.011 C 
ATOM     12  C   UNL     1      22.633  -5.726   2.006  0.00  0.00    +0.021 C 
ATOM     13  C   UNL     1      19.923  -7.924  -0.004  0.00  0.00    +0.054 C 
ATOM     14  C   UNL     1      21.706  -8.597   1.695  0.00  0.00    +0.010 C 
ATOM     15  C   UNL     1      22.832  -6.828   3.084  0.00  0.00    +0.123 C 
ATOM     16  C   UNL     1      21.154  -5.102  -0.071  0.00  0.00    +0.049 C 
ATOM     17  C   UNL     1      22.947  -8.230   2.496  0.00  0.00    +0.032 C 
ATOM     18  C   UNL     1      22.419  -7.870  -0.608  0.00  0.00    +0.012 C 
ATOM     19  C   UNL     1      19.419  -6.800  -0.873  0.00  0.00    +0.058 A 
ATOM     21  C   UNL     1      22.280  -4.407   2.753  0.00  0.00    +0.016 C 
ATOM     22  C   UNL     1      19.975  -5.537  -0.873  0.00  0.00    +0.015 A 
ATOM     25  C   UNL     1      18.087  -5.824  -2.320  0.00  0.00    +0.165 A 
ATOM     28  C   UNL     1      16.106  -6.446  -3.701  0.00  0.00    +0.256 C 
ATOM     37  H   UNL     1      17.103  -4.608  -3.597  0.00  0.00    +0.157 HD
ENDROOT
BRANCH  28  31
ATOM      2  S   UNL     1      15.861  -5.242  -6.161  0.00  0.00    -0.092 S 
ATOM     31  C   UNL     1      15.200  -5.886  -4.719  0.00  0.00    +0.074 A 
ATOM     32  C   UNL     1      13.826  -5.794  -4.694  0.00  0.00    +0.021 A 
ATOM     33  C   UNL     1      13.309  -5.186  -5.875  0.00  0.00    +0.008 A 
ATOM     34  C   UNL     1      14.308  -4.836  -6.757  0.00  0.00    +0.046 A 
ENDBRANCH  28  31
BRANCH  15   3
ATOM      3  O   UNL     1      23.994  -6.562   3.868  0.00  0.00    -0.391 OA
ATOM     35  H   UNL     1      24.615  -7.297   3.734  0.00  0.00    +0.210 HD
ENDBRANCH  15   3
BRANCH  12  20
ATOM     20  C   UNL     1      23.955  -5.438   1.261  0.00  0.00    +0.165 C 
BRANCH  20   4
ATOM      4  O   UNL     1      24.584  -4.350   1.901  0.00  0.00    -0.394 OA
ATOM     36  H   UNL     1      23.884  -3.793   2.281  0.00  0.00    +0.209 HD
ENDBRANCH  20   4
ENDBRANCH  12  20
BRANCH  13  23
ATOM     23  C   UNL     1      19.761  -9.285  -0.696  0.00  0.00    +0.106 C 
BRANCH  23  24
ATOM      5  O   UNL     1      18.551  -9.961   1.260  0.00  0.00    -0.276 OA
ATOM      8  N   UNL     1      18.531 -11.420  -0.544  0.00  0.00    -0.302 N 
ATOM     24  C   UNL     1      18.896 -10.237   0.107  0.00  0.00    +0.216 C 
BRANCH   8  26
ATOM     26  C   UNL     1      18.952 -11.725  -1.910  0.00  0.00    +0.104 C 
ATOM     29  C   UNL     1      19.147 -13.213  -2.110  0.00  0.00    +0.024 C 
ENDBRANCH   8  26
BRANCH   8  27
ATOM     27  C   UNL     1      17.702 -12.437   0.091  0.00  0.00    +0.104 C 
ATOM     30  C   UNL     1      16.229 -12.099  -0.016  0.00  0.00    +0.024 C 
ENDBRANCH   8  27
ENDBRANCH  23  24
ENDBRANCH  13  23
TORSDOF 8
ENDMDL
MODEL 9
REMARK VINA RESULT:      -5.3     27.738     30.905
REMARK  Name = 7051087
REMARK  12 active torsions:
REMARK  status: ('A' for Active; 'I' for Inactive)
REMARK    1  A    between atoms: O_3  and  C_15
REMARK    2  A    between atoms: O_4  and  C_20
REMARK    3  A    between atoms: N_8  and  C_26
REMARK    4  A    between atoms: N_8  and  C_27
REMARK    5  A    between atoms: C_10  and  C_18
REMARK    6  A    between atoms: C_12  and  C_20
REMARK    7  A    between atoms: C_12  and  C_21
REMARK    8  A    between atoms: C_13  and  C_23
REMARK    9  A    between atoms: C_23  and  C_24
REMARK   10  A    between atoms: C_26  and  C_29
REMARK   11  A    between atoms: C_27  and  C_30
REMARK   12  A    between atoms: C_28  and  C_31
REMARK                            x       y       z     vdW  Elec       q    Type
REMARK                         _______ _______ _______ _____ _____    ______ ____
ROOT
ATOM      1  S   UNL     1      20.162  -7.137  -0.981  0.00  0.00    -0.057 S 
ATOM      6  O   UNL     1      16.919 -10.174  -2.258  0.00  0.00    -0.269 OA
ATOM      7  N   UNL     1      18.986  -9.360  -0.369  0.00  0.00    -0.229 NA
ATOM      9  N   UNL     1      18.249  -8.258  -2.382  0.00  0.00    -0.260 N 
ATOM     10  C   UNL     1      21.514  -9.751   2.516  0.00  0.00    -0.019 C 
ATOM     11  C   UNL     1      21.652  -8.178   2.715  0.00  0.00    +0.011 C 
ATOM     12  C   UNL     1      22.720  -7.679   3.762  0.00  0.00    +0.021 C 
ATOM     13  C   UNL     1      20.127 -10.036   1.778  0.00  0.00    +0.054 C 
ATOM     14  C   UNL     1      21.482 -10.444   3.903  0.00  0.00    +0.010 C 
ATOM     15  C   UNL     1      22.579  -8.505   5.071  0.00  0.00    +0.123 C 
ATOM     16  C   UNL     1      21.721  -7.436   1.347  0.00  0.00    +0.049 C 
ATOM     17  C   UNL     1      22.604 -10.011   4.837  0.00  0.00    +0.032 C 
ATOM     18  C   UNL     1      22.673 -10.356   1.687  0.00  0.00    +0.012 C 
ATOM     19  C   UNL     1      19.938  -9.111   0.603  0.00  0.00    +0.058 A 
ATOM     21  C   UNL     1      22.425  -6.193   4.119  0.00  0.00    +0.016 C 
ATOM     22  C   UNL     1      20.650  -7.940   0.440  0.00  0.00    +0.015 A 
ATOM     25  C   UNL     1      19.020  -8.390  -1.257  0.00  0.00    +0.165 A 
ATOM     28  C   UNL     1      17.242  -9.140  -2.836  0.00  0.00    +0.256 C 
ATOM     37  H   UNL     1      18.445  -7.430  -2.938  0.00  0.00    +0.157 HD
ENDROOT
BRANCH  28  31
ATOM      2  S   UNL     1      15.664  -7.332  -4.180  0.00  0.00    -0.092 S 
ATOM     31  C   UNL     1      16.609  -8.759  -4.111  0.00  0.00    +0.074 A 
ATOM     32  C   UNL     1      16.660  -9.404  -5.327  0.00  0.00    +0.021 A 
ATOM     33  C   UNL     1      15.914  -8.718  -6.329  0.00  0.00    +0.008 A 
ATOM     34  C   UNL     1      15.320  -7.575  -5.840  0.00  0.00    +0.046 A 
ENDBRANCH  28  31
BRANCH  15   3
ATOM      3  O   UNL     1      23.613  -8.167   5.994  0.00  0.00    -0.391 OA
ATOM     35  H   UNL     1      23.265  -7.486   6.593  0.00  0.00    +0.210 HD
ENDBRANCH  15   3
BRANCH  12  20
ATOM     20  C   UNL     1      24.178  -7.700   3.251  0.00  0.00    +0.165 C 
BRANCH  20   4
ATOM      4  O   UNL     1      24.849  -6.595   3.815  0.00  0.00    -0.394 OA
ATOM     36  H   UNL     1      24.370  -5.794   3.541  0.00  0.00    +0.209 HD
ENDBRANCH  20   4
ENDBRANCH  12  20
BRANCH  13  23
ATOM     23  C   UNL     1      19.904 -11.502   1.380  0.00  0.00    +0.106 C 
BRANCH  23  24
ATOM      5  O   UNL     1      18.383 -11.939   3.180  0.00  0.00    -0.276 OA
ATOM      8  N   UNL     1      17.789 -12.741   1.085  0.00  0.00    -0.302 N 
ATOM     24  C   UNL     1      18.633 -12.071   1.978  0.00  0.00    +0.216 C 
BRANCH   8  26
ATOM     26  C   UNL     1      18.108 -12.886  -0.334  0.00  0.00    +0.104 C 
ATOM     29  C   UNL     1      17.470 -14.128  -0.921  0.00  0.00    +0.024 C 
ENDBRANCH   8  26
BRANCH   8  27
ATOM     27  C   UNL     1      16.530 -13.344   1.503  0.00  0.00    +0.104 C 
ATOM     30  C   UNL     1      15.411 -12.323   1.536  0.00  0.00    +0.024 C 
ENDBRANCH   8  27
ENDBRANCH  23  24
ENDBRANCH  13  23
TORSDOF 8
ENDMDL
MODEL 10
REMARK VINA RESULT:      -5.3     29.555     32.304
REMARK  Name = 7051087
REMARK  12 active torsions:
REMARK  status: ('A' for Active; 'I' for Inactive)
REMARK    1  A    between atoms: O_3  and  C_15
REMARK    2  A    between atoms: O_4  and  C_20
REMARK    3  A    between atoms: N_8  and  C_26
REMARK    4  A    between atoms: N_8  and  C_27
REMARK    5  A    between atoms: C_10  and  C_18
REMARK    6  A    between atoms: C_12  and  C_20
REMARK    7  A    between atoms: C_12  and  C_21
REMARK    8  A    between atoms: C_13  and  C_23
REMARK    9  A    between atoms: C_23  and  C_24
REMARK   10  A    between atoms: C_26  and  C_29
REMARK   11  A    between atoms: C_27  and  C_30
REMARK   12  A    between atoms: C_28  and  C_31
REMARK                            x       y       z     vdW  Elec       q    Type
REMARK                         _______ _______ _______ _____ _____    ______ ____
ROOT
ATOM      1  S   UNL     1      17.063  -9.149  -3.060  0.00  0.00    -0.057 S 
ATOM      6  O   UNL     1      19.123 -11.875   0.054  0.00  0.00    -0.269 OA
ATOM      7  N   UNL     1      18.820  -9.242  -1.162  0.00  0.00    -0.229 NA
ATOM      9  N   UNL     1      17.675 -11.298  -1.685  0.00  0.00    -0.260 N 
ATOM     10  C   UNL     1      19.743  -5.597  -2.017  0.00  0.00    -0.019 C 
ATOM     11  C   UNL     1      18.265  -5.251  -2.496  0.00  0.00    +0.011 C 
ATOM     12  C   UNL     1      18.029  -3.821  -3.116  0.00  0.00    +0.021 C 
ATOM     13  C   UNL     1      19.664  -6.867  -1.051  0.00  0.00    +0.054 C 
ATOM     14  C   UNL     1      20.315  -4.403  -1.209  0.00  0.00    +0.010 C 
ATOM     15  C   UNL     1      18.702  -2.752  -2.210  0.00  0.00    +0.123 C 
ATOM     16  C   UNL     1      17.655  -6.409  -3.339  0.00  0.00    +0.049 C 
ATOM     17  C   UNL     1      20.165  -3.058  -1.906  0.00  0.00    +0.032 C 
ATOM     18  C   UNL     1      20.700  -5.903  -3.195  0.00  0.00    +0.012 C 
ATOM     19  C   UNL     1      18.795  -7.946  -1.643  0.00  0.00    +0.058 A 
ATOM     21  C   UNL     1      16.502  -3.519  -3.130  0.00  0.00    +0.016 C 
ATOM     22  C   UNL     1      17.887  -7.714  -2.657  0.00  0.00    +0.015 A 
ATOM     25  C   UNL     1      17.954  -9.965  -1.839  0.00  0.00    +0.165 A 
ATOM     28  C   UNL     1      18.259 -12.192  -0.760  0.00  0.00    +0.256 C 
ATOM     37  H   UNL     1      16.970 -11.661  -2.321  0.00  0.00    +0.157 HD
ENDROOT
BRANCH  28  31
ATOM      2  S   UNL     1      18.766 -14.739  -1.662  0.00  0.00    -0.092 S 
ATOM     31  C   UNL     1      17.789 -13.585  -0.859  0.00  0.00    +0.074 A 
ATOM     32  C   UNL     1      16.623 -14.139  -0.379  0.00  0.00    +0.021 A 
ATOM     33  C   UNL     1      16.529 -15.530  -0.676  0.00  0.00    +0.008 A 
ATOM     34  C   UNL     1      17.629 -15.986  -1.371  0.00  0.00    +0.046 A 
ENDBRANCH  28  31
BRANCH  15   3
ATOM      3  O   UNL     1      18.619  -1.459  -2.808  0.00  0.00    -0.391 OA
ATOM     35  H   UNL     1      17.741  -1.379  -3.217  0.00  0.00    +0.210 HD
ENDBRANCH  15   3
BRANCH  12  20
ATOM     20  C   UNL     1      18.493  -3.673  -4.581  0.00  0.00    +0.165 C 
BRANCH  20   4
ATOM      4  O   UNL     1      17.604  -2.791  -5.230  0.00  0.00    -0.394 OA
ATOM     36  H   UNL     1      16.746  -3.243  -5.300  0.00  0.00    +0.209 HD
ENDBRANCH  20   4
ENDBRANCH  12  20
BRANCH  13  23
ATOM     23  C   UNL     1      21.027  -7.422  -0.614  0.00  0.00    +0.106 C 
BRANCH  23  24
ATOM      5  O   UNL     1      20.554  -7.628   1.727  0.00  0.00    -0.276 OA
ATOM      8  N   UNL     1      22.439  -6.409   1.140  0.00  0.00    -0.302 N 
ATOM     24  C   UNL     1      21.302  -7.174   0.856  0.00  0.00    +0.216 C 
BRANCH   8  26
ATOM     26  C   UNL     1      23.309  -5.880   0.091  0.00  0.00    +0.104 C 
ATOM     29  C   UNL     1      24.766  -5.930   0.504  0.00  0.00    +0.024 C 
ENDBRANCH   8  26
BRANCH   8  27
ATOM     27  C   UNL     1      22.841  -6.083   2.502  0.00  0.00    +0.104 C 
ATOM     30  C   UNL     1      22.190  -4.802   2.982  0.00  0.00    +0.024 C 
ENDBRANCH   8  27
ENDBRANCH  23  24
ENDBRANCH  13  23
TORSDOF 8
ENDMDL
