MODEL 1
REMARK VINA RESULT:      -7.4      0.000      0.000
REMARK  Name = 11867282
REMARK  4 active torsions:
REMARK  status: ('A' for Active; 'I' for Inactive)
REMARK    1  A    between atoms: S_1  and  N_11
REMARK    2  A    between atoms: S_1  and  C_25
REMARK    3  A    between atoms: N_10  and  C_24
REMARK    4  A    between atoms: N_11  and  C_22
REMARK                            x       y       z     vdW  Elec       q    Type
REMARK                         _______ _______ _______ _____ _____    ______ ____
ROOT
ATOM      4  O   UNL     1      -4.539 -14.164  15.613  0.00  0.00    -0.266 OA
ATOM      5  O   UNL     1      -9.252 -11.845  15.582  0.00  0.00    -0.252 OA
ATOM      8  N   UNL     1      -7.969 -10.886  17.253  0.00  0.00    -0.284 N 
ATOM      9  N   UNL     1      -5.153 -12.366  16.982  0.00  0.00    -0.310 N 
ATOM     10  N   UNL     1      -8.261  -9.787  15.185  0.00  0.00    -0.269 N 
ATOM     12  C   UNL     1      -6.934 -12.547  18.810  0.00  0.00    +0.027 C 
ATOM     13  C   UNL     1      -5.817 -10.395  18.407  0.00  0.00    +0.054 C 
ATOM     14  C   UNL     1      -6.161 -11.420  19.484  0.00  0.00    +0.018 C 
ATOM     15  C   UNL     1      -8.221 -12.003  18.168  0.00  0.00    +0.114 C 
ATOM     16  C   UNL     1      -6.023 -13.233  17.786  0.00  0.00    +0.130 C 
ATOM     17  C   UNL     1      -7.113  -9.818  17.799  0.00  0.00    +0.119 C 
ATOM     18  C   UNL     1      -4.972 -11.015  17.309  0.00  0.00    +0.027 A 
ATOM     19  C   UNL     1      -4.081 -10.265  16.633  0.00  0.00    +0.024 A 
ATOM     20  C   UNL     1      -4.435 -12.982  15.936  0.00  0.00    +0.274 A 
ATOM     21  C   UNL     1      -8.545 -10.908  15.964  0.00  0.00    +0.306 C 
ATOM     22  C   UNL     1      -3.488 -12.098  15.213  0.00  0.00    +0.112 A 
ATOM     23  C   UNL     1      -3.314 -10.819  15.551  0.00  0.00    +0.031 A 
ATOM     36  H   UNL     1      -8.076  -8.909  15.658  0.00  0.00    +0.156 HD
ENDROOT
BRANCH  10  24
ATOM      2  F   UNL     1      -8.203  -9.470   9.655  0.00  0.00    -0.205 F 
ATOM     24  C   UNL     1      -8.247  -9.707  13.771  0.00  0.00    +0.035 A 
ATOM     26  C   UNL     1      -7.035  -9.567  13.099  0.00  0.00    +0.026 A 
ATOM     27  C   UNL     1      -9.443  -9.767  13.062  0.00  0.00    +0.026 A 
ATOM     30  C   UNL     1      -7.021  -9.488  11.706  0.00  0.00    +0.040 A 
ATOM     31  C   UNL     1      -9.428  -9.688  11.670  0.00  0.00    +0.040 A 
ATOM     32  C   UNL     1      -8.218  -9.547  10.992  0.00  0.00    +0.124 A 
ENDBRANCH  10  24
BRANCH  22  11
ATOM     11  N   UNL     1      -2.724 -12.600  14.145  0.00  0.00    -0.211 N 
ATOM     37  H   UNL     1      -1.762 -12.234  14.135  0.00  0.00    +0.174 HD
BRANCH  11   1
ATOM      1  S   UNL     1      -3.469 -12.661  12.626  0.00  0.00    +0.073 S 
ATOM      6  O   UNL     1      -2.957 -13.791  11.875  0.00  0.00    -0.150 OA
ATOM      7  O   UNL     1      -4.899 -12.471  12.777  0.00  0.00    -0.150 OA
BRANCH   1  25
ATOM      3  F   UNL     1      -3.708  -8.797   9.319  0.00  0.00    -0.205 F 
ATOM     25  C   UNL     1      -2.817 -11.195  11.881  0.00  0.00    +0.111 A 
ATOM     28  C   UNL     1      -3.538 -10.570  10.879  0.00  0.00    +0.067 A 
ATOM     29  C   UNL     1      -1.600 -10.703  12.314  0.00  0.00    +0.029 A 
ATOM     33  C   UNL     1      -3.024  -9.415  10.290  0.00  0.00    +0.125 A 
ATOM     34  C   UNL     1      -1.085  -9.547  11.726  0.00  0.00    +0.005 A 
ATOM     35  C   UNL     1      -1.797  -8.904  10.714  0.00  0.00    +0.038 A 
ENDBRANCH   1  25
ENDBRANCH  11   1
ENDBRANCH  22  11
TORSDOF 4
ENDMDL
MODEL 2
REMARK VINA RESULT:      -7.2     24.653     28.279
REMARK  Name = 11867282
REMARK  4 active torsions:
REMARK  status: ('A' for Active; 'I' for Inactive)
REMARK    1  A    between atoms: S_1  and  N_11
REMARK    2  A    between atoms: S_1  and  C_25
REMARK    3  A    between atoms: N_10  and  C_24
REMARK    4  A    between atoms: N_11  and  C_22
REMARK                            x       y       z     vdW  Elec       q    Type
REMARK                         _______ _______ _______ _____ _____    ______ ____
ROOT
ATOM      4  O   UNL     1      14.278   6.578   6.964  0.00  0.00    -0.266 OA
ATOM      5  O   UNL     1      10.195   3.953   4.957  0.00  0.00    -0.252 OA
ATOM      8  N   UNL     1       9.523   6.119   5.419  0.00  0.00    -0.284 N 
ATOM      9  N   UNL     1      12.183   7.518   6.496  0.00  0.00    -0.310 N 
ATOM     10  N   UNL     1      10.048   5.472   3.211  0.00  0.00    -0.269 N 
ATOM     12  C   UNL     1      10.049   6.865   7.747  0.00  0.00    +0.027 C 
ATOM     13  C   UNL     1       9.939   8.520   5.934  0.00  0.00    +0.054 C 
ATOM     14  C   UNL     1       9.576   8.269   7.395  0.00  0.00    +0.018 C 
ATOM     15  C   UNL     1       9.360   5.827   6.846  0.00  0.00    +0.114 C 
ATOM     16  C   UNL     1      11.576   6.809   7.630  0.00  0.00    +0.130 C 
ATOM     17  C   UNL     1       9.208   7.506   5.030  0.00  0.00    +0.119 C 
ATOM     18  C   UNL     1      11.438   8.411   5.715  0.00  0.00    +0.027 A 
ATOM     19  C   UNL     1      12.037   9.140   4.755  0.00  0.00    +0.024 A 
ATOM     20  C   UNL     1      13.568   7.334   6.302  0.00  0.00    +0.274 A 
ATOM     21  C   UNL     1       9.950   5.092   4.548  0.00  0.00    +0.306 C 
ATOM     22  C   UNL     1      14.166   8.146   5.213  0.00  0.00    +0.112 A 
ATOM     23  C   UNL     1      13.445   9.006   4.493  0.00  0.00    +0.031 A 
ATOM     36  H   UNL     1       9.449   6.220   2.879  0.00  0.00    +0.156 HD
ENDROOT
BRANCH  10  24
ATOM      2  F   UNL     1      13.271   3.213  -0.688  0.00  0.00    -0.205 F 
ATOM     24  C   UNL     1      10.871   4.893   2.214  0.00  0.00    +0.035 A 
ATOM     26  C   UNL     1      12.227   4.701   2.464  0.00  0.00    +0.026 A 
ATOM     27  C   UNL     1      10.321   4.522   0.991  0.00  0.00    +0.026 A 
ATOM     30  C   UNL     1      13.039   4.132   1.482  0.00  0.00    +0.040 A 
ATOM     31  C   UNL     1      11.132   3.953   0.009  0.00  0.00    +0.040 A 
ATOM     32  C   UNL     1      12.491   3.759   0.254  0.00  0.00    +0.124 A 
ENDBRANCH  10  24
BRANCH  22  11
ATOM     11  N   UNL     1      15.538   8.040   4.921  0.00  0.00    -0.211 N 
ATOM     37  H   UNL     1      15.966   7.193   5.319  0.00  0.00    +0.174 HD
BRANCH  11   1
ATOM      1  S   UNL     1      16.471   9.443   5.082  0.00  0.00    +0.073 S 
ATOM      6  O   UNL     1      16.459  10.184   3.835  0.00  0.00    -0.150 OA
ATOM      7  O   UNL     1      16.143  10.107   6.330  0.00  0.00    -0.150 OA
BRANCH   1  25
ATOM      3  F   UNL     1      20.675   8.453   7.777  0.00  0.00    -0.205 F 
ATOM     25  C   UNL     1      18.086   8.745   5.264  0.00  0.00    +0.111 A 
ATOM     28  C   UNL     1      18.747   8.881   6.472  0.00  0.00    +0.067 A 
ATOM     29  C   UNL     1      18.657   8.079   4.195  0.00  0.00    +0.029 A 
ATOM     33  C   UNL     1      20.021   8.331   6.616  0.00  0.00    +0.125 A 
ATOM     34  C   UNL     1      19.931   7.530   4.338  0.00  0.00    +0.005 A 
ATOM     35  C   UNL     1      20.613   7.656   5.548  0.00  0.00    +0.038 A 
ENDBRANCH   1  25
ENDBRANCH  11   1
ENDBRANCH  22  11
TORSDOF 4
ENDMDL
MODEL 3
REMARK VINA RESULT:      -7.2      2.350      2.817
REMARK  Name = 11867282
REMARK  4 active torsions:
REMARK  status: ('A' for Active; 'I' for Inactive)
REMARK    1  A    between atoms: S_1  and  N_11
REMARK    2  A    between atoms: S_1  and  C_25
REMARK    3  A    between atoms: N_10  and  C_24
REMARK    4  A    between atoms: N_11  and  C_22
REMARK                            x       y       z     vdW  Elec       q    Type
REMARK                         _______ _______ _______ _____ _____    ______ ____
ROOT
ATOM      4  O   UNL     1      -7.120 -13.463  14.641  0.00  0.00    -0.266 OA
ATOM      5  O   UNL     1      -9.979 -10.981  18.281  0.00  0.00    -0.252 OA
ATOM      8  N   UNL     1      -7.738 -10.710  18.793  0.00  0.00    -0.284 N 
ATOM      9  N   UNL     1      -6.235 -12.186  16.394  0.00  0.00    -0.310 N 
ATOM     10  N   UNL     1      -8.948  -8.972  17.753  0.00  0.00    -0.269 N 
ATOM     12  C   UNL     1      -6.451 -12.853  18.854  0.00  0.00    +0.027 C 
ATOM     13  C   UNL     1      -5.306 -10.762  18.256  0.00  0.00    +0.054 C 
ATOM     14  C   UNL     1      -5.162 -12.064  19.040  0.00  0.00    +0.018 C 
ATOM     15  C   UNL     1      -7.651 -12.050  19.382  0.00  0.00    +0.114 C 
ATOM     16  C   UNL     1      -6.604 -13.216  17.373  0.00  0.00    +0.130 C 
ATOM     17  C   UNL     1      -6.483  -9.938  18.820  0.00  0.00    +0.119 C 
ATOM     18  C   UNL     1      -5.537 -11.034  16.780  0.00  0.00    +0.027 A 
ATOM     19  C   UNL     1      -5.104 -10.159  15.854  0.00  0.00    +0.024 A 
ATOM     20  C   UNL     1      -6.526 -12.464  15.042  0.00  0.00    +0.274 A 
ATOM     21  C   UNL     1      -8.971 -10.268  18.265  0.00  0.00    +0.306 C 
ATOM     22  C   UNL     1      -6.045 -11.449  14.071  0.00  0.00    +0.112 A 
ATOM     23  C   UNL     1      -5.364 -10.369  14.455  0.00  0.00    +0.031 A 
ATOM     36  H   UNL     1      -8.282  -8.314  18.142  0.00  0.00    +0.156 HD
ENDROOT
BRANCH  10  24
ATOM      2  F   UNL     1     -12.279  -6.852  13.867  0.00  0.00    -0.205 F 
ATOM     24  C   UNL     1      -9.799  -8.429  16.758  0.00  0.00    +0.035 A 
ATOM     26  C   UNL     1     -10.614  -7.342  17.064  0.00  0.00    +0.026 A 
ATOM     27  C   UNL     1      -9.816  -8.986  15.484  0.00  0.00    +0.026 A 
ATOM     30  C   UNL     1     -11.452  -6.808  16.085  0.00  0.00    +0.040 A 
ATOM     31  C   UNL     1     -10.655  -8.453  14.505  0.00  0.00    +0.040 A 
ATOM     32  C   UNL     1     -11.473  -7.364  14.806  0.00  0.00    +0.124 A 
ENDBRANCH  10  24
BRANCH  22  11
ATOM     11  N   UNL     1      -6.285 -11.615  12.695  0.00  0.00    -0.211 N 
ATOM     37  H   UNL     1      -7.265 -11.849  12.486  0.00  0.00    +0.174 HD
BRANCH  11   1
ATOM      1  S   UNL     1      -5.145 -12.507  11.816  0.00  0.00    +0.073 S 
ATOM      6  O   UNL     1      -4.431 -13.400  12.708  0.00  0.00    -0.150 OA
ATOM      7  O   UNL     1      -5.757 -13.018  10.604  0.00  0.00    -0.150 OA
BRANCH   1  25
ATOM      3  F   UNL     1      -3.801  -8.529   8.936  0.00  0.00    -0.205 F 
ATOM     25  C   UNL     1      -4.021 -11.227  11.341  0.00  0.00    +0.111 A 
ATOM     28  C   UNL     1      -4.368 -10.373  10.309  0.00  0.00    +0.067 A 
ATOM     29  C   UNL     1      -2.816 -11.106  12.009  0.00  0.00    +0.029 A 
ATOM     33  C   UNL     1      -3.482  -9.364   9.933  0.00  0.00    +0.125 A 
ATOM     34  C   UNL     1      -1.929 -10.097  11.633  0.00  0.00    +0.005 A 
ATOM     35  C   UNL     1      -2.261  -9.227  10.595  0.00  0.00    +0.038 A 
ENDBRANCH   1  25
ENDBRANCH  11   1
ENDBRANCH  22  11
TORSDOF 4
ENDMDL
MODEL 4
REMARK VINA RESULT:      -7.1     30.178     33.084
REMARK  Name = 11867282
REMARK  4 active torsions:
REMARK  status: ('A' for Active; 'I' for Inactive)
REMARK    1  A    between atoms: S_1  and  N_11
REMARK    2  A    between atoms: S_1  and  C_25
REMARK    3  A    between atoms: N_10  and  C_24
REMARK    4  A    between atoms: N_11  and  C_22
REMARK                            x       y       z     vdW  Elec       q    Type
REMARK                         _______ _______ _______ _____ _____    ______ ____
ROOT
ATOM      4  O   UNL     1      20.675   4.065  20.407  0.00  0.00    -0.266 OA
ATOM      5  O   UNL     1      22.317   2.307  25.076  0.00  0.00    -0.252 OA
ATOM      8  N   UNL     1      24.170   2.763  23.767  0.00  0.00    -0.284 N 
ATOM      9  N   UNL     1      22.918   3.917  21.066  0.00  0.00    -0.310 N 
ATOM     10  N   UNL     1      23.478   4.281  25.436  0.00  0.00    -0.269 N 
ATOM     12  C   UNL     1      24.100   1.691  21.509  0.00  0.00    +0.027 C 
ATOM     13  C   UNL     1      25.322   3.801  21.818  0.00  0.00    +0.054 C 
ATOM     14  C   UNL     1      25.366   2.444  21.122  0.00  0.00    +0.018 C 
ATOM     15  C   UNL     1      24.035   1.501  23.033  0.00  0.00    +0.114 C 
ATOM     16  C   UNL     1      22.883   2.452  20.969  0.00  0.00    +0.130 C 
ATOM     17  C   UNL     1      25.305   3.605  23.349  0.00  0.00    +0.119 C 
ATOM     18  C   UNL     1      24.100   4.595  21.392  0.00  0.00    +0.027 A 
ATOM     19  C   UNL     1      24.143   5.941  21.362  0.00  0.00    +0.024 A 
ATOM     20  C   UNL     1      21.737   4.603  20.716  0.00  0.00    +0.274 A 
ATOM     21  C   UNL     1      23.243   3.070  24.787  0.00  0.00    +0.306 C 
ATOM     22  C   UNL     1      21.840   6.084  20.725  0.00  0.00    +0.112 A 
ATOM     23  C   UNL     1      22.980   6.712  21.018  0.00  0.00    +0.031 A 
ATOM     36  H   UNL     1      24.431   4.627  25.477  0.00  0.00    +0.156 HD
ENDROOT
BRANCH  10  24
ATOM      2  F   UNL     1      19.765   7.444  28.063  0.00  0.00    -0.205 F 
ATOM     24  C   UNL     1      22.530   5.091  26.108  0.00  0.00    +0.035 A 
ATOM     26  C   UNL     1      22.165   4.787  27.417  0.00  0.00    +0.026 A 
ATOM     27  C   UNL     1      21.967   6.184  25.456  0.00  0.00    +0.026 A 
ATOM     30  C   UNL     1      21.230   5.584  28.078  0.00  0.00    +0.040 A 
ATOM     31  C   UNL     1      21.032   6.980  26.117  0.00  0.00    +0.040 A 
ATOM     32  C   UNL     1      20.663   6.680  27.428  0.00  0.00    +0.124 A 
ENDBRANCH  10  24
BRANCH  22  11
ATOM     11  N   UNL     1      20.723   6.874  20.402  0.00  0.00    -0.211 N 
ATOM     37  H   UNL     1      20.958   7.664  19.785  0.00  0.00    +0.174 HD
BRANCH  11   1
ATOM      1  S   UNL     1      19.659   7.258  21.662  0.00  0.00    +0.073 S 
ATOM      6  O   UNL     1      19.793   6.284  22.727  0.00  0.00    -0.150 OA
ATOM      7  O   UNL     1      19.741   8.677  21.954  0.00  0.00    -0.150 OA
BRANCH   1  25
ATOM      3  F   UNL     1      16.790   5.398  17.889  0.00  0.00    -0.205 F 
ATOM     25  C   UNL     1      18.101   6.969  20.876  0.00  0.00    +0.111 A 
ATOM     28  C   UNL     1      18.068   6.285  19.674  0.00  0.00    +0.067 A 
ATOM     29  C   UNL     1      16.946   7.434  21.478  0.00  0.00    +0.029 A 
ATOM     33  C   UNL     1      16.840   6.058  19.053  0.00  0.00    +0.125 A 
ATOM     34  C   UNL     1      15.717   7.208  20.858  0.00  0.00    +0.005 A 
ATOM     35  C   UNL     1      15.664   6.520  19.646  0.00  0.00    +0.038 A 
ENDBRANCH   1  25
ENDBRANCH  11   1
ENDBRANCH  22  11
TORSDOF 4
ENDMDL
MODEL 5
REMARK VINA RESULT:      -7.1     28.071     30.309
REMARK  Name = 11867282
REMARK  4 active torsions:
REMARK  status: ('A' for Active; 'I' for Inactive)
REMARK    1  A    between atoms: S_1  and  N_11
REMARK    2  A    between atoms: S_1  and  C_25
REMARK    3  A    between atoms: N_10  and  C_24
REMARK    4  A    between atoms: N_11  and  C_22
REMARK                            x       y       z     vdW  Elec       q    Type
REMARK                         _______ _______ _______ _____ _____    ______ ____
ROOT
ATOM      4  O   UNL     1      15.290   9.570  22.670  0.00  0.00    -0.266 OA
ATOM      5  O   UNL     1      14.378   7.779  17.817  0.00  0.00    -0.252 OA
ATOM      8  N   UNL     1      12.363   7.898  18.949  0.00  0.00    -0.284 N 
ATOM      9  N   UNL     1      13.168   9.115  21.790  0.00  0.00    -0.310 N 
ATOM     10  N   UNL     1      12.967   9.571  17.397  0.00  0.00    -0.269 N 
ATOM     12  C   UNL     1      12.386   6.758  21.174  0.00  0.00    +0.027 C 
ATOM     13  C   UNL     1      10.890   8.672  20.803  0.00  0.00    +0.054 C 
ATOM     14  C   UNL     1      10.990   7.295  21.455  0.00  0.00    +0.018 C 
ATOM     15  C   UNL     1      12.621   6.642  19.659  0.00  0.00    +0.114 C 
ATOM     16  C   UNL     1      13.417   7.670  21.851  0.00  0.00    +0.130 C 
ATOM     17  C   UNL     1      11.079   8.544  19.277  0.00  0.00    +0.119 C 
ATOM     18  C   UNL     1      11.931   9.622  21.367  0.00  0.00    +0.027 A 
ATOM     19  C   UNL     1      11.680  10.943  21.429  0.00  0.00    +0.024 A 
ATOM     20  C   UNL     1      14.192   9.956  22.272  0.00  0.00    +0.274 A 
ATOM     21  C   UNL     1      13.324   8.383  18.034  0.00  0.00    +0.306 C 
ATOM     22  C   UNL     1      13.864  11.403  22.292  0.00  0.00    +0.112 A 
ATOM     23  C   UNL     1      12.675  11.865  21.905  0.00  0.00    +0.031 A 
ATOM     36  H   UNL     1      11.981   9.771  17.273  0.00  0.00    +0.156 HD
ENDROOT
BRANCH  10  24
ATOM      2  F   UNL     1      16.381  13.359  15.231  0.00  0.00    -0.205 F 
ATOM     24  C   UNL     1      13.839  10.540  16.843  0.00  0.00    +0.035 A 
ATOM     26  C   UNL     1      14.331  10.370  15.552  0.00  0.00    +0.026 A 
ATOM     27  C   UNL     1      14.199  11.656  17.593  0.00  0.00    +0.026 A 
ATOM     30  C   UNL     1      15.191  11.324  15.007  0.00  0.00    +0.040 A 
ATOM     31  C   UNL     1      15.058  12.609  17.048  0.00  0.00    +0.040 A 
ATOM     32  C   UNL     1      15.555  12.444  15.756  0.00  0.00    +0.124 A 
ENDBRANCH  10  24
BRANCH  22  11
ATOM     11  N   UNL     1      14.812  12.338  22.744  0.00  0.00    -0.211 N 
ATOM     37  H   UNL     1      15.740  12.205  22.318  0.00  0.00    +0.174 HD
BRANCH  11   1
ATOM      1  S   UNL     1      14.842  12.664  24.406  0.00  0.00    +0.073 S 
ATOM      6  O   UNL     1      14.651  11.433  25.148  0.00  0.00    -0.150 OA
ATOM      7  O   UNL     1      15.960  13.536  24.711  0.00  0.00    -0.150 OA
BRANCH   1  25
ATOM      3  F   UNL     1      10.176  13.445  26.288  0.00  0.00    -0.205 F 
ATOM     25  C   UNL     1      13.364  13.619  24.580  0.00  0.00    +0.111 A 
ATOM     28  C   UNL     1      12.342  13.140  25.381  0.00  0.00    +0.067 A 
ATOM     29  C   UNL     1      13.258  14.825  23.911  0.00  0.00    +0.029 A 
ATOM     33  C   UNL     1      11.176  13.893  25.518  0.00  0.00    +0.125 A 
ATOM     34  C   UNL     1      12.091  15.578  24.048  0.00  0.00    +0.005 A 
ATOM     35  C   UNL     1      11.050  15.112  24.850  0.00  0.00    +0.038 A 
ENDBRANCH   1  25
ENDBRANCH  11   1
ENDBRANCH  22  11
TORSDOF 4
ENDMDL
MODEL 6
REMARK VINA RESULT:      -7.0     24.754     27.606
REMARK  Name = 11867282
REMARK  4 active torsions:
REMARK  status: ('A' for Active; 'I' for Inactive)
REMARK    1  A    between atoms: S_1  and  N_11
REMARK    2  A    between atoms: S_1  and  C_25
REMARK    3  A    between atoms: N_10  and  C_24
REMARK    4  A    between atoms: N_11  and  C_22
REMARK                            x       y       z     vdW  Elec       q    Type
REMARK                         _______ _______ _______ _____ _____    ______ ____
ROOT
ATOM      4  O   UNL     1       9.155   8.144   2.887  0.00  0.00    -0.266 OA
ATOM      5  O   UNL     1      12.437   9.543   6.742  0.00  0.00    -0.252 OA
ATOM      8  N   UNL     1      11.229   7.695   7.437  0.00  0.00    -0.284 N 
ATOM      9  N   UNL     1       9.424   6.980   4.902  0.00  0.00    -0.310 N 
ATOM     10  N   UNL     1      13.448   7.457   6.668  0.00  0.00    -0.269 N 
ATOM     12  C   UNL     1       8.756   7.948   7.174  0.00  0.00    +0.027 C 
ATOM     13  C   UNL     1       9.770   5.713   7.054  0.00  0.00    +0.054 C 
ATOM     14  C   UNL     1       8.572   6.494   7.586  0.00  0.00    +0.018 C 
ATOM     15  C   UNL     1      10.058   8.511   7.767  0.00  0.00    +0.114 C 
ATOM     16  C   UNL     1       8.729   8.040   5.644  0.00  0.00    +0.130 C 
ATOM     17  C   UNL     1      11.070   6.251   7.688  0.00  0.00    +0.119 C 
ATOM     18  C   UNL     1       9.861   5.813   5.542  0.00  0.00    +0.027 A 
ATOM     19  C   UNL     1      10.389   4.802   4.827  0.00  0.00    +0.024 A 
ATOM     20  C   UNL     1       9.533   7.151   3.507  0.00  0.00    +0.274 A 
ATOM     21  C   UNL     1      12.386   8.323   6.924  0.00  0.00    +0.306 C 
ATOM     22  C   UNL     1      10.147   6.014   2.777  0.00  0.00    +0.112 A 
ATOM     23  C   UNL     1      10.539   4.902   3.400  0.00  0.00    +0.031 A 
ATOM     36  H   UNL     1      13.516   6.607   7.216  0.00  0.00    +0.156 HD
ENDROOT
BRANCH  10  24
ATOM      2  F   UNL     1      17.572   8.206   3.046  0.00  0.00    -0.205 F 
ATOM     24  C   UNL     1      14.503   7.647   5.742  0.00  0.00    +0.035 A 
ATOM     26  C   UNL     1      15.692   8.239   6.160  0.00  0.00    +0.026 A 
ATOM     27  C   UNL     1      14.344   7.243   4.420  0.00  0.00    +0.026 A 
ATOM     30  C   UNL     1      16.730   8.427   5.247  0.00  0.00    +0.040 A 
ATOM     31  C   UNL     1      15.382   7.431   3.508  0.00  0.00    +0.040 A 
ATOM     32  C   UNL     1      16.575   8.024   3.921  0.00  0.00    +0.124 A 
ENDBRANCH  10  24
BRANCH  22  11
ATOM     11  N   UNL     1      10.316   6.075   1.382  0.00  0.00    -0.211 N 
ATOM     37  H   UNL     1      10.192   5.161   0.925  0.00  0.00    +0.174 HD
BRANCH  11   1
ATOM      1  S   UNL     1      11.625   6.980   0.804  0.00  0.00    +0.073 S 
ATOM      6  O   UNL     1      11.262   7.620  -0.445  0.00  0.00    -0.150 OA
ATOM      7  O   UNL     1      12.194   7.760   1.887  0.00  0.00    -0.150 OA
BRANCH   1  25
ATOM      3  F   UNL     1      15.080   3.482   2.127  0.00  0.00    -0.205 F 
ATOM     25  C   UNL     1      12.773   5.690   0.421  0.00  0.00    +0.111 A 
ATOM     28  C   UNL     1      13.480   5.090   1.447  0.00  0.00    +0.067 A 
ATOM     29  C   UNL     1      12.942   5.309  -0.898  0.00  0.00    +0.029 A 
ATOM     33  C   UNL     1      14.387   4.074   1.146  0.00  0.00    +0.125 A 
ATOM     34  C   UNL     1      13.849   4.292  -1.200  0.00  0.00    +0.005 A 
ATOM     35  C   UNL     1      14.571   3.676  -0.179  0.00  0.00    +0.038 A 
ENDBRANCH   1  25
ENDBRANCH  11   1
ENDBRANCH  22  11
TORSDOF 4
ENDMDL
MODEL 7
REMARK VINA RESULT:      -6.9     23.931     28.057
REMARK  Name = 11867282
REMARK  4 active torsions:
REMARK  status: ('A' for Active; 'I' for Inactive)
REMARK    1  A    between atoms: S_1  and  N_11
REMARK    2  A    between atoms: S_1  and  C_25
REMARK    3  A    between atoms: N_10  and  C_24
REMARK    4  A    between atoms: N_11  and  C_22
REMARK                            x       y       z     vdW  Elec       q    Type
REMARK                         _______ _______ _______ _____ _____    ______ ____
ROOT
ATOM      4  O   UNL     1      11.846  10.821   5.148  0.00  0.00    -0.266 OA
ATOM      5  O   UNL     1      14.296   8.149   1.348  0.00  0.00    -0.252 OA
ATOM      8  N   UNL     1      15.635   8.140   3.235  0.00  0.00    -0.284 N 
ATOM      9  N   UNL     1      13.887   9.700   5.404  0.00  0.00    -0.310 N 
ATOM     10  N   UNL     1      14.337   6.250   2.678  0.00  0.00    -0.269 N 
ATOM     12  C   UNL     1      16.031  10.411   4.203  0.00  0.00    +0.027 C 
ATOM     13  C   UNL     1      16.055   8.441   5.672  0.00  0.00    +0.054 C 
ATOM     14  C   UNL     1      16.744   9.773   5.388  0.00  0.00    +0.018 C 
ATOM     15  C   UNL     1      16.119   9.498   2.969  0.00  0.00    +0.114 C 
ATOM     16  C   UNL     1      14.580  10.712   4.597  0.00  0.00    +0.130 C 
ATOM     17  C   UNL     1      16.188   7.511   4.448  0.00  0.00    +0.119 C 
ATOM     18  C   UNL     1      14.587   8.643   6.001  0.00  0.00    +0.027 A 
ATOM     19  C   UNL     1      13.955   7.794   6.833  0.00  0.00    +0.024 A 
ATOM     20  C   UNL     1      12.510   9.905   5.630  0.00  0.00    +0.274 A 
ATOM     21  C   UNL     1      14.712   7.550   2.344  0.00  0.00    +0.306 C 
ATOM     22  C   UNL     1      11.866   8.921   6.535  0.00  0.00    +0.112 A 
ATOM     23  C   UNL     1      12.552   7.933   7.111  0.00  0.00    +0.031 A 
ATOM     36  H   UNL     1      14.993   5.680   3.200  0.00  0.00    +0.156 HD
ENDROOT
BRANCH  10  24
ATOM      2  F   UNL     1       9.635   3.666   1.296  0.00  0.00    -0.205 F 
ATOM     24  C   UNL     1      13.134   5.588   2.326  0.00  0.00    +0.035 A 
ATOM     26  C   UNL     1      13.181   4.440   1.541  0.00  0.00    +0.026 A 
ATOM     27  C   UNL     1      11.913   6.092   2.765  0.00  0.00    +0.026 A 
ATOM     30  C   UNL     1      11.997   3.789   1.193  0.00  0.00    +0.040 A 
ATOM     31  C   UNL     1      10.730   5.442   2.417  0.00  0.00    +0.040 A 
ATOM     32  C   UNL     1      10.771   4.291   1.631  0.00  0.00    +0.124 A 
ENDBRANCH  10  24
BRANCH  22  11
ATOM     11  N   UNL     1      10.493   9.019   6.827  0.00  0.00    -0.211 N 
ATOM     37  H   UNL     1      10.299   9.017   7.838  0.00  0.00    +0.174 HD
BRANCH  11   1
ATOM      1  S   UNL     1       9.439   8.067   5.906  0.00  0.00    +0.073 S 
ATOM      6  O   UNL     1       8.084   8.564   6.044  0.00  0.00    -0.150 OA
ATOM      7  O   UNL     1      10.007   7.846   4.589  0.00  0.00    -0.150 OA
BRANCH   1  25
ATOM      3  F   UNL     1       9.029   5.264  10.137  0.00  0.00    -0.205 F 
ATOM     25  C   UNL     1       9.530   6.534   6.784  0.00  0.00    +0.111 A 
ATOM     28  C   UNL     1       9.236   6.512   8.136  0.00  0.00    +0.067 A 
ATOM     29  C   UNL     1       9.893   5.387   6.101  0.00  0.00    +0.029 A 
ATOM     33  C   UNL     1       9.309   5.303   8.828  0.00  0.00    +0.125 A 
ATOM     34  C   UNL     1       9.966   4.178   6.793  0.00  0.00    +0.005 A 
ATOM     35  C   UNL     1       9.674   4.136   8.156  0.00  0.00    +0.038 A 
ENDBRANCH   1  25
ENDBRANCH  11   1
ENDBRANCH  22  11
TORSDOF 4
ENDMDL
MODEL 8
REMARK VINA RESULT:      -6.9      3.160      7.403
REMARK  Name = 11867282
REMARK  4 active torsions:
REMARK  status: ('A' for Active; 'I' for Inactive)
REMARK    1  A    between atoms: S_1  and  N_11
REMARK    2  A    between atoms: S_1  and  C_25
REMARK    3  A    between atoms: N_10  and  C_24
REMARK    4  A    between atoms: N_11  and  C_22
REMARK                            x       y       z     vdW  Elec       q    Type
REMARK                         _______ _______ _______ _____ _____    ______ ____
ROOT
ATOM      4  O   UNL     1      -7.870 -12.700  12.013  0.00  0.00    -0.266 OA
ATOM      5  O   UNL     1      -3.521 -13.284  14.900  0.00  0.00    -0.252 OA
ATOM      8  N   UNL     1      -3.090 -11.752  13.220  0.00  0.00    -0.284 N 
ATOM      9  N   UNL     1      -5.889 -11.488  11.707  0.00  0.00    -0.310 N 
ATOM     10  N   UNL     1      -3.536 -11.024  15.420  0.00  0.00    -0.269 N 
ATOM     12  C   UNL     1      -3.699 -12.562  10.934  0.00  0.00    +0.027 C 
ATOM     13  C   UNL     1      -3.766 -10.156  11.431  0.00  0.00    +0.054 C 
ATOM     14  C   UNL     1      -3.381 -11.184  10.370  0.00  0.00    +0.018 C 
ATOM     15  C   UNL     1      -2.899 -12.810  12.224  0.00  0.00    +0.114 C 
ATOM     16  C   UNL     1      -5.211 -12.671  11.162  0.00  0.00    +0.130 C 
ATOM     17  C   UNL     1      -2.926 -10.380  12.707  0.00  0.00    +0.119 C 
ATOM     18  C   UNL     1      -5.243 -10.246  11.771  0.00  0.00    +0.027 A 
ATOM     19  C   UNL     1      -5.916  -9.148  12.163  0.00  0.00    +0.024 A 
ATOM     20  C   UNL     1      -7.245 -11.642  12.063  0.00  0.00    +0.274 A 
ATOM     21  C   UNL     1      -3.400 -12.106  14.552  0.00  0.00    +0.306 C 
ATOM     22  C   UNL     1      -7.925 -10.401  12.510  0.00  0.00    +0.112 A 
ATOM     23  C   UNL     1      -7.300  -9.224  12.545  0.00  0.00    +0.031 A 
ATOM     36  H   UNL     1      -3.021 -10.175  15.214  0.00  0.00    +0.156 HD
ENDROOT
BRANCH  10  24
ATOM      2  F   UNL     1      -6.480 -10.837  20.109  0.00  0.00    -0.205 F 
ATOM     24  C   UNL     1      -4.289 -10.978  16.619  0.00  0.00    +0.035 A 
ATOM     26  C   UNL     1      -5.520 -10.327  16.638  0.00  0.00    +0.026 A 
ATOM     27  C   UNL     1      -3.794 -11.580  17.772  0.00  0.00    +0.026 A 
ATOM     30  C   UNL     1      -6.261 -10.280  17.819  0.00  0.00    +0.040 A 
ATOM     31  C   UNL     1      -4.535 -11.533  18.952  0.00  0.00    +0.040 A 
ATOM     32  C   UNL     1      -5.768 -10.883  18.976  0.00  0.00    +0.124 A 
ENDBRANCH  10  24
BRANCH  22  11
ATOM     11  N   UNL     1      -9.276 -10.435  12.899  0.00  0.00    -0.211 N 
ATOM     37  H   UNL     1      -9.802  -9.606  12.588  0.00  0.00    +0.174 HD
BRANCH  11   1
ATOM      1  S   UNL     1      -9.611 -10.926  14.484  0.00  0.00    +0.073 S 
ATOM      6  O   UNL     1     -10.805 -11.748  14.500  0.00  0.00    -0.150 OA
ATOM      7  O   UNL     1      -8.392 -11.395  15.116  0.00  0.00    -0.150 OA
BRANCH   1  25
ATOM      3  F   UNL     1     -11.929  -6.393  14.458  0.00  0.00    -0.205 F 
ATOM     25  C   UNL     1     -10.028  -9.376  15.228  0.00  0.00    +0.111 A 
ATOM     28  C   UNL     1     -10.828  -8.488  14.532  0.00  0.00    +0.067 A 
ATOM     29  C   UNL     1      -9.544  -9.082  16.490  0.00  0.00    +0.029 A 
ATOM     33  C   UNL     1     -11.156  -7.265  15.117  0.00  0.00    +0.125 A 
ATOM     34  C   UNL     1      -9.871  -7.859  17.076  0.00  0.00    +0.005 A 
ATOM     35  C   UNL     1     -10.677  -6.951  16.390  0.00  0.00    +0.038 A 
ENDBRANCH   1  25
ENDBRANCH  11   1
ENDBRANCH  22  11
TORSDOF 4
ENDMDL
MODEL 9
REMARK VINA RESULT:      -6.9      3.139      6.754
REMARK  Name = 11867282
REMARK  4 active torsions:
REMARK  status: ('A' for Active; 'I' for Inactive)
REMARK    1  A    between atoms: S_1  and  N_11
REMARK    2  A    between atoms: S_1  and  C_25
REMARK    3  A    between atoms: N_10  and  C_24
REMARK    4  A    between atoms: N_11  and  C_22
REMARK                            x       y       z     vdW  Elec       q    Type
REMARK                         _______ _______ _______ _____ _____    ______ ____
ROOT
ATOM      4  O   UNL     1      -8.375  -8.811  16.325  0.00  0.00    -0.266 OA
ATOM      5  O   UNL     1      -3.276 -10.064  16.482  0.00  0.00    -0.252 OA
ATOM      8  N   UNL     1      -4.507 -11.894  17.184  0.00  0.00    -0.284 N 
ATOM      9  N   UNL     1      -7.534 -10.926  16.881  0.00  0.00    -0.310 N 
ATOM     10  N   UNL     1      -3.635 -11.805  14.992  0.00  0.00    -0.269 N 
ATOM     12  C   UNL     1      -6.155 -11.371  18.990  0.00  0.00    +0.027 C 
ATOM     13  C   UNL     1      -6.609 -13.208  17.422  0.00  0.00    +0.054 C 
ATOM     14  C   UNL     1      -6.706 -12.787  18.886  0.00  0.00    +0.018 C 
ATOM     15  C   UNL     1      -4.690 -11.331  18.524  0.00  0.00    +0.114 C 
ATOM     16  C   UNL     1      -7.047 -10.428  18.173  0.00  0.00    +0.130 C 
ATOM     17  C   UNL     1      -5.133 -13.212  16.974  0.00  0.00    +0.119 C 
ATOM     18  C   UNL     1      -7.410 -12.277  16.530  0.00  0.00    +0.027 A 
ATOM     19  C   UNL     1      -7.967 -12.738  15.394  0.00  0.00    +0.024 A 
ATOM     20  C   UNL     1      -8.220 -10.004  16.064  0.00  0.00    +0.274 A 
ATOM     21  C   UNL     1      -3.769 -11.166  16.224  0.00  0.00    +0.306 C 
ATOM     22  C   UNL     1      -8.789 -10.567  14.815  0.00  0.00    +0.112 A 
ATOM     23  C   UNL     1      -8.679 -11.860  14.507  0.00  0.00    +0.031 A 
ATOM     36  H   UNL     1      -3.659 -12.818  14.972  0.00  0.00    +0.156 HD
ENDROOT
BRANCH  10  24
ATOM      2  F   UNL     1      -2.776  -9.418  10.067  0.00  0.00    -0.205 F 
ATOM     24  C   UNL     1      -3.416 -11.196  13.732  0.00  0.00    +0.035 A 
ATOM     26  C   UNL     1      -2.121 -11.088  13.232  0.00  0.00    +0.026 A 
ATOM     27  C   UNL     1      -4.495 -10.706  13.003  0.00  0.00    +0.026 A 
ATOM     30  C   UNL     1      -1.905 -10.488  11.991  0.00  0.00    +0.040 A 
ATOM     31  C   UNL     1      -4.279 -10.106  11.763  0.00  0.00    +0.040 A 
ATOM     32  C   UNL     1      -2.985  -9.996  11.257  0.00  0.00    +0.124 A 
ENDBRANCH  10  24
BRANCH  22  11
ATOM     11  N   UNL     1      -9.487  -9.739  13.917  0.00  0.00    -0.211 N 
ATOM     37  H   UNL     1      -9.117  -8.779  13.890  0.00  0.00    +0.174 HD
BRANCH  11   1
ATOM      1  S   UNL     1     -11.176  -9.843  13.927  0.00  0.00    +0.073 S 
ATOM      6  O   UNL     1     -11.648 -10.259  12.620  0.00  0.00    -0.150 OA
ATOM      7  O   UNL     1     -11.614 -10.544  15.119  0.00  0.00    -0.150 OA
BRANCH   1  25
ATOM      3  F   UNL     1     -11.325  -5.513  16.600  0.00  0.00    -0.205 F 
ATOM     25  C   UNL     1     -11.610  -8.140  14.125  0.00  0.00    +0.111 A 
ATOM     28  C   UNL     1     -11.287  -7.495  15.306  0.00  0.00    +0.067 A 
ATOM     29  C   UNL     1     -12.265  -7.487  13.097  0.00  0.00    +0.029 A 
ATOM     33  C   UNL     1     -11.630  -6.153  15.464  0.00  0.00    +0.125 A 
ATOM     34  C   UNL     1     -12.608  -6.144  13.254  0.00  0.00    +0.005 A 
ATOM     35  C   UNL     1     -12.291  -5.477  14.437  0.00  0.00    +0.038 A 
ENDBRANCH   1  25
ENDBRANCH  11   1
ENDBRANCH  22  11
TORSDOF 4
ENDMDL
MODEL 10
REMARK VINA RESULT:      -6.7     24.956     27.827
REMARK  Name = 11867282
REMARK  4 active torsions:
REMARK  status: ('A' for Active; 'I' for Inactive)
REMARK    1  A    between atoms: S_1  and  N_11
REMARK    2  A    between atoms: S_1  and  C_25
REMARK    3  A    between atoms: N_10  and  C_24
REMARK    4  A    between atoms: N_11  and  C_22
REMARK                            x       y       z     vdW  Elec       q    Type
REMARK                         _______ _______ _______ _____ _____    ______ ____
ROOT
ATOM      4  O   UNL     1       9.914   7.801   1.215  0.00  0.00    -0.266 OA
ATOM      5  O   UNL     1      12.021   9.235   5.808  0.00  0.00    -0.252 OA
ATOM      8  N   UNL     1      10.792   7.301   6.133  0.00  0.00    -0.284 N 
ATOM      9  N   UNL     1       9.735   6.581   3.207  0.00  0.00    -0.310 N 
ATOM     10  N   UNL     1      13.143   7.211   5.950  0.00  0.00    -0.269 N 
ATOM     12  C   UNL     1       8.455   7.430   5.253  0.00  0.00    +0.027 C 
ATOM     13  C   UNL     1       9.602   5.258   5.349  0.00  0.00    +0.054 C 
ATOM     14  C   UNL     1       8.262   5.953   5.574  0.00  0.00    +0.018 C 
ATOM     15  C   UNL     1       9.527   8.041   6.170  0.00  0.00    +0.114 C 
ATOM     16  C   UNL     1       8.812   7.575   3.769  0.00  0.00    +0.130 C 
ATOM     17  C   UNL     1      10.663   5.842   6.305  0.00  0.00    +0.119 C 
ATOM     18  C   UNL     1      10.066   5.417   3.912  0.00  0.00    +0.027 A 
ATOM     19  C   UNL     1      10.820   4.463   3.334  0.00  0.00    +0.024 A 
ATOM     20  C   UNL     1      10.184   6.808   1.889  0.00  0.00    +0.274 A 
ATOM     21  C   UNL     1      12.000   8.008   5.945  0.00  0.00    +0.306 C 
ATOM     22  C   UNL     1      11.030   5.732   1.317  0.00  0.00    +0.112 A 
ATOM     23  C   UNL     1      11.319   4.621   1.996  0.00  0.00    +0.031 A 
ATOM     36  H   UNL     1      13.123   6.346   6.479  0.00  0.00    +0.156 HD
ENDROOT
BRANCH  10  24
ATOM      2  F   UNL     1      18.000   8.297   3.517  0.00  0.00    -0.205 F 
ATOM     24  C   UNL     1      14.385   7.490   5.328  0.00  0.00    +0.035 A 
ATOM     26  C   UNL     1      14.551   7.231   3.970  0.00  0.00    +0.026 A 
ATOM     27  C   UNL     1      15.431   8.019   6.078  0.00  0.00    +0.026 A 
ATOM     30  C   UNL     1      15.775   7.505   3.357  0.00  0.00    +0.040 A 
ATOM     31  C   UNL     1      16.654   8.292   5.465  0.00  0.00    +0.040 A 
ATOM     32  C   UNL     1      16.826   8.035   4.106  0.00  0.00    +0.124 A 
ENDBRANCH  10  24
BRANCH  22  11
ATOM     11  N   UNL     1      11.544   5.852   0.013  0.00  0.00    -0.211 N 
ATOM     37  H   UNL     1      12.169   6.662  -0.097  0.00  0.00    +0.174 HD
BRANCH  11   1
ATOM      1  S   UNL     1      10.459   5.623  -1.267  0.00  0.00    +0.073 S 
ATOM      6  O   UNL     1       9.278   4.932  -0.788  0.00  0.00    -0.150 OA
ATOM      7  O   UNL     1      10.330   6.854  -2.023  0.00  0.00    -0.150 OA
BRANCH   1  25
ATOM      3  F   UNL     1      13.501   4.499  -5.193  0.00  0.00    -0.205 F 
ATOM     25  C   UNL     1      11.368   4.481  -2.267  0.00  0.00    +0.111 A 
ATOM     28  C   UNL     1      12.085   4.957  -3.350  0.00  0.00    +0.067 A 
ATOM     29  C   UNL     1      11.341   3.136  -1.948  0.00  0.00    +0.029 A 
ATOM     33  C   UNL     1      12.801   4.057  -4.140  0.00  0.00    +0.125 A 
ATOM     34  C   UNL     1      12.057   2.236  -2.738  0.00  0.00    +0.005 A 
ATOM     35  C   UNL     1      12.786   2.696  -3.834  0.00  0.00    +0.038 A 
ENDBRANCH   1  25
ENDBRANCH  11   1
ENDBRANCH  22  11
TORSDOF 4
ENDMDL
