MODEL 1
REMARK VINA RESULT:      -7.7      0.000      0.000
REMARK  Name = 44716456
REMARK  9 active torsions:
REMARK  status: ('A' for Active; 'I' for Inactive)
REMARK    1  A    between atoms: O_4  and  C_23
REMARK    2  A    between atoms: O_4  and  C_35
REMARK    3  A    between atoms: O_6  and  C_34
REMARK    4  A    between atoms: O_6  and  C_40
REMARK    5  A    between atoms: N_9  and  C_14
REMARK    6  A    between atoms: N_9  and  C_24
REMARK    7  A    between atoms: C_12  and  C_20
REMARK    8  A    between atoms: C_16  and  C_23
REMARK    9  A    between atoms: C_24  and  C_32
REMARK                            x       y       z     vdW  Elec       q    Type
REMARK                         _______ _______ _______ _____ _____    ______ ____
ROOT
ATOM      7  N   UNL     1      10.763   6.168   2.529  0.00  0.00    -0.274 NA
ATOM      8  N   UNL     1      10.694   5.984  -1.222  0.00  0.00    -0.356 N 
ATOM     11  C   UNL     1      10.662   6.833   1.194  0.00  0.00    +0.106 C 
ATOM     12  C   UNL     1      10.517   7.119   3.642  0.00  0.00    +0.090 C 
ATOM     13  C   UNL     1       9.278   7.476   1.010  0.00  0.00    +0.044 C 
ATOM     14  C   UNL     1       9.012   8.498   2.116  0.00  0.00    +0.058 C 
ATOM     15  C   UNL     1       9.149   7.824   3.480  0.00  0.00    +0.042 C 
ATOM     16  C   UNL     1      11.994   5.343   2.673  0.00  0.00    +0.172 C 
ATOM     17  C   UNL     1      10.956   5.838   0.111  0.00  0.00    +0.038 A 
ATOM     18  C   UNL     1      12.063   4.193   1.636  0.00  0.00    +0.068 C 
ATOM     19  C   UNL     1      11.610   4.638   0.290  0.00  0.00    -0.016 A 
ATOM     21  C   UNL     1      11.721   4.010  -0.980  0.00  0.00    +0.003 A 
ATOM     22  C   UNL     1      11.136   4.875  -1.911  0.00  0.00    +0.047 A 
ATOM     27  C   UNL     1      12.263   2.791  -1.435  0.00  0.00    +0.010 A 
ATOM     28  C   UNL     1      11.068   4.577  -3.277  0.00  0.00    +0.026 A 
ATOM     29  C   UNL     1      12.199   2.481  -2.798  0.00  0.00    +0.001 A 
ATOM     33  C   UNL     1      11.610   3.361  -3.703  0.00  0.00    +0.002 A 
ATOM     41  H   UNL     1      10.241   6.781  -1.647  0.00  0.00    +0.166 HD
ENDROOT
BRANCH  12  20
ATOM     20  C   UNL     1      10.546   6.478   5.028  0.00  0.00    -0.030 A 
ATOM     25  C   UNL     1      11.347   7.021   6.033  0.00  0.00    +0.009 A 
ATOM     26  C   UNL     1       9.769   5.349   5.289  0.00  0.00    +0.009 A 
ATOM     30  C   UNL     1      11.372   6.435   7.297  0.00  0.00    +0.046 A 
ATOM     31  C   UNL     1       9.795   4.762   6.554  0.00  0.00    +0.046 A 
ATOM     34  C   UNL     1      10.595   5.306   7.558  0.00  0.00    +0.130 A 
BRANCH  34   6
ATOM      6  O   UNL     1      10.620   4.734   8.793  0.00  0.00    -0.406 OA
BRANCH   6  40
ATOM      1  F   UNL     1       9.823   4.908  10.898  0.00  0.00    -0.133 F 
ATOM      2  F   UNL     1       8.733   5.924   9.299  0.00  0.00    -0.133 F 
ATOM      3  F   UNL     1       8.681   3.721   9.461  0.00  0.00    -0.133 F 
ATOM     40  C   UNL     1       9.451   4.821   9.601  0.00  0.00    +0.575 C 
ENDBRANCH   6  40
ENDBRANCH  34   6
ENDBRANCH  12  20
BRANCH  16  23
ATOM      5  O   UNL     1      13.332   7.290   3.158  0.00  0.00    -0.249 OA
ATOM     23  C   UNL     1      13.220   6.210   2.596  0.00  0.00    +0.325 C 
BRANCH  23   4
ATOM      4  O   UNL     1      14.158   5.602   1.816  0.00  0.00    -0.467 OA
ATOM     35  C   UNL     1      14.903   6.473   0.958  0.00  0.00    +0.280 C 
ENDBRANCH  23   4
ENDBRANCH  16  23
BRANCH  14   9
ATOM      9  N   UNL     1       7.681   9.080   1.953  0.00  0.00    -0.309 NA
ATOM     42  H   UNL     1       7.759   9.959   1.440  0.00  0.00    +0.123 HD
BRANCH   9  24
ATOM     24  C   UNL     1       7.074   9.346   3.247  0.00  0.00    +0.118 C 
BRANCH  24  32
ATOM     10  N   UNL     1       4.211  11.701   4.014  0.00  0.00    -0.263 NA
ATOM     32  C   UNL     1       5.771  10.089   3.113  0.00  0.00    -0.015 A 
ATOM     36  C   UNL     1       4.934   9.879   2.022  0.00  0.00    +0.008 A 
ATOM     37  C   UNL     1       5.367  11.003   4.073  0.00  0.00    +0.115 A 
ATOM     38  C   UNL     1       3.737  10.579   1.927  0.00  0.00    +0.020 A 
ATOM     39  C   UNL     1       3.423  11.471   2.940  0.00  0.00    +0.111 A 
ENDBRANCH  24  32
ENDBRANCH   9  24
ENDBRANCH  14   9
TORSDOF 8
ENDMDL
MODEL 2
REMARK VINA RESULT:      -7.6      3.668      7.226
REMARK  Name = 44716456
REMARK  9 active torsions:
REMARK  status: ('A' for Active; 'I' for Inactive)
REMARK    1  A    between atoms: O_4  and  C_23
REMARK    2  A    between atoms: O_4  and  C_35
REMARK    3  A    between atoms: O_6  and  C_34
REMARK    4  A    between atoms: O_6  and  C_40
REMARK    5  A    between atoms: N_9  and  C_14
REMARK    6  A    between atoms: N_9  and  C_24
REMARK    7  A    between atoms: C_12  and  C_20
REMARK    8  A    between atoms: C_16  and  C_23
REMARK    9  A    between atoms: C_24  and  C_32
REMARK                            x       y       z     vdW  Elec       q    Type
REMARK                         _______ _______ _______ _____ _____    ______ ____
ROOT
ATOM      7  N   UNL     1      13.310   7.266   4.778  0.00  0.00    -0.274 NA
ATOM      8  N   UNL     1      16.562   7.714   2.953  0.00  0.00    -0.356 N 
ATOM     11  C   UNL     1      14.074   7.468   3.509  0.00  0.00    +0.106 C 
ATOM     12  C   UNL     1      11.868   7.017   4.523  0.00  0.00    +0.090 C 
ATOM     13  C   UNL     1      13.930   6.247   2.587  0.00  0.00    +0.044 C 
ATOM     14  C   UNL     1      12.457   5.992   2.265  0.00  0.00    +0.058 C 
ATOM     15  C   UNL     1      11.672   5.819   3.564  0.00  0.00    +0.042 C 
ATOM     16  C   UNL     1      13.591   8.314   5.797  0.00  0.00    +0.172 C 
ATOM     17  C   UNL     1      15.512   7.753   3.827  0.00  0.00    +0.038 A 
ATOM     18  C   UNL     1      15.083   8.347   6.219  0.00  0.00    +0.068 C 
ATOM     19  C   UNL     1      15.988   8.172   5.051  0.00  0.00    -0.016 A 
ATOM     21  C   UNL     1      17.391   8.363   4.928  0.00  0.00    +0.003 A 
ATOM     22  C   UNL     1      17.725   8.067   3.602  0.00  0.00    +0.047 A 
ATOM     27  C   UNL     1      18.414   8.762   5.811  0.00  0.00    +0.010 A 
ATOM     28  C   UNL     1      19.036   8.151   3.119  0.00  0.00    +0.026 A 
ATOM     29  C   UNL     1      19.729   8.848   5.341  0.00  0.00    +0.001 A 
ATOM     33  C   UNL     1      20.033   8.547   4.015  0.00  0.00    +0.002 A 
ATOM     41  H   UNL     1      16.503   7.462   1.976  0.00  0.00    +0.166 HD
ENDROOT
BRANCH  12  20
ATOM     20  C   UNL     1      11.051   6.741   5.783  0.00  0.00    -0.030 A 
ATOM     25  C   UNL     1       9.675   6.973   5.788  0.00  0.00    +0.009 A 
ATOM     26  C   UNL     1      11.680   6.254   6.928  0.00  0.00    +0.009 A 
ATOM     30  C   UNL     1       8.930   6.721   6.939  0.00  0.00    +0.046 A 
ATOM     31  C   UNL     1      10.934   6.001   8.080  0.00  0.00    +0.046 A 
ATOM     34  C   UNL     1       9.559   6.233   8.084  0.00  0.00    +0.130 A 
BRANCH  34   6
ATOM      6  O   UNL     1       8.831   5.986   9.207  0.00  0.00    -0.406 OA
BRANCH   6  40
ATOM      1  F   UNL     1       7.975   4.520  10.694  0.00  0.00    -0.133 F 
ATOM      2  F   UNL     1       9.114   3.725   9.007  0.00  0.00    -0.133 F 
ATOM      3  F   UNL     1      10.143   4.788  10.648  0.00  0.00    -0.133 F 
ATOM     40  C   UNL     1       9.031   4.750   9.883  0.00  0.00    +0.575 C 
ENDBRANCH   6  40
ENDBRANCH  34   6
ENDBRANCH  12  20
BRANCH  16  23
ATOM      5  O   UNL     1      13.035   9.958   4.122  0.00  0.00    -0.249 OA
ATOM     23  C   UNL     1      13.143   9.662   5.304  0.00  0.00    +0.325 C 
BRANCH  23   4
ATOM      4  O   UNL     1      12.883  10.472   6.369  0.00  0.00    -0.467 OA
ATOM     35  C   UNL     1      11.984   9.936   7.345  0.00  0.00    +0.280 C 
ENDBRANCH  23   4
ENDBRANCH  16  23
BRANCH  14   9
ATOM      9  N   UNL     1      12.326   4.810   1.415  0.00  0.00    -0.309 NA
ATOM     42  H   UNL     1      12.930   4.070   1.772  0.00  0.00    +0.123 HD
BRANCH   9  24
ATOM     24  C   UNL     1      12.718   5.114   0.047  0.00  0.00    +0.118 C 
BRANCH  24  32
ATOM     10  N   UNL     1      10.166   3.726  -2.380  0.00  0.00    -0.263 NA
ATOM     32  C   UNL     1      12.053   4.196  -0.944  0.00  0.00    -0.015 A 
ATOM     36  C   UNL     1      12.658   3.008  -1.340  0.00  0.00    +0.008 A 
ATOM     37  C   UNL     1      10.817   4.507  -1.489  0.00  0.00    +0.115 A 
ATOM     38  C   UNL     1      12.019   2.180  -2.254  0.00  0.00    +0.020 A 
ATOM     39  C   UNL     1      10.785   2.580  -2.741  0.00  0.00    +0.111 A 
ENDBRANCH  24  32
ENDBRANCH   9  24
ENDBRANCH  14   9
TORSDOF 8
ENDMDL
MODEL 3
REMARK VINA RESULT:      -7.2     24.023     28.383
REMARK  Name = 44716456
REMARK  9 active torsions:
REMARK  status: ('A' for Active; 'I' for Inactive)
REMARK    1  A    between atoms: O_4  and  C_23
REMARK    2  A    between atoms: O_4  and  C_35
REMARK    3  A    between atoms: O_6  and  C_34
REMARK    4  A    between atoms: O_6  and  C_40
REMARK    5  A    between atoms: N_9  and  C_14
REMARK    6  A    between atoms: N_9  and  C_24
REMARK    7  A    between atoms: C_12  and  C_20
REMARK    8  A    between atoms: C_16  and  C_23
REMARK    9  A    between atoms: C_24  and  C_32
REMARK                            x       y       z     vdW  Elec       q    Type
REMARK                         _______ _______ _______ _____ _____    ______ ____
ROOT
ATOM      7  N   UNL     1      17.154  -7.216  25.891  0.00  0.00    -0.274 NA
ATOM      8  N   UNL     1      17.676  -3.507  26.172  0.00  0.00    -0.356 N 
ATOM     11  C   UNL     1      17.677  -6.027  26.631  0.00  0.00    +0.106 C 
ATOM     12  C   UNL     1      17.272  -8.462  26.691  0.00  0.00    +0.090 C 
ATOM     13  C   UNL     1      16.931  -5.842  27.962  0.00  0.00    +0.044 C 
ATOM     14  C   UNL     1      17.073  -7.092  28.831  0.00  0.00    +0.058 C 
ATOM     15  C   UNL     1      16.569  -8.311  28.061  0.00  0.00    +0.042 C 
ATOM     16  C   UNL     1      17.682  -7.314  24.502  0.00  0.00    +0.172 C 
ATOM     17  C   UNL     1      17.569  -4.807  25.764  0.00  0.00    +0.038 A 
ATOM     18  C   UNL     1      17.297  -6.089  23.633  0.00  0.00    +0.068 C 
ATOM     19  C   UNL     1      17.414  -4.816  24.394  0.00  0.00    -0.016 A 
ATOM     21  C   UNL     1      17.391  -3.466  23.952  0.00  0.00    +0.003 A 
ATOM     22  C   UNL     1      17.555  -2.665  25.087  0.00  0.00    +0.047 A 
ATOM     27  C   UNL     1      17.249  -2.840  22.697  0.00  0.00    +0.010 A 
ATOM     28  C   UNL     1      17.584  -1.267  25.026  0.00  0.00    +0.026 A 
ATOM     29  C   UNL     1      17.274  -1.443  22.622  0.00  0.00    +0.001 A 
ATOM     33  C   UNL     1      17.439  -0.670  23.770  0.00  0.00    +0.002 A 
ATOM     41  H   UNL     1      17.819  -3.201  27.124  0.00  0.00    +0.166 HD
ENDROOT
BRANCH  12  20
ATOM     20  C   UNL     1      16.693  -9.698  26.007  0.00  0.00    -0.030 A 
ATOM     25  C   UNL     1      17.476 -10.843  25.852  0.00  0.00    +0.009 A 
ATOM     26  C   UNL     1      15.380  -9.684  25.538  0.00  0.00    +0.009 A 
ATOM     30  C   UNL     1      16.947 -11.971  25.228  0.00  0.00    +0.046 A 
ATOM     31  C   UNL     1      14.850 -10.814  24.913  0.00  0.00    +0.046 A 
ATOM     34  C   UNL     1      15.633 -11.957  24.759  0.00  0.00    +0.130 A 
BRANCH  34   6
ATOM      6  O   UNL     1      15.117 -13.059  24.150  0.00  0.00    -0.406 OA
BRANCH   6  40
ATOM      1  F   UNL     1      14.673 -14.318  22.331  0.00  0.00    -0.133 F 
ATOM      2  F   UNL     1      14.999 -12.177  22.044  0.00  0.00    -0.133 F 
ATOM      3  F   UNL     1      16.690 -13.507  22.551  0.00  0.00    -0.133 F 
ATOM     40  C   UNL     1      15.381 -13.252  22.766  0.00  0.00    +0.575 C 
ENDBRANCH   6  40
ENDBRANCH  34   6
ENDBRANCH  12  20
BRANCH  16  23
ATOM      5  O   UNL     1      19.771  -8.130  25.389  0.00  0.00    -0.249 OA
ATOM     23  C   UNL     1      19.172  -7.513  24.519  0.00  0.00    +0.325 C 
BRANCH  23   4
ATOM      4  O   UNL     1      19.725  -6.906  23.431  0.00  0.00    -0.467 OA
ATOM     35  C   UNL     1      20.900  -7.533  22.908  0.00  0.00    +0.280 C 
ENDBRANCH  23   4
ENDBRANCH  16  23
BRANCH  14   9
ATOM      9  N   UNL     1      16.334  -6.922  30.080  0.00  0.00    -0.309 NA
ATOM     42  H   UNL     1      15.606  -7.634  30.141  0.00  0.00    +0.123 HD
BRANCH   9  24
ATOM     24  C   UNL     1      15.708  -5.609  30.133  0.00  0.00    +0.118 C 
BRANCH  24  32
ATOM     10  N   UNL     1      12.778  -4.868  32.413  0.00  0.00    -0.263 NA
ATOM     32  C   UNL     1      14.333  -5.668  30.743  0.00  0.00    -0.015 A 
ATOM     36  C   UNL     1      13.364  -6.534  30.246  0.00  0.00    +0.008 A 
ATOM     37  C   UNL     1      13.992  -4.863  31.818  0.00  0.00    +0.115 A 
ATOM     38  C   UNL     1      12.104  -6.567  30.831  0.00  0.00    +0.020 A 
ATOM     39  C   UNL     1      11.862  -5.722  31.902  0.00  0.00    +0.111 A 
ENDBRANCH  24  32
ENDBRANCH   9  24
ENDBRANCH  14   9
TORSDOF 8
ENDMDL
MODEL 4
REMARK VINA RESULT:      -7.2     27.266     30.578
REMARK  Name = 44716456
REMARK  9 active torsions:
REMARK  status: ('A' for Active; 'I' for Inactive)
REMARK    1  A    between atoms: O_4  and  C_23
REMARK    2  A    between atoms: O_4  and  C_35
REMARK    3  A    between atoms: O_6  and  C_34
REMARK    4  A    between atoms: O_6  and  C_40
REMARK    5  A    between atoms: N_9  and  C_14
REMARK    6  A    between atoms: N_9  and  C_24
REMARK    7  A    between atoms: C_12  and  C_20
REMARK    8  A    between atoms: C_16  and  C_23
REMARK    9  A    between atoms: C_24  and  C_32
REMARK                            x       y       z     vdW  Elec       q    Type
REMARK                         _______ _______ _______ _____ _____    ______ ____
ROOT
ATOM      7  N   UNL     1     -10.092  -9.611  17.327  0.00  0.00    -0.274 NA
ATOM      8  N   UNL     1      -7.497 -11.645  19.126  0.00  0.00    -0.356 N 
ATOM     11  C   UNL     1      -9.717 -10.762  18.204  0.00  0.00    +0.106 C 
ATOM     12  C   UNL     1     -11.565  -9.445  17.230  0.00  0.00    +0.090 C 
ATOM     13  C   UNL     1     -10.297 -10.582  19.616  0.00  0.00    +0.044 C 
ATOM     14  C   UNL     1     -11.820 -10.455  19.556  0.00  0.00    +0.058 C 
ATOM     15  C   UNL     1     -12.201  -9.300  18.633  0.00  0.00    +0.042 C 
ATOM     16  C   UNL     1      -9.377  -9.621  16.020  0.00  0.00    +0.172 C 
ATOM     17  C   UNL     1      -8.224 -10.907  18.235  0.00  0.00    +0.038 A 
ATOM     18  C   UNL     1      -7.839  -9.527  16.184  0.00  0.00    +0.068 C 
ATOM     19  C   UNL     1      -7.354 -10.367  17.313  0.00  0.00    -0.016 A 
ATOM     21  C   UNL     1      -6.038 -10.762  17.675  0.00  0.00    +0.003 A 
ATOM     22  C   UNL     1      -6.156 -11.562  18.817  0.00  0.00    +0.047 A 
ATOM     27  C   UNL     1      -4.753 -10.524  17.146  0.00  0.00    +0.010 A 
ATOM     28  C   UNL     1      -5.049 -12.134  19.454  0.00  0.00    +0.026 A 
ATOM     29  C   UNL     1      -3.638 -11.088  17.774  0.00  0.00    +0.001 A 
ATOM     33  C   UNL     1      -3.786 -11.880  18.911  0.00  0.00    +0.002 A 
ATOM     41  H   UNL     1      -7.876 -12.173  19.899  0.00  0.00    +0.166 HD
ENDROOT
BRANCH  12  20
ATOM     20  C   UNL     1     -12.002  -8.243  16.396  0.00  0.00    -0.030 A 
ATOM     25  C   UNL     1     -13.121  -8.337  15.568  0.00  0.00    +0.009 A 
ATOM     26  C   UNL     1     -11.284  -7.050  16.464  0.00  0.00    +0.009 A 
ATOM     30  C   UNL     1     -13.521  -7.239  14.807  0.00  0.00    +0.046 A 
ATOM     31  C   UNL     1     -11.683  -5.951  15.702  0.00  0.00    +0.046 A 
ATOM     34  C   UNL     1     -12.802  -6.046  14.875  0.00  0.00    +0.130 A 
BRANCH  34   6
ATOM      6  O   UNL     1     -13.192  -4.974  14.133  0.00  0.00    -0.406 OA
BRANCH   6  40
ATOM      1  F   UNL     1     -13.731  -4.685  11.960  0.00  0.00    -0.133 F 
ATOM      2  F   UNL     1     -11.883  -3.776  12.691  0.00  0.00    -0.133 F 
ATOM      3  F   UNL     1     -12.025  -5.966  12.434  0.00  0.00    -0.133 F 
ATOM     40  C   UNL     1     -12.690  -4.851  12.807  0.00  0.00    +0.575 C 
ENDBRANCH   6  40
ENDBRANCH  34   6
ENDBRANCH  12  20
BRANCH  16  23
ATOM      5  O   UNL     1      -9.298 -11.953  15.410  0.00  0.00    -0.249 OA
ATOM     23  C   UNL     1      -9.759 -10.836  15.222  0.00  0.00    +0.325 C 
BRANCH  23   4
ATOM      4  O   UNL     1     -10.681 -10.490  14.280  0.00  0.00    -0.467 OA
ATOM     35  C   UNL     1     -10.255  -9.504  13.334  0.00  0.00    +0.280 C 
ENDBRANCH  23   4
ENDBRANCH  16  23
BRANCH  14   9
ATOM      9  N   UNL     1     -12.360 -10.251  20.898  0.00  0.00    -0.309 NA
ATOM     42  H   UNL     1     -11.629 -10.433  21.587  0.00  0.00    +0.123 HD
BRANCH   9  24
ATOM     24  C   UNL     1     -13.473 -11.154  21.148  0.00  0.00    +0.118 C 
BRANCH  24  32
ATOM     10  N   UNL     1     -17.066 -10.415  22.085  0.00  0.00    -0.263 NA
ATOM     32  C   UNL     1     -14.769 -10.409  21.331  0.00  0.00    -0.015 A 
ATOM     36  C   UNL     1     -14.894  -9.080  20.939  0.00  0.00    +0.008 A 
ATOM     37  C   UNL     1     -15.875 -11.025  21.894  0.00  0.00    +0.115 A 
ATOM     38  C   UNL     1     -16.103  -8.419  21.119  0.00  0.00    +0.020 A 
ATOM     39  C   UNL     1     -17.150  -9.124  21.692  0.00  0.00    +0.111 A 
ENDBRANCH  24  32
ENDBRANCH   9  24
ENDBRANCH  14   9
TORSDOF 8
ENDMDL
MODEL 5
REMARK VINA RESULT:      -7.0     16.385     19.312
REMARK  Name = 44716456
REMARK  9 active torsions:
REMARK  status: ('A' for Active; 'I' for Inactive)
REMARK    1  A    between atoms: O_4  and  C_23
REMARK    2  A    between atoms: O_4  and  C_35
REMARK    3  A    between atoms: O_6  and  C_34
REMARK    4  A    between atoms: O_6  and  C_40
REMARK    5  A    between atoms: N_9  and  C_14
REMARK    6  A    between atoms: N_9  and  C_24
REMARK    7  A    between atoms: C_12  and  C_20
REMARK    8  A    between atoms: C_16  and  C_23
REMARK    9  A    between atoms: C_24  and  C_32
REMARK                            x       y       z     vdW  Elec       q    Type
REMARK                         _______ _______ _______ _____ _____    ______ ____
ROOT
ATOM      7  N   UNL     1      18.532  -8.379  -1.632  0.00  0.00    -0.274 NA
ATOM      8  N   UNL     1      20.879  -8.357   1.300  0.00  0.00    -0.356 N 
ATOM     11  C   UNL     1      19.535  -9.065  -0.761  0.00  0.00    +0.106 C 
ATOM     12  C   UNL     1      17.921  -9.311  -2.614  0.00  0.00    +0.090 C 
ATOM     13  C   UNL     1      18.889 -10.239  -0.007  0.00  0.00    +0.044 C 
ATOM     14  C   UNL     1      18.291 -11.243  -0.993  0.00  0.00    +0.058 C 
ATOM     15  C   UNL     1      17.291 -10.533  -1.904  0.00  0.00    +0.042 C 
ATOM     16  C   UNL     1      19.043  -7.106  -2.212  0.00  0.00    +0.172 C 
ATOM     17  C   UNL     1      20.146  -8.072   0.182  0.00  0.00    +0.038 A 
ATOM     18  C   UNL     1      19.420  -6.067  -1.126  0.00  0.00    +0.068 C 
ATOM     19  C   UNL     1      20.120  -6.703   0.023  0.00  0.00    -0.016 A 
ATOM     21  C   UNL     1      20.837  -6.126   1.107  0.00  0.00    +0.003 A 
ATOM     22  C   UNL     1      21.301  -7.186   1.894  0.00  0.00    +0.047 A 
ATOM     27  C   UNL     1      21.142  -4.808   1.498  0.00  0.00    +0.010 A 
ATOM     28  C   UNL     1      22.056  -6.987   3.055  0.00  0.00    +0.026 A 
ATOM     29  C   UNL     1      21.895  -4.595   2.659  0.00  0.00    +0.001 A 
ATOM     33  C   UNL     1      22.344  -5.669   3.424  0.00  0.00    +0.002 A 
ATOM     41  H   UNL     1      21.084  -9.283   1.648  0.00  0.00    +0.166 HD
ENDROOT
BRANCH  12  20
ATOM     20  C   UNL     1      16.842  -8.675  -3.487  0.00  0.00    -0.030 A 
ATOM     25  C   UNL     1      17.120  -8.346  -4.814  0.00  0.00    +0.009 A 
ATOM     26  C   UNL     1      15.576  -8.425  -2.959  0.00  0.00    +0.009 A 
ATOM     30  C   UNL     1      16.135  -7.767  -5.611  0.00  0.00    +0.046 A 
ATOM     31  C   UNL     1      14.589  -7.845  -3.756  0.00  0.00    +0.046 A 
ATOM     34  C   UNL     1      14.868  -7.517  -5.082  0.00  0.00    +0.130 A 
BRANCH  34   6
ATOM      6  O   UNL     1      13.905  -6.951  -5.860  0.00  0.00    -0.406 OA
BRANCH   6  40
ATOM      1  F   UNL     1      14.608  -5.181  -7.071  0.00  0.00    -0.133 F 
ATOM      2  F   UNL     1      12.625  -5.081  -6.160  0.00  0.00    -0.133 F 
ATOM      3  F   UNL     1      14.438  -4.942  -4.906  0.00  0.00    -0.133 F 
ATOM     40  C   UNL     1      13.884  -5.534  -5.986  0.00  0.00    +0.575 C 
ENDBRANCH   6  40
ENDBRANCH  34   6
ENDBRANCH  12  20
BRANCH  16  23
ATOM      5  O   UNL     1      20.423  -8.454  -3.660  0.00  0.00    -0.249 OA
ATOM     23  C   UNL     1      20.206  -7.375  -3.126  0.00  0.00    +0.325 C 
BRANCH  23   4
ATOM      4  O   UNL     1      20.954  -6.243  -3.255  0.00  0.00    -0.467 OA
ATOM     35  C   UNL     1      21.138  -5.776  -4.596  0.00  0.00    +0.280 C 
ENDBRANCH  23   4
ENDBRANCH  16  23
BRANCH  14   9
ATOM      9  N   UNL     1      17.650 -12.338  -0.268  0.00  0.00    -0.309 NA
ATOM     42  H   UNL     1      17.669 -13.180  -0.845  0.00  0.00    +0.123 HD
BRANCH   9  24
ATOM     24  C   UNL     1      16.267 -12.012   0.039  0.00  0.00    +0.118 C 
BRANCH  24  32
ATOM     10  N   UNL     1      14.941 -13.743   3.134  0.00  0.00    -0.263 NA
ATOM     32  C   UNL     1      15.934 -12.283   1.482  0.00  0.00    -0.015 A 
ATOM     36  C   UNL     1      16.278 -11.377   2.480  0.00  0.00    +0.008 A 
ATOM     37  C   UNL     1      15.272 -13.441   1.859  0.00  0.00    +0.115 A 
ATOM     38  C   UNL     1      15.956 -11.654   3.804  0.00  0.00    +0.020 A 
ATOM     39  C   UNL     1      15.293 -12.840   4.076  0.00  0.00    +0.111 A 
ENDBRANCH  24  32
ENDBRANCH   9  24
ENDBRANCH  14   9
TORSDOF 8
ENDMDL
MODEL 6
REMARK VINA RESULT:      -7.0     33.293     36.948
REMARK  Name = 44716456
REMARK  9 active torsions:
REMARK  status: ('A' for Active; 'I' for Inactive)
REMARK    1  A    between atoms: O_4  and  C_23
REMARK    2  A    between atoms: O_4  and  C_35
REMARK    3  A    between atoms: O_6  and  C_34
REMARK    4  A    between atoms: O_6  and  C_40
REMARK    5  A    between atoms: N_9  and  C_14
REMARK    6  A    between atoms: N_9  and  C_24
REMARK    7  A    between atoms: C_12  and  C_20
REMARK    8  A    between atoms: C_16  and  C_23
REMARK    9  A    between atoms: C_24  and  C_32
REMARK                            x       y       z     vdW  Elec       q    Type
REMARK                         _______ _______ _______ _____ _____    ______ ____
ROOT
ATOM      7  N   UNL     1      -2.838  10.519  36.699  0.00  0.00    -0.274 NA
ATOM      8  N   UNL     1      -2.835  13.247  34.117  0.00  0.00    -0.356 N 
ATOM     11  C   UNL     1      -3.515  11.658  36.006  0.00  0.00    +0.106 C 
ATOM     12  C   UNL     1      -3.753   9.813  37.631  0.00  0.00    +0.090 C 
ATOM     13  C   UNL     1      -4.746  11.167  35.228  0.00  0.00    +0.044 C 
ATOM     14  C   UNL     1      -5.733  10.476  36.169  0.00  0.00    +0.058 C 
ATOM     15  C   UNL     1      -5.030   9.334  36.900  0.00  0.00    +0.042 C 
ATOM     16  C   UNL     1      -1.521  10.896  37.283  0.00  0.00    +0.172 C 
ATOM     17  C   UNL     1      -2.536  12.356  35.110  0.00  0.00    +0.038 A 
ATOM     18  C   UNL     1      -0.513  11.381  36.210  0.00  0.00    +0.068 C 
ATOM     19  C   UNL     1      -1.165  12.257  35.199  0.00  0.00    -0.016 A 
ATOM     21  C   UNL     1      -0.602  13.094  34.198  0.00  0.00    +0.003 A 
ATOM     22  C   UNL     1      -1.672  13.703  33.532  0.00  0.00    +0.047 A 
ATOM     27  C   UNL     1       0.711  13.401  33.790  0.00  0.00    +0.010 A 
ATOM     28  C   UNL     1      -1.489  14.604  32.477  0.00  0.00    +0.026 A 
ATOM     29  C   UNL     1       0.908  14.299  32.734  0.00  0.00    +0.001 A 
ATOM     33  C   UNL     1      -0.177  14.890  32.090  0.00  0.00    +0.002 A 
ATOM     41  H   UNL     1      -3.765  13.532  33.844  0.00  0.00    +0.166 HD
ENDROOT
BRANCH  12  20
ATOM     20  C   UNL     1      -3.130   8.600  38.317  0.00  0.00    -0.030 A 
ATOM     25  C   UNL     1      -3.420   8.329  39.655  0.00  0.00    +0.009 A 
ATOM     26  C   UNL     1      -2.273   7.762  37.606  0.00  0.00    +0.009 A 
ATOM     30  C   UNL     1      -2.850   7.222  40.282  0.00  0.00    +0.046 A 
ATOM     31  C   UNL     1      -1.702   6.653  38.233  0.00  0.00    +0.046 A 
ATOM     34  C   UNL     1      -1.992   6.383  39.570  0.00  0.00    +0.130 A 
BRANCH  34   6
ATOM      6  O   UNL     1      -1.437   5.301  40.181  0.00  0.00    -0.406 OA
BRANCH   6  40
ATOM      1  F   UNL     1       0.150   4.864  41.725  0.00  0.00    -0.133 F 
ATOM      2  F   UNL     1       0.644   4.537  39.622  0.00  0.00    -0.133 F 
ATOM      3  F   UNL     1       0.439   6.589  40.414  0.00  0.00    -0.133 F 
ATOM     40  C   UNL     1      -0.044   5.329  40.471  0.00  0.00    +0.575 C 
ENDBRANCH   6  40
ENDBRANCH  34   6
ENDBRANCH  12  20
BRANCH  16  23
ATOM      5  O   UNL     1      -2.045  13.085  38.149  0.00  0.00    -0.249 OA
ATOM     23  C   UNL     1      -1.700  11.930  38.359  0.00  0.00    +0.325 C 
BRANCH  23   4
ATOM      4  O   UNL     1      -1.422  11.377  39.573  0.00  0.00    -0.467 OA
ATOM     35  C   UNL     1      -2.293  11.764  40.640  0.00  0.00    +0.280 C 
ENDBRANCH  23   4
ENDBRANCH  16  23
BRANCH  14   9
ATOM      9  N   UNL     1      -6.884   9.984  35.415  0.00  0.00    -0.309 NA
ATOM     42  H   UNL     1      -6.754  10.195  34.425  0.00  0.00    +0.123 HD
BRANCH   9  24
ATOM     24  C   UNL     1      -8.109  10.621  35.873  0.00  0.00    +0.118 C 
BRANCH  24  32
ATOM     10  N   UNL     1     -11.435   8.829  36.125  0.00  0.00    -0.263 NA
ATOM     32  C   UNL     1      -9.151   9.610  36.272  0.00  0.00    -0.015 A 
ATOM     36  C   UNL     1      -8.840   8.557  37.127  0.00  0.00    +0.008 A 
ATOM     37  C   UNL     1     -10.453   9.700  35.804  0.00  0.00    +0.115 A 
ATOM     38  C   UNL     1      -9.823   7.641  37.480  0.00  0.00    +0.020 A 
ATOM     39  C   UNL     1     -11.094   7.819  36.957  0.00  0.00    +0.111 A 
ENDBRANCH  24  32
ENDBRANCH   9  24
ENDBRANCH  14   9
TORSDOF 8
ENDMDL
MODEL 7
REMARK VINA RESULT:      -6.9     33.776     37.250
REMARK  Name = 44716456
REMARK  9 active torsions:
REMARK  status: ('A' for Active; 'I' for Inactive)
REMARK    1  A    between atoms: O_4  and  C_23
REMARK    2  A    between atoms: O_4  and  C_35
REMARK    3  A    between atoms: O_6  and  C_34
REMARK    4  A    between atoms: O_6  and  C_40
REMARK    5  A    between atoms: N_9  and  C_14
REMARK    6  A    between atoms: N_9  and  C_24
REMARK    7  A    between atoms: C_12  and  C_20
REMARK    8  A    between atoms: C_16  and  C_23
REMARK    9  A    between atoms: C_24  and  C_32
REMARK                            x       y       z     vdW  Elec       q    Type
REMARK                         _______ _______ _______ _____ _____    ______ ____
ROOT
ATOM      7  N   UNL     1      -4.455  10.402  36.587  0.00  0.00    -0.274 NA
ATOM      8  N   UNL     1      -6.112  12.569  34.005  0.00  0.00    -0.356 N 
ATOM     11  C   UNL     1      -5.645  11.160  36.092  0.00  0.00    +0.106 C 
ATOM     12  C   UNL     1      -4.771   9.604  37.799  0.00  0.00    +0.090 C 
ATOM     13  C   UNL     1      -6.807  10.205  35.777  0.00  0.00    +0.044 C 
ATOM     14  C   UNL     1      -7.190   9.402  37.021  0.00  0.00    +0.058 C 
ATOM     15  C   UNL     1      -5.965   8.654  37.544  0.00  0.00    +0.042 C 
ATOM     16  C   UNL     1      -3.233  11.246  36.695  0.00  0.00    +0.172 C 
ATOM     17  C   UNL     1      -5.259  11.975  34.893  0.00  0.00    +0.038 A 
ATOM     18  C   UNL     1      -2.800  11.842  35.332  0.00  0.00    +0.068 C 
ATOM     19  C   UNL     1      -3.970  12.311  34.541  0.00  0.00    -0.016 A 
ATOM     21  C   UNL     1      -4.035  13.115  33.370  0.00  0.00    +0.003 A 
ATOM     22  C   UNL     1      -5.390  13.260  33.054  0.00  0.00    +0.047 A 
ATOM     27  C   UNL     1      -3.077  13.738  32.545  0.00  0.00    +0.010 A 
ATOM     28  C   UNL     1      -5.832  13.999  31.951  0.00  0.00    +0.026 A 
ATOM     29  C   UNL     1      -3.506  14.479  31.438  0.00  0.00    +0.001 A 
ATOM     33  C   UNL     1      -4.862  14.606  31.148  0.00  0.00    +0.002 A 
ATOM     41  H   UNL     1      -7.120  12.513  34.032  0.00  0.00    +0.166 HD
ENDROOT
BRANCH  12  20
ATOM     20  C   UNL     1      -3.607   8.759  38.310  0.00  0.00    -0.030 A 
ATOM     25  C   UNL     1      -3.324   8.711  39.675  0.00  0.00    +0.009 A 
ATOM     26  C   UNL     1      -2.828   8.032  37.411  0.00  0.00    +0.009 A 
ATOM     30  C   UNL     1      -2.261   7.939  40.141  0.00  0.00    +0.046 A 
ATOM     31  C   UNL     1      -1.764   7.258  37.877  0.00  0.00    +0.046 A 
ATOM     34  C   UNL     1      -1.481   7.212  39.242  0.00  0.00    +0.130 A 
BRANCH  34   6
ATOM      6  O   UNL     1      -0.444   6.457  39.697  0.00  0.00    -0.406 OA
BRANCH   6  40
ATOM      1  F   UNL     1       0.142   4.292  39.446  0.00  0.00    -0.133 F 
ATOM      2  F   UNL     1      -0.510   4.958  41.422  0.00  0.00    -0.133 F 
ATOM      3  F   UNL     1      -1.969   4.754  39.775  0.00  0.00    -0.133 F 
ATOM     40  C   UNL     1      -0.709   5.117  40.097  0.00  0.00    +0.575 C 
ENDBRANCH   6  40
ENDBRANCH  34   6
ENDBRANCH  12  20
BRANCH  16  23
ATOM      5  O   UNL     1      -4.086  13.346  37.521  0.00  0.00    -0.249 OA
ATOM     23  C   UNL     1      -3.433  12.330  37.717  0.00  0.00    +0.325 C 
BRANCH  23   4
ATOM      4  O   UNL     1      -2.781  11.997  38.867  0.00  0.00    -0.467 OA
ATOM     35  C   UNL     1      -1.356  11.921  38.766  0.00  0.00    +0.280 C 
ENDBRANCH  23   4
ENDBRANCH  16  23
BRANCH  14   9
ATOM      9  N   UNL     1      -8.273   8.473  36.704  0.00  0.00    -0.309 NA
ATOM     42  H   UNL     1      -8.450   8.492  35.700  0.00  0.00    +0.123 HD
BRANCH   9  24
ATOM     24  C   UNL     1      -9.493   8.850  37.401  0.00  0.00    +0.118 C 
BRANCH  24  32
ATOM     10  N   UNL     1     -12.033   9.234  34.619  0.00  0.00    -0.263 NA
ATOM     32  C   UNL     1     -10.716   8.622  36.553  0.00  0.00    -0.015 A 
ATOM     36  C   UNL     1     -11.644   7.639  36.881  0.00  0.00    +0.008 A 
ATOM     37  C   UNL     1     -10.955   9.386  35.421  0.00  0.00    +0.115 A 
ATOM     38  C   UNL     1     -12.765   7.453  36.080  0.00  0.00    +0.020 A 
ATOM     39  C   UNL     1     -12.912   8.269  34.970  0.00  0.00    +0.111 A 
ENDBRANCH  24  32
ENDBRANCH   9  24
ENDBRANCH  14   9
TORSDOF 8
ENDMDL
MODEL 8
REMARK VINA RESULT:      -6.7     26.242     30.280
REMARK  Name = 44716456
REMARK  9 active torsions:
REMARK  status: ('A' for Active; 'I' for Inactive)
REMARK    1  A    between atoms: O_4  and  C_23
REMARK    2  A    between atoms: O_4  and  C_35
REMARK    3  A    between atoms: O_6  and  C_34
REMARK    4  A    between atoms: O_6  and  C_40
REMARK    5  A    between atoms: N_9  and  C_14
REMARK    6  A    between atoms: N_9  and  C_24
REMARK    7  A    between atoms: C_12  and  C_20
REMARK    8  A    between atoms: C_16  and  C_23
REMARK    9  A    between atoms: C_24  and  C_32
REMARK                            x       y       z     vdW  Elec       q    Type
REMARK                         _______ _______ _______ _____ _____    ______ ____
ROOT
ATOM      7  N   UNL     1      -8.701 -11.386  18.198  0.00  0.00    -0.274 NA
ATOM      8  N   UNL     1     -11.947 -11.613  20.074  0.00  0.00    -0.356 N 
ATOM     11  C   UNL     1     -10.169 -11.120  18.298  0.00  0.00    +0.106 C 
ATOM     12  C   UNL     1      -8.100 -10.734  17.007  0.00  0.00    +0.090 C 
ATOM     13  C   UNL     1     -10.446  -9.610  18.358  0.00  0.00    +0.044 C 
ATOM     14  C   UNL     1      -9.880  -8.914  17.120  0.00  0.00    +0.058 C 
ATOM     15  C   UNL     1      -8.387  -9.214  17.001  0.00  0.00    +0.042 C 
ATOM     16  C   UNL     1      -8.360 -12.827  18.360  0.00  0.00    +0.172 C 
ATOM     17  C   UNL     1     -10.729 -11.832  19.494  0.00  0.00    +0.038 A 
ATOM     18  C   UNL     1      -8.784 -13.385  19.742  0.00  0.00    +0.068 C 
ATOM     19  C   UNL     1     -10.121 -12.878  20.154  0.00  0.00    -0.016 A 
ATOM     21  C   UNL     1     -10.987 -13.292  21.202  0.00  0.00    +0.003 A 
ATOM     22  C   UNL     1     -12.125 -12.481  21.131  0.00  0.00    +0.047 A 
ATOM     27  C   UNL     1     -10.922 -14.279  22.206  0.00  0.00    +0.010 A 
ATOM     28  C   UNL     1     -13.200 -12.611  22.017  0.00  0.00    +0.026 A 
ATOM     29  C   UNL     1     -11.990 -14.418  23.100  0.00  0.00    +0.001 A 
ATOM     33  C   UNL     1     -13.110 -13.596  23.005  0.00  0.00    +0.002 A 
ATOM     41  H   UNL     1     -12.620 -10.919  19.781  0.00  0.00    +0.166 HD
ENDROOT
BRANCH  12  20
ATOM     20  C   UNL     1      -6.589 -10.920  16.891  0.00  0.00    -0.030 A 
ATOM     25  C   UNL     1      -6.060 -11.740  15.893  0.00  0.00    +0.009 A 
ATOM     26  C   UNL     1      -5.736 -10.269  17.782  0.00  0.00    +0.009 A 
ATOM     30  C   UNL     1      -4.681 -11.910  15.788  0.00  0.00    +0.046 A 
ATOM     31  C   UNL     1      -4.355 -10.439  17.676  0.00  0.00    +0.046 A 
ATOM     34  C   UNL     1      -3.828 -11.258  16.679  0.00  0.00    +0.130 A 
BRANCH  34   6
ATOM      6  O   UNL     1      -2.481 -11.423  16.575  0.00  0.00    -0.406 OA
BRANCH   6  40
ATOM      1  F   UNL     1      -1.133 -11.725  14.790  0.00  0.00    -0.133 F 
ATOM      2  F   UNL     1      -2.678 -10.184  14.664  0.00  0.00    -0.133 F 
ATOM      3  F   UNL     1      -0.906  -9.887  15.950  0.00  0.00    -0.133 F 
ATOM     40  C   UNL     1      -1.804 -10.788  15.497  0.00  0.00    +0.575 C 
ENDBRANCH   6  40
ENDBRANCH  34   6
ENDBRANCH  12  20
BRANCH  16  23
ATOM      5  O   UNL     1      -9.537 -13.155  16.280  0.00  0.00    -0.249 OA
ATOM     23  C   UNL     1      -8.961 -13.638  17.246  0.00  0.00    +0.325 C 
BRANCH  23   4
ATOM      4  O   UNL     1      -8.760 -14.964  17.489  0.00  0.00    -0.467 OA
ATOM     35  C   UNL     1      -9.725 -15.848  16.911  0.00  0.00    +0.280 C 
ENDBRANCH  23   4
ENDBRANCH  16  23
BRANCH  14   9
ATOM      9  N   UNL     1     -10.118  -7.474  17.200  0.00  0.00    -0.309 NA
ATOM     42  H   UNL     1     -10.992  -7.305  17.699  0.00  0.00    +0.123 HD
BRANCH   9  24
ATOM     24  C   UNL     1     -10.218  -6.894  15.870  0.00  0.00    +0.118 C 
BRANCH  24  32
ATOM     10  N   UNL     1     -13.240  -5.463  14.092  0.00  0.00    -0.263 NA
ATOM     32  C   UNL     1     -11.650  -6.659  15.467  0.00  0.00    -0.015 A 
ATOM     36  C   UNL     1     -12.688  -7.371  16.059  0.00  0.00    +0.008 A 
ATOM     37  C   UNL     1     -11.977  -5.724  14.497  0.00  0.00    +0.115 A 
ATOM     38  C   UNL     1     -14.000  -7.130  15.669  0.00  0.00    +0.020 A 
ATOM     39  C   UNL     1     -14.222  -6.175  14.690  0.00  0.00    +0.111 A 
ENDBRANCH  24  32
ENDBRANCH   9  24
ENDBRANCH  14   9
TORSDOF 8
ENDMDL
MODEL 9
REMARK VINA RESULT:      -6.6     12.192     15.003
REMARK  Name = 44716456
REMARK  9 active torsions:
REMARK  status: ('A' for Active; 'I' for Inactive)
REMARK    1  A    between atoms: O_4  and  C_23
REMARK    2  A    between atoms: O_4  and  C_35
REMARK    3  A    between atoms: O_6  and  C_34
REMARK    4  A    between atoms: O_6  and  C_40
REMARK    5  A    between atoms: N_9  and  C_14
REMARK    6  A    between atoms: N_9  and  C_24
REMARK    7  A    between atoms: C_12  and  C_20
REMARK    8  A    between atoms: C_16  and  C_23
REMARK    9  A    between atoms: C_24  and  C_32
REMARK                            x       y       z     vdW  Elec       q    Type
REMARK                         _______ _______ _______ _____ _____    ______ ____
ROOT
ATOM      7  N   UNL     1      -2.075  10.547   4.418  0.00  0.00    -0.274 NA
ATOM      8  N   UNL     1       1.136  12.428   4.926  0.00  0.00    -0.356 N 
ATOM     11  C   UNL     1      -1.030  11.496   3.927  0.00  0.00    +0.106 C 
ATOM     12  C   UNL     1      -3.060  10.210   3.359  0.00  0.00    +0.090 C 
ATOM     13  C   UNL     1      -0.286  10.908   2.717  0.00  0.00    +0.044 C 
ATOM     14  C   UNL     1      -1.268  10.594   1.588  0.00  0.00    +0.058 C 
ATOM     15  C   UNL     1      -2.354   9.650   2.101  0.00  0.00    +0.042 C 
ATOM     16  C   UNL     1      -2.673  10.964   5.717  0.00  0.00    +0.172 C 
ATOM     17  C   UNL     1      -0.088  11.831   5.045  0.00  0.00    +0.038 A 
ATOM     18  C   UNL     1      -1.624  11.044   6.855  0.00  0.00    +0.068 C 
ATOM     19  C   UNL     1      -0.348  11.649   6.386  0.00  0.00    -0.016 A 
ATOM     21  C   UNL     1       0.777  12.122   7.114  0.00  0.00    +0.003 A 
ATOM     22  C   UNL     1       1.695  12.604   6.174  0.00  0.00    +0.047 A 
ATOM     27  C   UNL     1       1.110  12.193   8.482  0.00  0.00    +0.010 A 
ATOM     28  C   UNL     1       2.929  13.153   6.539  0.00  0.00    +0.026 A 
ATOM     29  C   UNL     1       2.342  12.738   8.860  0.00  0.00    +0.001 A 
ATOM     33  C   UNL     1       3.236  13.210   7.901  0.00  0.00    +0.002 A 
ATOM     41  H   UNL     1       1.575  12.700   4.057  0.00  0.00    +0.166 HD
ENDROOT
BRANCH  12  20
ATOM     20  C   UNL     1      -4.114   9.193   3.789  0.00  0.00    -0.030 A 
ATOM     25  C   UNL     1      -5.433   9.326   3.354  0.00  0.00    +0.009 A 
ATOM     26  C   UNL     1      -3.758   8.128   4.617  0.00  0.00    +0.009 A 
ATOM     30  C   UNL     1      -6.395   8.397   3.747  0.00  0.00    +0.046 A 
ATOM     31  C   UNL     1      -4.721   7.198   5.011  0.00  0.00    +0.046 A 
ATOM     34  C   UNL     1      -6.038   7.333   4.575  0.00  0.00    +0.130 A 
BRANCH  34   6
ATOM      6  O   UNL     1      -6.978   6.425   4.958  0.00  0.00    -0.406 OA
BRANCH   6  40
ATOM      1  F   UNL     1      -7.778   8.053   6.300  0.00  0.00    -0.133 F 
ATOM      2  F   UNL     1      -9.155   7.119   4.884  0.00  0.00    -0.133 F 
ATOM      3  F   UNL     1      -8.450   6.005   6.657  0.00  0.00    -0.133 F 
ATOM     40  C   UNL     1      -8.102   6.888   5.697  0.00  0.00    +0.575 C 
ENDBRANCH   6  40
ENDBRANCH  34   6
ENDBRANCH  12  20
BRANCH  16  23
ATOM      5  O   UNL     1      -2.846  13.352   5.420  0.00  0.00    -0.249 OA
ATOM     23  C   UNL     1      -3.400  12.271   5.565  0.00  0.00    +0.325 C 
BRANCH  23   4
ATOM      4  O   UNL     1      -4.745  12.051   5.613  0.00  0.00    -0.467 OA
ATOM     35  C   UNL     1      -5.184  11.151   6.634  0.00  0.00    +0.280 C 
ENDBRANCH  23   4
ENDBRANCH  16  23
BRANCH  14   9
ATOM      9  N   UNL     1      -0.558  10.005   0.454  0.00  0.00    -0.309 NA
ATOM     42  H   UNL     1      -0.220  10.750  -0.155  0.00  0.00    +0.123 HD
BRANCH   9  24
ATOM     24  C   UNL     1      -1.440   9.139  -0.312  0.00  0.00    +0.118 C 
BRANCH  24  32
ATOM     10  N   UNL     1      -1.408  10.922  -3.651  0.00  0.00    -0.263 NA
ATOM     32  C   UNL     1      -1.928   9.807  -1.570  0.00  0.00    -0.015 A 
ATOM     36  C   UNL     1      -3.288   9.940  -1.831  0.00  0.00    +0.008 A 
ATOM     37  C   UNL     1      -1.037  10.310  -2.505  0.00  0.00    +0.115 A 
ATOM     38  C   UNL     1      -3.708  10.563  -3.000  0.00  0.00    +0.020 A 
ATOM     39  C   UNL     1      -2.738  11.033  -3.870  0.00  0.00    +0.111 A 
ENDBRANCH  24  32
ENDBRANCH   9  24
ENDBRANCH  14   9
TORSDOF 8
ENDMDL
MODEL 10
REMARK VINA RESULT:      -6.5     25.999     29.400
REMARK  Name = 44716456
REMARK  9 active torsions:
REMARK  status: ('A' for Active; 'I' for Inactive)
REMARK    1  A    between atoms: O_4  and  C_23
REMARK    2  A    between atoms: O_4  and  C_35
REMARK    3  A    between atoms: O_6  and  C_34
REMARK    4  A    between atoms: O_6  and  C_40
REMARK    5  A    between atoms: N_9  and  C_14
REMARK    6  A    between atoms: N_9  and  C_24
REMARK    7  A    between atoms: C_12  and  C_20
REMARK    8  A    between atoms: C_16  and  C_23
REMARK    9  A    between atoms: C_24  and  C_32
REMARK                            x       y       z     vdW  Elec       q    Type
REMARK                         _______ _______ _______ _____ _____    ______ ____
ROOT
ATOM      7  N   UNL     1      -7.500 -11.499  17.339  0.00  0.00    -0.274 NA
ATOM      8  N   UNL     1      -4.727 -10.184  15.173  0.00  0.00    -0.356 N 
ATOM     11  C   UNL     1      -6.628 -10.375  16.879  0.00  0.00    +0.106 C 
ATOM     12  C   UNL     1      -8.578 -11.029  18.246  0.00  0.00    +0.090 C 
ATOM     13  C   UNL     1      -7.459  -9.302  16.158  0.00  0.00    +0.044 C 
ATOM     14  C   UNL     1      -8.550  -8.761  17.083  0.00  0.00    +0.058 C 
ATOM     15  C   UNL     1      -9.420  -9.915  17.579  0.00  0.00    +0.042 C 
ATOM     16  C   UNL     1      -6.724 -12.665  17.844  0.00  0.00    +0.172 C 
ATOM     17  C   UNL     1      -5.537 -10.911  16.000  0.00  0.00    +0.038 A 
ATOM     18  C   UNL     1      -5.802 -13.280  16.760  0.00  0.00    +0.068 C 
ATOM     19  C   UNL     1      -5.135 -12.228  15.945  0.00  0.00    -0.016 A 
ATOM     21  C   UNL     1      -4.058 -12.315  15.022  0.00  0.00    +0.003 A 
ATOM     22  C   UNL     1      -3.824 -11.019  14.551  0.00  0.00    +0.047 A 
ATOM     27  C   UNL     1      -3.253 -13.367  14.539  0.00  0.00    +0.010 A 
ATOM     28  C   UNL     1      -2.822 -10.725  13.619  0.00  0.00    +0.026 A 
ATOM     29  C   UNL     1      -2.249 -13.087  13.605  0.00  0.00    +0.001 A 
ATOM     33  C   UNL     1      -2.039 -11.786  13.153  0.00  0.00    +0.002 A 
ATOM     41  H   UNL     1      -4.778  -9.185  15.032  0.00  0.00    +0.166 HD
ENDROOT
BRANCH  12  20
ATOM     20  C   UNL     1      -9.538 -12.128  18.696  0.00  0.00    -0.030 A 
ATOM     25  C   UNL     1     -10.176 -12.929  17.749  0.00  0.00    +0.009 A 
ATOM     26  C   UNL     1      -9.775 -12.332  20.055  0.00  0.00    +0.009 A 
ATOM     30  C   UNL     1     -11.052 -13.932  18.160  0.00  0.00    +0.046 A 
ATOM     31  C   UNL     1     -10.652 -13.336  20.467  0.00  0.00    +0.046 A 
ATOM     34  C   UNL     1     -11.290 -14.136  19.519  0.00  0.00    +0.130 A 
BRANCH  34   6
ATOM      6  O   UNL     1     -12.144 -15.116  19.920  0.00  0.00    -0.406 OA
BRANCH   6  40
ATOM      1  F   UNL     1     -12.127 -17.288  19.307  0.00  0.00    -0.133 F 
ATOM      2  F   UNL     1     -10.268 -16.417  20.055  0.00  0.00    -0.133 F 
ATOM      3  F   UNL     1     -11.947 -16.820  21.434  0.00  0.00    -0.133 F 
ATOM     40  C   UNL     1     -11.611 -16.407  20.193  0.00  0.00    +0.575 C 
ENDBRANCH   6  40
ENDBRANCH  34   6
ENDBRANCH  12  20
BRANCH  16  23
ATOM      5  O   UNL     1      -6.367 -11.579  19.968  0.00  0.00    -0.249 OA
ATOM     23  C   UNL     1      -5.935 -12.283  19.066  0.00  0.00    +0.325 C 
BRANCH  23   4
ATOM      4  O   UNL     1      -4.693 -12.840  18.997  0.00  0.00    -0.467 OA
ATOM     35  C   UNL     1      -3.615 -11.991  19.406  0.00  0.00    +0.280 C 
ENDBRANCH  23   4
ENDBRANCH  16  23
BRANCH  14   9
ATOM      9  N   UNL     1      -9.356  -7.765  16.380  0.00  0.00    -0.309 NA
ATOM     42  H   UNL     1      -8.856  -6.876  16.365  0.00  0.00    +0.123 HD
BRANCH   9  24
ATOM     24  C   UNL     1     -10.634  -7.571  17.049  0.00  0.00    +0.118 C 
BRANCH  24  32
ATOM     10  N   UNL     1     -12.231  -5.375  14.411  0.00  0.00    -0.263 NA
ATOM     32  C   UNL     1     -11.667  -6.986  16.124  0.00  0.00    -0.015 A 
ATOM     36  C   UNL     1     -12.972  -7.468  16.108  0.00  0.00    +0.008 A 
ATOM     37  C   UNL     1     -11.351  -5.947  15.263  0.00  0.00    +0.115 A 
ATOM     38  C   UNL     1     -13.905  -6.906  15.245  0.00  0.00    +0.020 A 
ATOM     39  C   UNL     1     -13.489  -5.871  14.424  0.00  0.00    +0.111 A 
ENDBRANCH  24  32
ENDBRANCH   9  24
ENDBRANCH  14   9
TORSDOF 8
ENDMDL
