MODEL 1
REMARK VINA RESULT:      -6.2      0.000      0.000
REMARK  Name = 75367095
REMARK  7 active torsions:
REMARK  status: ('A' for Active; 'I' for Inactive)
REMARK    1  A    between atoms: S_1  and  N_7
REMARK    2  A    between atoms: S_1  and  C_18
REMARK    3  A    between atoms: O_3  and  C_10
REMARK    4  A    between atoms: N_6  and  C_8
REMARK    5  A    between atoms: N_6  and  C_9
REMARK    6  A    between atoms: N_7  and  C_17
REMARK    7  A    between atoms: C_13  and  C_17
REMARK                            x       y       z     vdW  Elec       q    Type
REMARK                         _______ _______ _______ _____ _____    ______ ____
ROOT
ATOM      2  O   UNL     1      10.529   8.384  19.967  0.00  0.00    -0.371 OA
ATOM      9  C   UNL     1      12.471   7.373  19.049  0.00  0.00    +0.111 C 
ATOM     10  C   UNL     1      12.589   7.387  20.561  0.00  0.00    +0.164 C 
ATOM     13  C   UNL     1      11.131   7.545  20.967  0.00  0.00    +0.164 C 
ATOM     16  C   UNL     1      11.396   8.424  18.821  0.00  0.00    +0.181 C 
ENDROOT
BRANCH  10   3
ATOM      3  O   UNL     1      13.153   6.196  21.075  0.00  0.00    -0.388 OA
ATOM     25  H   UNL     1      12.451   5.689  21.516  0.00  0.00    +0.210 HD
ENDBRANCH  10   3
BRANCH   9   6
ATOM      6  N   UNL     1      13.716   7.680  18.363  0.00  0.00    -0.306 NA
ATOM     24  H   UNL     1      13.966   6.921  17.730  0.00  0.00    +0.123 HD
BRANCH   6   8
ATOM      8  C   UNL     1      13.614   8.929  17.629  0.00  0.00    +0.054 C 
ATOM     11  C   UNL     1      14.019   8.788  16.168  0.00  0.00    +0.019 C 
ATOM     12  C   UNL     1      14.584   9.991  18.136  0.00  0.00    +0.019 C 
ATOM     14  C   UNL     1      14.275  10.227  15.725  0.00  0.00    +0.002 C 
ATOM     15  C   UNL     1      14.638  11.002  16.995  0.00  0.00    +0.002 C 
ENDBRANCH   6   8
ENDBRANCH   9   6
BRANCH  13  17
ATOM     17  C   UNL     1      10.954   8.173  22.338  0.00  0.00    +0.140 C 
BRANCH  17   7
ATOM      7  N   UNL     1      10.623   9.604  22.189  0.00  0.00    -0.187 NA
ATOM     26  H   UNL     1       9.743   9.810  21.700  0.00  0.00    +0.148 HD
BRANCH   7   1
ATOM      1  S   UNL     1      11.865  10.766  22.142  0.00  0.00    +0.058 S 
ATOM      4  O   UNL     1      11.932  11.345  20.815  0.00  0.00    -0.153 OA
ATOM      5  O   UNL     1      13.056  10.210  22.756  0.00  0.00    -0.153 OA
BRANCH   1  18
ATOM     18  C   UNL     1      11.246  12.002  23.244  0.00  0.00    +0.105 A 
ATOM     19  C   UNL     1      10.752  13.205  22.737  0.00  0.00    +0.028 A 
ATOM     20  C   UNL     1      11.254  11.777  24.621  0.00  0.00    +0.028 A 
ATOM     21  C   UNL     1      10.268  14.181  23.607  0.00  0.00    +0.002 A 
ATOM     22  C   UNL     1      10.770  12.754  25.490  0.00  0.00    +0.002 A 
ATOM     23  C   UNL     1      10.276  13.956  24.984  0.00  0.00    +0.000 A 
ENDBRANCH   1  18
ENDBRANCH   7   1
ENDBRANCH  17   7
ENDBRANCH  13  17
TORSDOF 7
ENDMDL
MODEL 2
REMARK VINA RESULT:      -6.2      2.112      6.086
REMARK  Name = 75367095
REMARK  7 active torsions:
REMARK  status: ('A' for Active; 'I' for Inactive)
REMARK    1  A    between atoms: S_1  and  N_7
REMARK    2  A    between atoms: S_1  and  C_18
REMARK    3  A    between atoms: O_3  and  C_10
REMARK    4  A    between atoms: N_6  and  C_8
REMARK    5  A    between atoms: N_6  and  C_9
REMARK    6  A    between atoms: N_7  and  C_17
REMARK    7  A    between atoms: C_13  and  C_17
REMARK                            x       y       z     vdW  Elec       q    Type
REMARK                         _______ _______ _______ _____ _____    ______ ____
ROOT
ATOM      2  O   UNL     1      13.339   8.365  21.637  0.00  0.00    -0.371 OA
ATOM      9  C   UNL     1      11.308   9.072  22.644  0.00  0.00    +0.111 C 
ATOM     10  C   UNL     1      10.987   8.226  21.425  0.00  0.00    +0.164 C 
ATOM     13  C   UNL     1      12.291   7.460  21.250  0.00  0.00    +0.164 C 
ATOM     16  C   UNL     1      12.755   9.453  22.374  0.00  0.00    +0.181 C 
ENDROOT
BRANCH  10   3
ATOM      3  O   UNL     1       9.890   7.359  21.637  0.00  0.00    -0.388 OA
ATOM     25  H   UNL     1      10.198   6.443  21.529  0.00  0.00    +0.210 HD
ENDBRANCH  10   3
BRANCH   9   6
ATOM      6  N   UNL     1      10.439  10.227  22.798  0.00  0.00    -0.306 NA
ATOM     24  H   UNL     1       9.762  10.061  23.542  0.00  0.00    +0.123 HD
BRANCH   6   8
ATOM      8  C   UNL     1      11.207  11.426  23.080  0.00  0.00    +0.054 C 
ATOM     11  C   UNL     1      10.742  12.142  24.341  0.00  0.00    +0.019 C 
ATOM     12  C   UNL     1      11.036  12.500  22.012  0.00  0.00    +0.019 C 
ATOM     14  C   UNL     1      11.336  13.541  24.201  0.00  0.00    +0.002 C 
ATOM     15  C   UNL     1      11.526  13.772  22.699  0.00  0.00    +0.002 C 
ENDBRANCH   6   8
ENDBRANCH   9   6
BRANCH  13  17
ATOM     17  C   UNL     1      12.522   6.987  19.826  0.00  0.00    +0.140 C 
BRANCH  17   7
ATOM      7  N   UNL     1      11.705   7.793  18.897  0.00  0.00    -0.187 NA
ATOM     26  H   UNL     1      10.687   7.710  19.012  0.00  0.00    +0.148 HD
BRANCH   7   1
ATOM      1  S   UNL     1      12.315   8.208  17.365  0.00  0.00    +0.058 S 
ATOM      4  O   UNL     1      11.213   8.378  16.438  0.00  0.00    -0.153 OA
ATOM      5  O   UNL     1      13.412   7.317  17.036  0.00  0.00    -0.153 OA
BRANCH   1  18
ATOM     18  C   UNL     1      13.018   9.800  17.673  0.00  0.00    +0.105 A 
ATOM     19  C   UNL     1      12.770  10.449  18.883  0.00  0.00    +0.028 A 
ATOM     20  C   UNL     1      13.816  10.410  16.706  0.00  0.00    +0.028 A 
ATOM     21  C   UNL     1      13.321  11.707  19.126  0.00  0.00    +0.002 A 
ATOM     22  C   UNL     1      14.367  11.668  16.948  0.00  0.00    +0.002 A 
ATOM     23  C   UNL     1      14.120  12.317  18.158  0.00  0.00    +0.000 A 
ENDBRANCH   1  18
ENDBRANCH   7   1
ENDBRANCH  17   7
ENDBRANCH  13  17
TORSDOF 7
ENDMDL
MODEL 3
REMARK VINA RESULT:      -6.2      2.438      3.331
REMARK  Name = 75367095
REMARK  7 active torsions:
REMARK  status: ('A' for Active; 'I' for Inactive)
REMARK    1  A    between atoms: S_1  and  N_7
REMARK    2  A    between atoms: S_1  and  C_18
REMARK    3  A    between atoms: O_3  and  C_10
REMARK    4  A    between atoms: N_6  and  C_8
REMARK    5  A    between atoms: N_6  and  C_9
REMARK    6  A    between atoms: N_7  and  C_17
REMARK    7  A    between atoms: C_13  and  C_17
REMARK                            x       y       z     vdW  Elec       q    Type
REMARK                         _______ _______ _______ _____ _____    ______ ____
ROOT
ATOM      2  O   UNL     1      10.829   8.605  20.112  0.00  0.00    -0.371 OA
ATOM      9  C   UNL     1      12.389   6.874  19.653  0.00  0.00    +0.111 C 
ATOM     10  C   UNL     1      12.085   6.884  21.139  0.00  0.00    +0.164 C 
ATOM     13  C   UNL     1      10.755   7.625  21.161  0.00  0.00    +0.164 C 
ATOM     16  C   UNL     1      11.920   8.261  19.241  0.00  0.00    +0.181 C 
ENDROOT
BRANCH  10   3
ATOM      3  O   UNL     1      11.972   5.583  21.681  0.00  0.00    -0.388 OA
ATOM     25  H   UNL     1      11.029   5.382  21.803  0.00  0.00    +0.210 HD
ENDBRANCH  10   3
BRANCH   9   6
ATOM      6  N   UNL     1      13.790   6.638  19.346  0.00  0.00    -0.306 NA
ATOM     24  H   UNL     1      13.995   6.931  18.391  0.00  0.00    +0.123 HD
BRANCH   6   8
ATOM      8  C   UNL     1      14.656   7.336  20.279  0.00  0.00    +0.054 C 
ATOM     11  C   UNL     1      15.382   8.513  19.642  0.00  0.00    +0.019 C 
ATOM     12  C   UNL     1      15.809   6.470  20.774  0.00  0.00    +0.019 C 
ATOM     14  C   UNL     1      16.525   8.799  20.612  0.00  0.00    +0.002 C 
ATOM     15  C   UNL     1      16.800   7.482  21.343  0.00  0.00    +0.002 C 
ENDBRANCH   6   8
ENDBRANCH   9   6
BRANCH  13  17
ATOM     17  C   UNL     1      10.471   8.311  22.485  0.00  0.00    +0.140 C 
BRANCH  17   7
ATOM      7  N   UNL     1      11.626   9.148  22.867  0.00  0.00    -0.187 NA
ATOM     26  H   UNL     1      12.353   8.678  23.421  0.00  0.00    +0.148 HD
BRANCH   7   1
ATOM      1  S   UNL     1      11.441  10.830  23.036  0.00  0.00    +0.058 S 
ATOM      4  O   UNL     1      10.550  11.106  24.147  0.00  0.00    -0.153 OA
ATOM      5  O   UNL     1      11.182  11.410  21.732  0.00  0.00    -0.153 OA
BRANCH   1  18
ATOM     18  C   UNL     1      13.070  11.327  23.509  0.00  0.00    +0.105 A 
ATOM     19  C   UNL     1      13.274  11.986  24.723  0.00  0.00    +0.028 A 
ATOM     20  C   UNL     1      14.151  11.066  22.668  0.00  0.00    +0.028 A 
ATOM     21  C   UNL     1      14.558  12.382  25.094  0.00  0.00    +0.002 A 
ATOM     22  C   UNL     1      15.436  11.462  23.039  0.00  0.00    +0.002 A 
ATOM     23  C   UNL     1      15.640  12.120  24.252  0.00  0.00    +0.000 A 
ENDBRANCH   1  18
ENDBRANCH   7   1
ENDBRANCH  17   7
ENDBRANCH  13  17
TORSDOF 7
ENDMDL
MODEL 4
REMARK VINA RESULT:      -6.2      5.408      6.803
REMARK  Name = 75367095
REMARK  7 active torsions:
REMARK  status: ('A' for Active; 'I' for Inactive)
REMARK    1  A    between atoms: S_1  and  N_7
REMARK    2  A    between atoms: S_1  and  C_18
REMARK    3  A    between atoms: O_3  and  C_10
REMARK    4  A    between atoms: N_6  and  C_8
REMARK    5  A    between atoms: N_6  and  C_9
REMARK    6  A    between atoms: N_7  and  C_17
REMARK    7  A    between atoms: C_13  and  C_17
REMARK                            x       y       z     vdW  Elec       q    Type
REMARK                         _______ _______ _______ _____ _____    ______ ____
ROOT
ATOM      2  O   UNL     1      17.116   7.588  21.238  0.00  0.00    -0.371 OA
ATOM      9  C   UNL     1      18.567   6.260  19.907  0.00  0.00    +0.111 C 
ATOM     10  C   UNL     1      17.135   5.813  19.676  0.00  0.00    +0.164 C 
ATOM     13  C   UNL     1      16.366   7.042  20.141  0.00  0.00    +0.164 C 
ATOM     16  C   UNL     1      18.437   7.019  21.219  0.00  0.00    +0.181 C 
ENDROOT
BRANCH  10   3
ATOM      3  O   UNL     1      16.871   5.508  18.320  0.00  0.00    -0.388 OA
ATOM     25  H   UNL     1      15.974   5.140  18.258  0.00  0.00    +0.210 HD
ENDBRANCH  10   3
BRANCH   9   6
ATOM      6  N   UNL     1      19.516   5.161  19.982  0.00  0.00    -0.306 NA
ATOM     24  H   UNL     1      19.910   4.974  19.061  0.00  0.00    +0.123 HD
BRANCH   6   8
ATOM      8  C   UNL     1      20.576   5.450  20.930  0.00  0.00    +0.054 C 
ATOM     11  C   UNL     1      21.682   6.312  20.334  0.00  0.00    +0.019 C 
ATOM     12  C   UNL     1      21.335   4.201  21.365  0.00  0.00    +0.019 C 
ATOM     14  C   UNL     1      22.851   6.115  21.296  0.00  0.00    +0.002 C 
ATOM     15  C   UNL     1      22.626   4.753  21.961  0.00  0.00    +0.002 C 
ENDBRANCH   6   8
ENDBRANCH   9   6
BRANCH  13  17
ATOM     17  C   UNL     1      14.951   6.729  20.592  0.00  0.00    +0.140 C 
BRANCH  17   7
ATOM      7  N   UNL     1      14.107   6.442  19.415  0.00  0.00    -0.187 NA
ATOM     26  H   UNL     1      14.451   5.703  18.790  0.00  0.00    +0.148 HD
BRANCH   7   1
ATOM      1  S   UNL     1      13.116   7.659  18.760  0.00  0.00    +0.058 S 
ATOM      4  O   UNL     1      12.219   7.074  17.782  0.00  0.00    -0.153 OA
ATOM      5  O   UNL     1      13.939   8.799  18.403  0.00  0.00    -0.153 OA
BRANCH   1  18
ATOM     18  C   UNL     1      12.153   8.137  20.164  0.00  0.00    +0.105 A 
ATOM     19  C   UNL     1      11.413   7.180  20.860  0.00  0.00    +0.028 A 
ATOM     20  C   UNL     1      12.129   9.470  20.573  0.00  0.00    +0.028 A 
ATOM     21  C   UNL     1      10.651   7.558  21.965  0.00  0.00    +0.002 A 
ATOM     22  C   UNL     1      11.367   9.847  21.678  0.00  0.00    +0.002 A 
ATOM     23  C   UNL     1      10.627   8.892  22.374  0.00  0.00    +0.000 A 
ENDBRANCH   1  18
ENDBRANCH   7   1
ENDBRANCH  17   7
ENDBRANCH  13  17
TORSDOF 7
ENDMDL
MODEL 5
REMARK VINA RESULT:      -6.0      4.381      6.733
REMARK  Name = 75367095
REMARK  7 active torsions:
REMARK  status: ('A' for Active; 'I' for Inactive)
REMARK    1  A    between atoms: S_1  and  N_7
REMARK    2  A    between atoms: S_1  and  C_18
REMARK    3  A    between atoms: O_3  and  C_10
REMARK    4  A    between atoms: N_6  and  C_8
REMARK    5  A    between atoms: N_6  and  C_9
REMARK    6  A    between atoms: N_7  and  C_17
REMARK    7  A    between atoms: C_13  and  C_17
REMARK                            x       y       z     vdW  Elec       q    Type
REMARK                         _______ _______ _______ _____ _____    ______ ____
ROOT
ATOM      2  O   UNL     1      16.227   6.029  19.173  0.00  0.00    -0.371 OA
ATOM      9  C   UNL     1      17.182   6.570  21.278  0.00  0.00    +0.111 C 
ATOM     10  C   UNL     1      15.801   7.192  21.187  0.00  0.00    +0.164 C 
ATOM     13  C   UNL     1      15.169   6.342  20.094  0.00  0.00    +0.164 C 
ATOM     16  C   UNL     1      17.486   6.296  19.813  0.00  0.00    +0.181 C 
ENDROOT
BRANCH  10   3
ATOM      3  O   UNL     1      15.084   7.106  22.403  0.00  0.00    -0.388 OA
ATOM     25  H   UNL     1      15.679   7.360  23.129  0.00  0.00    +0.210 HD
ENDBRANCH  10   3
BRANCH   9   6
ATOM      6  N   UNL     1      18.170   7.431  21.908  0.00  0.00    -0.306 NA
ATOM     24  H   UNL     1      18.148   7.310  22.920  0.00  0.00    +0.123 HD
BRANCH   6   8
ATOM      8  C   UNL     1      19.502   7.157  21.401  0.00  0.00    +0.054 C 
ATOM     11  C   UNL     1      20.311   6.258  22.326  0.00  0.00    +0.019 C 
ATOM     12  C   UNL     1      20.371   8.407  21.321  0.00  0.00    +0.019 C 
ATOM     14  C   UNL     1      21.751   6.468  21.865  0.00  0.00    +0.002 C 
ATOM     15  C   UNL     1      21.789   7.854  21.216  0.00  0.00    +0.002 C 
ENDBRANCH   6   8
ENDBRANCH   9   6
BRANCH  13  17
ATOM     17  C   UNL     1      14.042   7.048  19.361  0.00  0.00    +0.140 C 
BRANCH  17   7
ATOM      7  N   UNL     1      13.517   8.145  20.199  0.00  0.00    -0.187 NA
ATOM     26  H   UNL     1      13.683   8.054  21.209  0.00  0.00    +0.148 HD
BRANCH   7   1
ATOM      1  S   UNL     1      12.171   9.045  19.679  0.00  0.00    +0.058 S 
ATOM      4  O   UNL     1      12.026  10.220  20.516  0.00  0.00    -0.153 OA
ATOM      5  O   UNL     1      11.049   8.147  19.483  0.00  0.00    -0.153 OA
BRANCH   1  18
ATOM     18  C   UNL     1      12.690   9.580  18.076  0.00  0.00    +0.105 A 
ATOM     19  C   UNL     1      12.051   9.091  16.936  0.00  0.00    +0.028 A 
ATOM     20  C   UNL     1      13.742  10.487  17.949  0.00  0.00    +0.028 A 
ATOM     21  C   UNL     1      12.463   9.509  15.671  0.00  0.00    +0.002 A 
ATOM     22  C   UNL     1      14.155  10.905  16.685  0.00  0.00    +0.002 A 
ATOM     23  C   UNL     1      13.515  10.417  15.545  0.00  0.00    +0.000 A 
ENDBRANCH   1  18
ENDBRANCH   7   1
ENDBRANCH  17   7
ENDBRANCH  13  17
TORSDOF 7
ENDMDL
MODEL 6
REMARK VINA RESULT:      -5.9      3.714      5.563
REMARK  Name = 75367095
REMARK  7 active torsions:
REMARK  status: ('A' for Active; 'I' for Inactive)
REMARK    1  A    between atoms: S_1  and  N_7
REMARK    2  A    between atoms: S_1  and  C_18
REMARK    3  A    between atoms: O_3  and  C_10
REMARK    4  A    between atoms: N_6  and  C_8
REMARK    5  A    between atoms: N_6  and  C_9
REMARK    6  A    between atoms: N_7  and  C_17
REMARK    7  A    between atoms: C_13  and  C_17
REMARK                            x       y       z     vdW  Elec       q    Type
REMARK                         _______ _______ _______ _____ _____    ______ ____
ROOT
ATOM      2  O   UNL     1      15.832   6.485  19.432  0.00  0.00    -0.371 OA
ATOM      9  C   UNL     1      16.742   7.387  21.432  0.00  0.00    +0.111 C 
ATOM     10  C   UNL     1      15.238   7.589  21.438  0.00  0.00    +0.164 C 
ATOM     13  C   UNL     1      14.798   6.537  20.428  0.00  0.00    +0.164 C 
ATOM     16  C   UNL     1      17.006   7.131  19.956  0.00  0.00    +0.181 C 
ENDROOT
BRANCH  10   3
ATOM      3  O   UNL     1      14.664   7.370  22.712  0.00  0.00    -0.388 OA
ATOM     25  H   UNL     1      15.284   7.694  23.387  0.00  0.00    +0.210 HD
ENDBRANCH  10   3
BRANCH   9   6
ATOM      6  N   UNL     1      17.486   8.524  21.949  0.00  0.00    -0.306 NA
ATOM     24  H   UNL     1      18.488   8.346  21.887  0.00  0.00    +0.123 HD
BRANCH   6   8
ATOM      8  C   UNL     1      17.149   9.740  21.231  0.00  0.00    +0.054 C 
ATOM     11  C   UNL     1      18.378  10.520  20.783  0.00  0.00    +0.019 C 
ATOM     12  C   UNL     1      16.418  10.755  22.102  0.00  0.00    +0.019 C 
ATOM     14  C   UNL     1      17.831  11.912  20.481  0.00  0.00    +0.002 C 
ATOM     15  C   UNL     1      16.566  12.064  21.331  0.00  0.00    +0.002 C 
ENDBRANCH   6   8
ENDBRANCH   9   6
BRANCH  13  17
ATOM     17  C   UNL     1      13.467   6.857  19.771  0.00  0.00    +0.140 C 
BRANCH  17   7
ATOM      7  N   UNL     1      12.666   7.715  20.666  0.00  0.00    -0.187 NA
ATOM     26  H   UNL     1      12.348   7.276  21.539  0.00  0.00    +0.148 HD
BRANCH   7   1
ATOM      1  S   UNL     1      11.747   8.994  20.023  0.00  0.00    +0.058 S 
ATOM      4  O   UNL     1      11.557  10.009  21.041  0.00  0.00    -0.153 OA
ATOM      5  O   UNL     1      10.605   8.446  19.317  0.00  0.00    -0.153 OA
BRANCH   1  18
ATOM     18  C   UNL     1      12.844   9.649  18.800  0.00  0.00    +0.105 A 
ATOM     19  C   UNL     1      12.553   9.489  17.445  0.00  0.00    +0.028 A 
ATOM     20  C   UNL     1      14.003  10.320  19.190  0.00  0.00    +0.028 A 
ATOM     21  C   UNL     1      13.420  10.002  16.480  0.00  0.00    +0.002 A 
ATOM     22  C   UNL     1      14.870  10.833  18.225  0.00  0.00    +0.002 A 
ATOM     23  C   UNL     1      14.579  10.674  16.871  0.00  0.00    +0.000 A 
ENDBRANCH   1  18
ENDBRANCH   7   1
ENDBRANCH  17   7
ENDBRANCH  13  17
TORSDOF 7
ENDMDL
MODEL 7
REMARK VINA RESULT:      -5.9     25.931     28.288
REMARK  Name = 75367095
REMARK  7 active torsions:
REMARK  status: ('A' for Active; 'I' for Inactive)
REMARK    1  A    between atoms: S_1  and  N_7
REMARK    2  A    between atoms: S_1  and  C_18
REMARK    3  A    between atoms: O_3  and  C_10
REMARK    4  A    between atoms: N_6  and  C_8
REMARK    5  A    between atoms: N_6  and  C_9
REMARK    6  A    between atoms: N_7  and  C_17
REMARK    7  A    between atoms: C_13  and  C_17
REMARK                            x       y       z     vdW  Elec       q    Type
REMARK                         _______ _______ _______ _____ _____    ______ ____
ROOT
ATOM      2  O   UNL     1      -5.710 -12.378  17.570  0.00  0.00    -0.371 OA
ATOM      9  C   UNL     1      -7.300 -10.627  17.358  0.00  0.00    +0.111 C 
ATOM     10  C   UNL     1      -5.938 -10.113  16.929  0.00  0.00    +0.164 C 
ATOM     13  C   UNL     1      -5.217 -11.418  16.621  0.00  0.00    +0.164 C 
ATOM     16  C   UNL     1      -6.917 -11.863  18.157  0.00  0.00    +0.181 C 
ENDROOT
BRANCH  10   3
ATOM      3  O   UNL     1      -6.006  -9.268  15.797  0.00  0.00    -0.388 OA
ATOM     25  H   UNL     1      -6.414  -8.427  16.066  0.00  0.00    +0.210 HD
ENDBRANCH  10   3
BRANCH   9   6
ATOM      6  N   UNL     1      -8.069  -9.667  18.134  0.00  0.00    -0.306 NA
ATOM     24  H   UNL     1      -7.590  -8.767  18.154  0.00  0.00    +0.123 HD
BRANCH   6   8
ATOM      8  C   UNL     1      -9.407  -9.510  17.595  0.00  0.00    +0.054 C 
ATOM     11  C   UNL     1      -9.722  -8.070  17.212  0.00  0.00    +0.019 C 
ATOM     12  C   UNL     1     -10.495  -9.821  18.616  0.00  0.00    +0.019 C 
ATOM     14  C   UNL     1     -11.245  -8.048  17.115  0.00  0.00    +0.002 C 
ATOM     15  C   UNL     1     -11.743  -9.178  18.020  0.00  0.00    +0.002 C 
ENDBRANCH   6   8
ENDBRANCH   9   6
BRANCH  13  17
ATOM     17  C   UNL     1      -3.707 -11.310  16.738  0.00  0.00    +0.140 C 
BRANCH  17   7
ATOM      7  N   UNL     1      -3.208 -10.292  15.792  0.00  0.00    -0.187 NA
ATOM     26  H   UNL     1      -3.889  -9.576  15.508  0.00  0.00    +0.148 HD
BRANCH   7   1
ATOM      1  S   UNL     1      -1.937 -10.668  14.726  0.00  0.00    +0.058 S 
ATOM      4  O   UNL     1      -1.640 -12.085  14.814  0.00  0.00    -0.153 OA
ATOM      5  O   UNL     1      -0.879  -9.690  14.889  0.00  0.00    -0.153 OA
BRANCH   1  18
ATOM     18  C   UNL     1      -2.684 -10.365  13.152  0.00  0.00    +0.105 A 
ATOM     19  C   UNL     1      -4.064 -10.500  12.997  0.00  0.00    +0.028 A 
ATOM     20  C   UNL     1      -1.893  -9.996  12.064  0.00  0.00    +0.028 A 
ATOM     21  C   UNL     1      -4.652 -10.265  11.755  0.00  0.00    +0.002 A 
ATOM     22  C   UNL     1      -2.481  -9.761  10.822  0.00  0.00    +0.002 A 
ATOM     23  C   UNL     1      -3.860  -9.895  10.667  0.00  0.00    +0.000 A 
ENDBRANCH   1  18
ENDBRANCH   7   1
ENDBRANCH  17   7
ENDBRANCH  13  17
TORSDOF 7
ENDMDL
MODEL 8
REMARK VINA RESULT:      -5.7      1.944      2.499
REMARK  Name = 75367095
REMARK  7 active torsions:
REMARK  status: ('A' for Active; 'I' for Inactive)
REMARK    1  A    between atoms: S_1  and  N_7
REMARK    2  A    between atoms: S_1  and  C_18
REMARK    3  A    between atoms: O_3  and  C_10
REMARK    4  A    between atoms: N_6  and  C_8
REMARK    5  A    between atoms: N_6  and  C_9
REMARK    6  A    between atoms: N_7  and  C_17
REMARK    7  A    between atoms: C_13  and  C_17
REMARK                            x       y       z     vdW  Elec       q    Type
REMARK                         _______ _______ _______ _____ _____    ______ ____
ROOT
ATOM      2  O   UNL     1      11.625   8.740  19.565  0.00  0.00    -0.371 OA
ATOM      9  C   UNL     1      12.831   6.718  19.873  0.00  0.00    +0.111 C 
ATOM     10  C   UNL     1      12.193   7.119  21.190  0.00  0.00    +0.164 C 
ATOM     13  C   UNL     1      11.091   8.053  20.709  0.00  0.00    +0.164 C 
ATOM     16  C   UNL     1      12.789   8.031  19.107  0.00  0.00    +0.181 C 
ENDROOT
BRANCH  10   3
ATOM      3  O   UNL     1      11.673   6.013  21.902  0.00  0.00    -0.388 OA
ATOM     25  H   UNL     1      12.398   5.388  22.071  0.00  0.00    +0.210 HD
ENDBRANCH  10   3
BRANCH   9   6
ATOM      6  N   UNL     1      14.179   6.190  20.014  0.00  0.00    -0.306 NA
ATOM     24  H   UNL     1      14.421   5.623  19.203  0.00  0.00    +0.123 HD
BRANCH   6   8
ATOM      8  C   UNL     1      15.145   7.260  20.183  0.00  0.00    +0.054 C 
ATOM     11  C   UNL     1      16.561   6.838  19.816  0.00  0.00    +0.019 C 
ATOM     12  C   UNL     1      15.299   7.692  21.636  0.00  0.00    +0.019 C 
ATOM     14  C   UNL     1      17.436   7.902  20.474  0.00  0.00    +0.002 C 
ATOM     15  C   UNL     1      16.621   8.453  21.647  0.00  0.00    +0.002 C 
ENDBRANCH   6   8
ENDBRANCH   9   6
BRANCH  13  17
ATOM     17  C   UNL     1      10.659   9.062  21.758  0.00  0.00    +0.140 C 
BRANCH  17   7
ATOM      7  N   UNL     1      11.780   9.328  22.681  0.00  0.00    -0.187 NA
ATOM     26  H   UNL     1      11.703   8.900  23.613  0.00  0.00    +0.148 HD
BRANCH   7   1
ATOM      1  S   UNL     1      12.699  10.750  22.519  0.00  0.00    +0.058 S 
ATOM      4  O   UNL     1      12.735  11.143  21.124  0.00  0.00    -0.153 OA
ATOM      5  O   UNL     1      13.934  10.602  23.266  0.00  0.00    -0.153 OA
BRANCH   1  18
ATOM     18  C   UNL     1      11.706  11.924  23.390  0.00  0.00    +0.105 A 
ATOM     19  C   UNL     1      11.052  12.940  22.690  0.00  0.00    +0.028 A 
ATOM     20  C   UNL     1      11.578  11.839  24.776  0.00  0.00    +0.028 A 
ATOM     21  C   UNL     1      10.272  13.869  23.378  0.00  0.00    +0.002 A 
ATOM     22  C   UNL     1      10.798  12.768  25.463  0.00  0.00    +0.002 A 
ATOM     23  C   UNL     1      10.144  13.783  24.765  0.00  0.00    +0.000 A 
ENDBRANCH   1  18
ENDBRANCH   7   1
ENDBRANCH  17   7
ENDBRANCH  13  17
TORSDOF 7
ENDMDL
MODEL 9
REMARK VINA RESULT:      -5.7      2.873      5.947
REMARK  Name = 75367095
REMARK  7 active torsions:
REMARK  status: ('A' for Active; 'I' for Inactive)
REMARK    1  A    between atoms: S_1  and  N_7
REMARK    2  A    between atoms: S_1  and  C_18
REMARK    3  A    between atoms: O_3  and  C_10
REMARK    4  A    between atoms: N_6  and  C_8
REMARK    5  A    between atoms: N_6  and  C_9
REMARK    6  A    between atoms: N_7  and  C_17
REMARK    7  A    between atoms: C_13  and  C_17
REMARK                            x       y       z     vdW  Elec       q    Type
REMARK                         _______ _______ _______ _____ _____    ______ ____
ROOT
ATOM      2  O   UNL     1      15.279   7.996  19.293  0.00  0.00    -0.371 OA
ATOM      9  C   UNL     1      14.517   7.937  21.541  0.00  0.00    +0.111 C 
ATOM     10  C   UNL     1      13.419   7.416  20.633  0.00  0.00    +0.164 C 
ATOM     13  C   UNL     1      14.220   7.031  19.397  0.00  0.00    +0.164 C 
ATOM     16  C   UNL     1      15.398   8.683  20.551  0.00  0.00    +0.181 C 
ENDROOT
BRANCH  10   3
ATOM      3  O   UNL     1      12.735   6.308  21.185  0.00  0.00    -0.388 OA
ATOM     25  H   UNL     1      12.537   6.503  22.116  0.00  0.00    +0.210 HD
ENDBRANCH  10   3
BRANCH   9   6
ATOM      6  N   UNL     1      14.032   8.787  22.616  0.00  0.00    -0.306 NA
ATOM     24  H   UNL     1      14.807   9.085  23.207  0.00  0.00    +0.123 HD
BRANCH   6   8
ATOM      8  C   UNL     1      13.331   9.945  22.091  0.00  0.00    +0.054 C 
ATOM     11  C   UNL     1      13.767  11.247  22.750  0.00  0.00    +0.019 C 
ATOM     12  C   UNL     1      11.836   9.914  22.389  0.00  0.00    +0.019 C 
ATOM     14  C   UNL     1      12.642  12.219  22.407  0.00  0.00    +0.002 C 
ATOM     15  C   UNL     1      11.396  11.360  22.174  0.00  0.00    +0.002 C 
ENDBRANCH   6   8
ENDBRANCH   9   6
BRANCH  13  17
ATOM     17  C   UNL     1      13.395   7.034  18.122  0.00  0.00    +0.140 C 
BRANCH  17   7
ATOM      7  N   UNL     1      14.191   7.607  17.019  0.00  0.00    -0.187 NA
ATOM     26  H   UNL     1      15.211   7.545  17.125  0.00  0.00    +0.148 HD
BRANCH   7   1
ATOM      1  S   UNL     1      13.552   8.868  16.072  0.00  0.00    +0.058 S 
ATOM      4  O   UNL     1      12.107   8.752  16.028  0.00  0.00    -0.153 OA
ATOM      5  O   UNL     1      14.313   8.967  14.841  0.00  0.00    -0.153 OA
BRANCH   1  18
ATOM     18  C   UNL     1      13.954  10.289  17.044  0.00  0.00    +0.105 A 
ATOM     19  C   UNL     1      15.051  11.081  16.700  0.00  0.00    +0.028 A 
ATOM     20  C   UNL     1      13.179  10.617  18.156  0.00  0.00    +0.028 A 
ATOM     21  C   UNL     1      15.371  12.200  17.469  0.00  0.00    +0.002 A 
ATOM     22  C   UNL     1      13.499  11.736  18.924  0.00  0.00    +0.002 A 
ATOM     23  C   UNL     1      14.595  12.527  18.581  0.00  0.00    +0.000 A 
ENDBRANCH   1  18
ENDBRANCH   7   1
ENDBRANCH  17   7
ENDBRANCH  13  17
TORSDOF 7
ENDMDL
MODEL 10
REMARK VINA RESULT:      -5.6     26.730     29.398
REMARK  Name = 75367095
REMARK  7 active torsions:
REMARK  status: ('A' for Active; 'I' for Inactive)
REMARK    1  A    between atoms: S_1  and  N_7
REMARK    2  A    between atoms: S_1  and  C_18
REMARK    3  A    between atoms: O_3  and  C_10
REMARK    4  A    between atoms: N_6  and  C_8
REMARK    5  A    between atoms: N_6  and  C_9
REMARK    6  A    between atoms: N_7  and  C_17
REMARK    7  A    between atoms: C_13  and  C_17
REMARK                            x       y       z     vdW  Elec       q    Type
REMARK                         _______ _______ _______ _____ _____    ______ ____
ROOT
ATOM      2  O   UNL     1      -8.010 -13.169  19.014  0.00  0.00    -0.371 OA
ATOM      9  C   UNL     1      -9.218 -11.170  19.446  0.00  0.00    +0.111 C 
ATOM     10  C   UNL     1      -7.750 -10.832  19.264  0.00  0.00    +0.164 C 
ATOM     13  C   UNL     1      -7.259 -12.055  18.503  0.00  0.00    +0.164 C 
ATOM     16  C   UNL     1      -9.149 -12.663  19.731  0.00  0.00    +0.181 C 
ENDROOT
BRANCH  10   3
ATOM      3  O   UNL     1      -7.552  -9.639  18.530  0.00  0.00    -0.388 OA
ATOM     25  H   UNL     1      -6.620  -9.596  18.260  0.00  0.00    +0.210 HD
ENDBRANCH  10   3
BRANCH   9   6
ATOM      6  N   UNL     1      -9.863 -10.421  20.511  0.00  0.00    -0.306 NA
ATOM     24  H   UNL     1      -9.225  -9.716  20.881  0.00  0.00    +0.123 HD
BRANCH   6   8
ATOM      8  C   UNL     1     -11.085  -9.793  20.044  0.00  0.00    +0.054 C 
ATOM     11  C   UNL     1     -12.333 -10.585  20.413  0.00  0.00    +0.019 C 
ATOM     12  C   UNL     1     -11.174  -9.735  18.524  0.00  0.00    +0.019 C 
ATOM     14  C   UNL     1     -13.403 -10.029  19.478  0.00  0.00    +0.002 C 
ATOM     15  C   UNL     1     -12.655  -9.480  18.259  0.00  0.00    +0.002 C 
ENDBRANCH   6   8
ENDBRANCH   9   6
BRANCH  13  17
ATOM     17  C   UNL     1      -5.773 -12.314  18.677  0.00  0.00    +0.140 C 
BRANCH  17   7
ATOM      7  N   UNL     1      -5.005 -11.391  17.818  0.00  0.00    -0.187 NA
ATOM     26  H   UNL     1      -4.603 -10.572  18.291  0.00  0.00    +0.148 HD
BRANCH   7   1
ATOM      1  S   UNL     1      -5.365 -11.272  16.160  0.00  0.00    +0.058 S 
ATOM      4  O   UNL     1      -6.262 -10.155  15.941  0.00  0.00    -0.153 OA
ATOM      5  O   UNL     1      -5.704 -12.589  15.654  0.00  0.00    -0.153 OA
BRANCH   1  18
ATOM     18  C   UNL     1      -3.790 -10.847  15.478  0.00  0.00    +0.105 A 
ATOM     19  C   UNL     1      -3.634 -10.743  14.095  0.00  0.00    +0.028 A 
ATOM     20  C   UNL     1      -2.703 -10.621  16.321  0.00  0.00    +0.028 A 
ATOM     21  C   UNL     1      -2.391 -10.411  13.557  0.00  0.00    +0.002 A 
ATOM     22  C   UNL     1      -1.460 -10.289  15.783  0.00  0.00    +0.002 A 
ATOM     23  C   UNL     1      -1.303 -10.184  14.401  0.00  0.00    +0.000 A 
ENDBRANCH   1  18
ENDBRANCH   7   1
ENDBRANCH  17   7
ENDBRANCH  13  17
TORSDOF 7
ENDMDL
