MODEL 1
REMARK VINA RESULT:      -5.6      0.000      0.000
REMARK  Name = 40777252
REMARK  10 active torsions:
REMARK  status: ('A' for Active; 'I' for Inactive)
REMARK    1  A    between atoms: N_4  and  C_14
REMARK    2  A    between atoms: C_8  and  C_15
REMARK    3  A    between atoms: C_9  and  C_14
REMARK    4  A    between atoms: C_17  and  C_20
REMARK    5  A    between atoms: C_18  and  C_23
REMARK    6  A    between atoms: C_19  and  C_24
REMARK    7  A    between atoms: C_20  and  C_21
REMARK    8  A    between atoms: C_20  and  C_22
REMARK    9  A    between atoms: C_21  and  C_25
REMARK   10  A    between atoms: C_22  and  C_26
REMARK                            x       y       z     vdW  Elec       q    Type
REMARK                         _______ _______ _______ _____ _____    ______ ____
ROOT
ATOM      3  N   UNL     1      18.283  -2.805  22.945  0.00  0.00    -0.297 NA
ATOM      7  C   UNL     1      16.747  -2.024  24.897  0.00  0.00    +0.002 C 
ATOM      8  C   UNL     1      18.232  -2.058  25.354  0.00  0.00    +0.055 C 
ATOM      9  C   UNL     1      17.144  -3.747  23.103  0.00  0.00    +0.074 C 
ATOM     10  C   UNL     1      16.340  -3.420  24.380  0.00  0.00    +0.024 C 
ATOM     11  C   UNL     1      16.673  -1.056  23.696  0.00  0.00    +0.019 C 
ATOM     12  C   UNL     1      19.052  -2.721  24.211  0.00  0.00    +0.094 C 
ATOM     13  C   UNL     1      17.726  -1.464  22.651  0.00  0.00    +0.085 C 
ENDROOT
BRANCH   8  15
ATOM      5  N   UNL     1      19.767  -3.223  26.859  0.00  0.00    -0.237 NA
ATOM      6  N   UNL     1      19.180  -3.749  29.137  0.00  0.00    -0.232 NA
ATOM     15  C   UNL     1      18.551  -2.656  26.717  0.00  0.00    +0.050 A 
ATOM     16  C   UNL     1      17.609  -2.597  27.723  0.00  0.00    +0.052 A 
ATOM     18  C   UNL     1      17.983  -3.165  28.924  0.00  0.00    +0.076 A 
ATOM     19  C   UNL     1      20.012  -3.743  28.078  0.00  0.00    +0.127 A 
ATOM     24  C   UNL     1      21.345  -4.381  28.273  0.00  0.00    +0.088 C 
BRANCH  18  23
ATOM      1 BR   UNL     1      18.406  -0.771  31.002  0.00  0.00    -0.050 Br
ATOM     23  C   UNL     1      17.088  -3.171  30.056  0.00  0.00    +0.014 A 
ATOM     27  C   UNL     1      17.145  -2.194  31.050  0.00  0.00    +0.027 A 
ATOM     28  C   UNL     1      16.144  -4.195  30.140  0.00  0.00    +0.011 A 
ATOM     29  C   UNL     1      16.259  -2.240  32.127  0.00  0.00    +0.016 A 
ATOM     30  C   UNL     1      15.258  -4.241  31.216  0.00  0.00    +0.001 A 
ATOM     31  C   UNL     1      15.315  -3.263  32.209  0.00  0.00    +0.001 A 
ENDBRANCH  18  23
ENDBRANCH   8  15
BRANCH   9  14
ATOM     14  C   UNL     1      17.589  -5.211  23.069  0.00  0.00    +0.123 C 
BRANCH  14   4
ATOM      2  O   UNL     1      19.547  -6.126  24.962  0.00  0.00    -0.276 OA
ATOM      4  N   UNL     1      17.334  -5.852  24.323  0.00  0.00    -0.314 N 
ATOM     17  C   UNL     1      18.347  -6.267  25.187  0.00  0.00    +0.216 C 
ATOM     32  H   UNL     1      16.364  -6.007  24.579  0.00  0.00    +0.149 HD
BRANCH  17  20
ATOM     20  C   UNL     1      17.812  -6.941  26.454  0.00  0.00    +0.074 C 
BRANCH  20  21
ATOM     21  C   UNL     1      16.663  -6.145  27.096  0.00  0.00    +0.009 C 
ATOM     25  C   UNL     1      15.348  -6.918  27.094  0.00  0.00    +0.004 C 
ENDBRANCH  20  21
BRANCH  20  22
ATOM     22  C   UNL     1      18.964  -7.194  27.448  0.00  0.00    +0.009 C 
ATOM     26  C   UNL     1      18.542  -7.258  28.910  0.00  0.00    +0.004 C 
ENDBRANCH  20  22
ENDBRANCH  17  20
ENDBRANCH  14   4
ENDBRANCH   9  14
TORSDOF 7
ENDMDL
MODEL 2
REMARK VINA RESULT:      -5.6     23.129     27.690
REMARK  Name = 40777252
REMARK  10 active torsions:
REMARK  status: ('A' for Active; 'I' for Inactive)
REMARK    1  A    between atoms: N_4  and  C_14
REMARK    2  A    between atoms: C_8  and  C_15
REMARK    3  A    between atoms: C_9  and  C_14
REMARK    4  A    between atoms: C_17  and  C_20
REMARK    5  A    between atoms: C_18  and  C_23
REMARK    6  A    between atoms: C_19  and  C_24
REMARK    7  A    between atoms: C_20  and  C_21
REMARK    8  A    between atoms: C_20  and  C_22
REMARK    9  A    between atoms: C_21  and  C_25
REMARK   10  A    between atoms: C_22  and  C_26
REMARK                            x       y       z     vdW  Elec       q    Type
REMARK                         _______ _______ _______ _____ _____    ______ ____
ROOT
ATOM      3  N   UNL     1      10.216   6.936   7.740  0.00  0.00    -0.297 NA
ATOM      7  C   UNL     1       9.791   5.164   5.879  0.00  0.00    +0.002 C 
ATOM      8  C   UNL     1      11.183   5.828   5.690  0.00  0.00    +0.055 C 
ATOM      9  C   UNL     1       8.884   7.160   7.119  0.00  0.00    +0.074 C 
ATOM     10  C   UNL     1       8.700   6.255   5.882  0.00  0.00    +0.024 C 
ATOM     11  C   UNL     1       9.792   4.521   7.283  0.00  0.00    +0.019 C 
ATOM     12  C   UNL     1      11.277   7.004   6.704  0.00  0.00    +0.094 C 
ATOM     13  C   UNL     1      10.223   5.573   8.321  0.00  0.00    +0.085 C 
ENDROOT
BRANCH   8  15
ATOM      5  N   UNL     1      12.025   7.513   4.130  0.00  0.00    -0.237 NA
ATOM      6  N   UNL     1      12.346   7.048   1.786  0.00  0.00    -0.232 NA
ATOM     15  C   UNL     1      11.595   6.244   4.284  0.00  0.00    +0.050 A 
ATOM     16  C   UNL     1      11.514   5.330   3.253  0.00  0.00    +0.052 A 
ATOM     18  C   UNL     1      11.906   5.792   2.014  0.00  0.00    +0.076 A 
ATOM     19  C   UNL     1      12.379   7.844   2.873  0.00  0.00    +0.127 A 
ATOM     24  C   UNL     1      12.858   9.239   2.662  0.00  0.00    +0.088 C 
BRANCH  18  23
ATOM      1 BR   UNL     1      14.385   3.795   1.713  0.00  0.00    -0.050 Br
ATOM     23  C   UNL     1      11.867   4.937   0.852  0.00  0.00    +0.014 A 
ATOM     27  C   UNL     1      12.874   4.011   0.581  0.00  0.00    +0.027 A 
ATOM     28  C   UNL     1      10.779   5.057  -0.013  0.00  0.00    +0.011 A 
ATOM     29  C   UNL     1      12.793   3.205  -0.555  0.00  0.00    +0.016 A 
ATOM     30  C   UNL     1      10.697   4.250  -1.148  0.00  0.00    +0.001 A 
ATOM     31  C   UNL     1      11.705   3.324  -1.419  0.00  0.00    +0.001 A 
ENDBRANCH  18  23
ENDBRANCH   8  15
BRANCH   9  14
ATOM     14  C   UNL     1       8.634   8.633   6.790  0.00  0.00    +0.123 C 
BRANCH  14   4
ATOM      2  O   UNL     1      10.137  10.439   5.136  0.00  0.00    -0.276 OA
ATOM      4  N   UNL     1       8.489   8.825   5.379  0.00  0.00    -0.314 N 
ATOM     17  C   UNL     1       9.262   9.726   4.649  0.00  0.00    +0.216 C 
ATOM     32  H   UNL     1       7.783   8.272   4.904  0.00  0.00    +0.149 HD
BRANCH  17  20
ATOM     20  C   UNL     1       8.899   9.755   3.160  0.00  0.00    +0.074 C 
BRANCH  20  21
ATOM     21  C   UNL     1       7.701  10.675   2.871  0.00  0.00    +0.009 C 
ATOM     25  C   UNL     1       6.365   9.954   3.019  0.00  0.00    +0.004 C 
ENDBRANCH  20  21
BRANCH  20  22
ATOM     22  C   UNL     1       8.664   8.321   2.643  0.00  0.00    +0.009 C 
ATOM     26  C   UNL     1       9.043   8.099   1.184  0.00  0.00    +0.004 C 
ENDBRANCH  20  22
ENDBRANCH  17  20
ENDBRANCH  14   4
ENDBRANCH   9  14
TORSDOF 7
ENDMDL
MODEL 3
REMARK VINA RESULT:      -5.5     25.022     27.453
REMARK  Name = 40777252
REMARK  10 active torsions:
REMARK  status: ('A' for Active; 'I' for Inactive)
REMARK    1  A    between atoms: N_4  and  C_14
REMARK    2  A    between atoms: C_8  and  C_15
REMARK    3  A    between atoms: C_9  and  C_14
REMARK    4  A    between atoms: C_17  and  C_20
REMARK    5  A    between atoms: C_18  and  C_23
REMARK    6  A    between atoms: C_19  and  C_24
REMARK    7  A    between atoms: C_20  and  C_21
REMARK    8  A    between atoms: C_20  and  C_22
REMARK    9  A    between atoms: C_21  and  C_25
REMARK   10  A    between atoms: C_22  and  C_26
REMARK                            x       y       z     vdW  Elec       q    Type
REMARK                         _______ _______ _______ _____ _____    ______ ____
ROOT
ATOM      3  N   UNL     1      -4.565 -15.346  12.358  0.00  0.00    -0.297 NA
ATOM      7  C   UNL     1      -2.276 -14.135  12.634  0.00  0.00    +0.002 C 
ATOM      8  C   UNL     1      -3.074 -14.100  13.967  0.00  0.00    +0.055 C 
ATOM      9  C   UNL     1      -4.373 -14.366  11.258  0.00  0.00    +0.074 C 
ATOM     10  C   UNL     1      -3.124 -13.495  11.515  0.00  0.00    +0.024 C 
ATOM     11  C   UNL     1      -2.089 -15.623  12.267  0.00  0.00    +0.019 C 
ATOM     12  C   UNL     1      -4.496 -14.656  13.670  0.00  0.00    +0.094 C 
ATOM     13  C   UNL     1      -3.456 -16.327  12.292  0.00  0.00    +0.085 C 
ENDROOT
BRANCH   8  15
ATOM      5  N   UNL     1      -1.969 -12.085  14.804  0.00  0.00    -0.237 NA
ATOM      6  N   UNL     1      -3.130 -10.440  16.130  0.00  0.00    -0.232 NA
ATOM     15  C   UNL     1      -3.116 -12.792  14.746  0.00  0.00    +0.050 A 
ATOM     16  C   UNL     1      -4.294 -12.395  15.344  0.00  0.00    +0.052 A 
ATOM     18  C   UNL     1      -4.242 -11.199  16.030  0.00  0.00    +0.076 A 
ATOM     19  C   UNL     1      -2.046 -10.936  15.503  0.00  0.00    +0.127 A 
ATOM     24  C   UNL     1      -0.797 -10.127  15.593  0.00  0.00    +0.088 C 
BRANCH  18  23
ATOM      1 BR   UNL     1      -4.472 -11.946  19.131  0.00  0.00    -0.050 Br
ATOM     23  C   UNL     1      -5.405 -10.673  16.702  0.00  0.00    +0.014 A 
ATOM     27  C   UNL     1      -5.649 -10.910  18.055  0.00  0.00    +0.027 A 
ATOM     28  C   UNL     1      -6.301  -9.907  15.957  0.00  0.00    +0.011 A 
ATOM     29  C   UNL     1      -6.787 -10.381  18.663  0.00  0.00    +0.016 A 
ATOM     30  C   UNL     1      -7.440  -9.377  16.565  0.00  0.00    +0.001 A 
ATOM     31  C   UNL     1      -7.682  -9.614  17.918  0.00  0.00    +0.001 A 
ENDBRANCH  18  23
ENDBRANCH   8  15
BRANCH   9  14
ATOM     14  C   UNL     1      -5.620 -13.515  11.009  0.00  0.00    +0.123 C 
BRANCH  14   4
ATOM      2  O   UNL     1      -6.941 -11.533   9.403  0.00  0.00    -0.276 OA
ATOM      4  N   UNL     1      -5.281 -12.128  10.910  0.00  0.00    -0.314 N 
ATOM     17  C   UNL     1      -5.978 -11.230  10.103  0.00  0.00    +0.216 C 
ATOM     32  H   UNL     1      -4.493 -11.801  11.458  0.00  0.00    +0.149 HD
BRANCH  17  20
ATOM     20  C   UNL     1      -5.407  -9.809  10.160  0.00  0.00    +0.074 C 
BRANCH  20  21
ATOM     21  C   UNL     1      -4.056  -9.695   9.433  0.00  0.00    +0.009 C 
ATOM     25  C   UNL     1      -2.908  -9.378  10.385  0.00  0.00    +0.004 C 
ENDBRANCH  20  21
BRANCH  20  22
ATOM     22  C   UNL     1      -5.316  -9.332  11.624  0.00  0.00    +0.009 C 
ATOM     26  C   UNL     1      -6.658  -9.041  12.284  0.00  0.00    +0.004 C 
ENDBRANCH  20  22
ENDBRANCH  17  20
ENDBRANCH  14   4
ENDBRANCH   9  14
TORSDOF 7
ENDMDL
MODEL 4
REMARK VINA RESULT:      -5.5     25.568     27.805
REMARK  Name = 40777252
REMARK  10 active torsions:
REMARK  status: ('A' for Active; 'I' for Inactive)
REMARK    1  A    between atoms: N_4  and  C_14
REMARK    2  A    between atoms: C_8  and  C_15
REMARK    3  A    between atoms: C_9  and  C_14
REMARK    4  A    between atoms: C_17  and  C_20
REMARK    5  A    between atoms: C_18  and  C_23
REMARK    6  A    between atoms: C_19  and  C_24
REMARK    7  A    between atoms: C_20  and  C_21
REMARK    8  A    between atoms: C_20  and  C_22
REMARK    9  A    between atoms: C_21  and  C_25
REMARK   10  A    between atoms: C_22  and  C_26
REMARK                            x       y       z     vdW  Elec       q    Type
REMARK                         _______ _______ _______ _____ _____    ______ ____
ROOT
ATOM      3  N   UNL     1      -6.226 -11.399  10.971  0.00  0.00    -0.297 NA
ATOM      7  C   UNL     1      -5.261  -9.232  12.047  0.00  0.00    +0.002 C 
ATOM      8  C   UNL     1      -4.370 -10.456  12.397  0.00  0.00    +0.055 C 
ATOM      9  C   UNL     1      -7.298 -10.674  11.702  0.00  0.00    +0.074 C 
ATOM     10  C   UNL     1      -6.707  -9.502  12.515  0.00  0.00    +0.024 C 
ATOM     11  C   UNL     1      -5.295  -9.133  10.506  0.00  0.00    +0.019 C 
ATOM     12  C   UNL     1      -5.113 -11.728  11.897  0.00  0.00    +0.094 C 
ATOM     13  C   UNL     1      -5.702 -10.496   9.919  0.00  0.00    +0.085 C 
ENDROOT
BRANCH   8  15
ATOM      5  N   UNL     1      -2.558 -10.423  14.038  0.00  0.00    -0.237 NA
ATOM      6  N   UNL     1      -2.938 -10.850  16.381  0.00  0.00    -0.232 NA
ATOM     15  C   UNL     1      -3.879 -10.601  13.830  0.00  0.00    +0.050 A 
ATOM     16  C   UNL     1      -4.780 -10.900  14.831  0.00  0.00    +0.052 A 
ATOM     18  C   UNL     1      -4.248 -11.014  16.099  0.00  0.00    +0.076 A 
ATOM     19  C   UNL     1      -2.161 -10.560  15.319  0.00  0.00    +0.127 A 
ATOM     24  C   UNL     1      -0.707 -10.374  15.589  0.00  0.00    +0.088 C 
BRANCH  18  23
ATOM      1 BR   UNL     1      -5.206 -14.060  16.284  0.00  0.00    -0.050 Br
ATOM     23  C   UNL     1      -5.084 -11.326  17.233  0.00  0.00    +0.014 A 
ATOM     27  C   UNL     1      -5.582 -12.610  17.455  0.00  0.00    +0.027 A 
ATOM     28  C   UNL     1      -5.391 -10.297  18.123  0.00  0.00    +0.011 A 
ATOM     29  C   UNL     1      -6.387 -12.865  18.566  0.00  0.00    +0.016 A 
ATOM     30  C   UNL     1      -6.195 -10.551  19.235  0.00  0.00    +0.001 A 
ATOM     31  C   UNL     1      -6.692 -11.836  19.456  0.00  0.00    +0.001 A 
ENDBRANCH  18  23
ENDBRANCH   8  15
BRANCH   9  14
ATOM     14  C   UNL     1      -8.141 -11.605  12.575  0.00  0.00    +0.123 C 
BRANCH  14   4
ATOM      2  O   UNL     1      -8.605 -13.086  14.994  0.00  0.00    -0.276 OA
ATOM      4  N   UNL     1      -8.301 -11.067  13.892  0.00  0.00    -0.314 N 
ATOM     17  C   UNL     1      -8.524 -11.859  15.017  0.00  0.00    +0.216 C 
ATOM     32  H   UNL     1      -8.249 -10.059  13.992  0.00  0.00    +0.149 HD
BRANCH  17  20
ATOM     20  C   UNL     1      -8.677 -11.040  16.303  0.00  0.00    +0.074 C 
BRANCH  20  21
ATOM     21  C   UNL     1     -10.084 -11.167  16.909  0.00  0.00    +0.009 C 
ATOM     25  C   UNL     1     -10.090 -11.972  18.204  0.00  0.00    +0.004 C 
ENDBRANCH  20  21
BRANCH  20  22
ATOM     22  C   UNL     1      -8.288  -9.570  16.046  0.00  0.00    +0.009 C 
ATOM     26  C   UNL     1      -8.825  -8.580  17.072  0.00  0.00    +0.004 C 
ENDBRANCH  20  22
ENDBRANCH  17  20
ENDBRANCH  14   4
ENDBRANCH   9  14
TORSDOF 7
ENDMDL
MODEL 5
REMARK VINA RESULT:      -5.4     25.999     28.528
REMARK  Name = 40777252
REMARK  10 active torsions:
REMARK  status: ('A' for Active; 'I' for Inactive)
REMARK    1  A    between atoms: N_4  and  C_14
REMARK    2  A    between atoms: C_8  and  C_15
REMARK    3  A    between atoms: C_9  and  C_14
REMARK    4  A    between atoms: C_17  and  C_20
REMARK    5  A    between atoms: C_18  and  C_23
REMARK    6  A    between atoms: C_19  and  C_24
REMARK    7  A    between atoms: C_20  and  C_21
REMARK    8  A    between atoms: C_20  and  C_22
REMARK    9  A    between atoms: C_21  and  C_25
REMARK   10  A    between atoms: C_22  and  C_26
REMARK                            x       y       z     vdW  Elec       q    Type
REMARK                         _______ _______ _______ _____ _____    ______ ____
ROOT
ATOM      3  N   UNL     1      -5.458 -10.311  17.635  0.00  0.00    -0.297 NA
ATOM      7  C   UNL     1      -5.424 -12.822  16.941  0.00  0.00    +0.002 C 
ATOM      8  C   UNL     1      -4.151 -12.097  16.423  0.00  0.00    +0.055 C 
ATOM      9  C   UNL     1      -6.751 -10.681  17.002  0.00  0.00    +0.074 C 
ATOM     10  C   UNL     1      -6.677 -12.101  16.400  0.00  0.00    +0.024 C 
ATOM     11  C   UNL     1      -5.435 -12.659  18.476  0.00  0.00    +0.019 C 
ATOM     12  C   UNL     1      -4.340 -10.577  16.697  0.00  0.00    +0.094 C 
ATOM     13  C   UNL     1      -5.275 -11.170  18.829  0.00  0.00    +0.085 C 
ENDROOT
BRANCH   8  15
ATOM      5  N   UNL     1      -3.068 -13.548  14.780  0.00  0.00    -0.237 NA
ATOM      6  N   UNL     1      -2.854 -12.927  12.460  0.00  0.00    -0.232 NA
ATOM     15  C   UNL     1      -3.696 -12.374  14.997  0.00  0.00    +0.050 A 
ATOM     16  C   UNL     1      -3.936 -11.439  14.012  0.00  0.00    +0.052 A 
ATOM     18  C   UNL     1      -3.488 -11.772  12.750  0.00  0.00    +0.076 A 
ATOM     19  C   UNL     1      -2.679 -13.757  13.507  0.00  0.00    +0.127 A 
ATOM     24  C   UNL     1      -1.980 -15.043  13.227  0.00  0.00    +0.088 C 
BRANCH  18  23
ATOM      1 BR   UNL     1      -6.301 -12.040  11.253  0.00  0.00    -0.050 Br
ATOM     23  C   UNL     1      -3.676 -10.878  11.633  0.00  0.00    +0.014 A 
ATOM     27  C   UNL     1      -4.848 -10.873  10.878  0.00  0.00    +0.027 A 
ATOM     28  C   UNL     1      -2.638 -10.001  11.314  0.00  0.00    +0.011 A 
ATOM     29  C   UNL     1      -4.984  -9.991   9.805  0.00  0.00    +0.016 A 
ATOM     30  C   UNL     1      -2.774  -9.119  10.243  0.00  0.00    +0.001 A 
ATOM     31  C   UNL     1      -3.948  -9.113   9.489  0.00  0.00    +0.001 A 
ENDBRANCH  18  23
ENDBRANCH   8  15
BRANCH   9  14
ATOM     14  C   UNL     1      -7.213  -9.649  15.972  0.00  0.00    +0.123 C 
BRANCH  14   4
ATOM      2  O   UNL     1      -9.862  -9.240  14.935  0.00  0.00    -0.276 OA
ATOM      4  N   UNL     1      -8.226  -8.798  16.520  0.00  0.00    -0.314 N 
ATOM     17  C   UNL     1      -9.491  -8.657  15.951  0.00  0.00    +0.216 C 
ATOM     32  H   UNL     1      -7.994  -8.279  17.360  0.00  0.00    +0.149 HD
BRANCH  17  20
ATOM     20  C   UNL     1     -10.384  -7.675  16.718  0.00  0.00    +0.074 C 
BRANCH  20  21
ATOM     21  C   UNL     1     -11.696  -8.326  17.187  0.00  0.00    +0.009 C 
ATOM     25  C   UNL     1     -11.468  -9.381  18.265  0.00  0.00    +0.004 C 
ENDBRANCH  20  21
BRANCH  20  22
ATOM     22  C   UNL     1     -10.637  -6.413  15.868  0.00  0.00    +0.009 C 
ATOM     26  C   UNL     1     -12.106  -6.109  15.600  0.00  0.00    +0.004 C 
ENDBRANCH  20  22
ENDBRANCH  17  20
ENDBRANCH  14   4
ENDBRANCH   9  14
TORSDOF 7
ENDMDL
MODEL 6
REMARK VINA RESULT:      -5.4     25.135     27.550
REMARK  Name = 40777252
REMARK  10 active torsions:
REMARK  status: ('A' for Active; 'I' for Inactive)
REMARK    1  A    between atoms: N_4  and  C_14
REMARK    2  A    between atoms: C_8  and  C_15
REMARK    3  A    between atoms: C_9  and  C_14
REMARK    4  A    between atoms: C_17  and  C_20
REMARK    5  A    between atoms: C_18  and  C_23
REMARK    6  A    between atoms: C_19  and  C_24
REMARK    7  A    between atoms: C_20  and  C_21
REMARK    8  A    between atoms: C_20  and  C_22
REMARK    9  A    between atoms: C_21  and  C_25
REMARK   10  A    between atoms: C_22  and  C_26
REMARK                            x       y       z     vdW  Elec       q    Type
REMARK                         _______ _______ _______ _____ _____    ______ ____
ROOT
ATOM      3  N   UNL     1      -4.894 -14.749  12.050  0.00  0.00    -0.297 NA
ATOM      7  C   UNL     1      -2.524 -13.719  12.380  0.00  0.00    +0.002 C 
ATOM      8  C   UNL     1      -3.239 -13.887  13.749  0.00  0.00    +0.055 C 
ATOM      9  C   UNL     1      -4.708 -13.596  11.130  0.00  0.00    +0.074 C 
ATOM     10  C   UNL     1      -3.396 -12.847  11.452  0.00  0.00    +0.024 C 
ATOM     11  C   UNL     1      -2.448 -15.123  11.742  0.00  0.00    +0.019 C 
ATOM     12  C   UNL     1      -4.707 -14.311  13.456  0.00  0.00    +0.094 C 
ATOM     13  C   UNL     1      -3.851 -15.754  11.736  0.00  0.00    +0.085 C 
ENDROOT
BRANCH   8  15
ATOM      5  N   UNL     1      -2.065 -11.954  14.678  0.00  0.00    -0.237 NA
ATOM      6  N   UNL     1      -2.954 -10.672  16.516  0.00  0.00    -0.232 NA
ATOM     15  C   UNL     1      -3.157 -12.742  14.748  0.00  0.00    +0.050 A 
ATOM     16  C   UNL     1      -4.176 -12.562  15.661  0.00  0.00    +0.052 A 
ATOM     18  C   UNL     1      -4.019 -11.501  16.529  0.00  0.00    +0.076 A 
ATOM     19  C   UNL     1      -2.028 -10.952  15.578  0.00  0.00    +0.127 A 
ATOM     24  C   UNL     1      -0.835 -10.060  15.534  0.00  0.00    +0.088 C 
BRANCH  18  23
ATOM      1 BR   UNL     1      -6.623  -9.983  15.459  0.00  0.00    -0.050 Br
ATOM     23  C   UNL     1      -5.013 -11.206  17.533  0.00  0.00    +0.014 A 
ATOM     27  C   UNL     1      -6.203 -10.548  17.226  0.00  0.00    +0.027 A 
ATOM     28  C   UNL     1      -4.753 -11.599  18.847  0.00  0.00    +0.011 A 
ATOM     29  C   UNL     1      -7.135 -10.284  18.230  0.00  0.00    +0.016 A 
ATOM     30  C   UNL     1      -5.685 -11.335  19.851  0.00  0.00    +0.001 A 
ATOM     31  C   UNL     1      -6.876 -10.678  19.542  0.00  0.00    +0.001 A 
ENDBRANCH  18  23
ENDBRANCH   8  15
BRANCH   9  14
ATOM     14  C   UNL     1      -5.914 -12.655  11.122  0.00  0.00    +0.123 C 
BRANCH  14   4
ATOM      2  O   UNL     1      -6.439  -9.888  11.692  0.00  0.00    -0.276 OA
ATOM      4  N   UNL     1      -5.690 -11.544  10.249  0.00  0.00    -0.314 N 
ATOM     17  C   UNL     1      -5.974 -10.226  10.605  0.00  0.00    +0.216 C 
ATOM     32  H   UNL     1      -5.309 -11.743   9.330  0.00  0.00    +0.149 HD
BRANCH  17  20
ATOM     20  C   UNL     1      -5.661  -9.225   9.488  0.00  0.00    +0.074 C 
BRANCH  20  21
ATOM     21  C   UNL     1      -6.630  -9.356   8.302  0.00  0.00    +0.009 C 
ATOM     25  C   UNL     1      -5.908  -9.642   6.989  0.00  0.00    +0.004 C 
ENDBRANCH  20  21
BRANCH  20  22
ATOM     22  C   UNL     1      -4.188  -9.363   9.049  0.00  0.00    +0.009 C 
ATOM     26  C   UNL     1      -3.171  -9.208  10.173  0.00  0.00    +0.004 C 
ENDBRANCH  20  22
ENDBRANCH  17  20
ENDBRANCH  14   4
ENDBRANCH   9  14
TORSDOF 7
ENDMDL
MODEL 7
REMARK VINA RESULT:      -5.4     25.379     28.153
REMARK  Name = 40777252
REMARK  10 active torsions:
REMARK  status: ('A' for Active; 'I' for Inactive)
REMARK    1  A    between atoms: N_4  and  C_14
REMARK    2  A    between atoms: C_8  and  C_15
REMARK    3  A    between atoms: C_9  and  C_14
REMARK    4  A    between atoms: C_17  and  C_20
REMARK    5  A    between atoms: C_18  and  C_23
REMARK    6  A    between atoms: C_19  and  C_24
REMARK    7  A    between atoms: C_20  and  C_21
REMARK    8  A    between atoms: C_20  and  C_22
REMARK    9  A    between atoms: C_21  and  C_25
REMARK   10  A    between atoms: C_22  and  C_26
REMARK                            x       y       z     vdW  Elec       q    Type
REMARK                         _______ _______ _______ _____ _____    ______ ____
ROOT
ATOM      3  N   UNL     1      -7.041 -11.412  18.026  0.00  0.00    -0.297 NA
ATOM      7  C   UNL     1      -6.908  -9.620  16.140  0.00  0.00    +0.002 C 
ATOM      8  C   UNL     1      -7.483 -10.952  15.585  0.00  0.00    +0.055 C 
ATOM      9  C   UNL     1      -5.689 -10.796  18.004  0.00  0.00    +0.074 C 
ATOM     10  C   UNL     1      -5.524  -9.884  16.769  0.00  0.00    +0.024 C 
ATOM     11  C   UNL     1      -7.847  -9.173  17.282  0.00  0.00    +0.019 C 
ATOM     12  C   UNL     1      -7.342 -12.021  16.706  0.00  0.00    +0.094 C 
ATOM     13  C   UNL     1      -8.028 -10.335  18.274  0.00  0.00    +0.085 C 
ENDROOT
BRANCH   8  15
ATOM      5  N   UNL     1      -7.198 -12.750  13.951  0.00  0.00    -0.237 NA
ATOM      6  N   UNL     1      -6.066 -12.408  11.850  0.00  0.00    -0.232 NA
ATOM     15  C   UNL     1      -6.968 -11.453  14.242  0.00  0.00    +0.050 A 
ATOM     16  C   UNL     1      -6.305 -10.583  13.401  0.00  0.00    +0.052 A 
ATOM     18  C   UNL     1      -5.872 -11.121  12.207  0.00  0.00    +0.076 A 
ATOM     19  C   UNL     1      -6.727 -13.155  12.756  0.00  0.00    +0.127 A 
ATOM     24  C   UNL     1      -6.959 -14.584  12.398  0.00  0.00    +0.088 C 
BRANCH  18  23
ATOM      1 BR   UNL     1      -7.722  -9.584  10.099  0.00  0.00    -0.050 Br
ATOM     23  C   UNL     1      -5.163 -10.318  11.240  0.00  0.00    +0.014 A 
ATOM     27  C   UNL     1      -5.827  -9.587  10.256  0.00  0.00    +0.027 A 
ATOM     28  C   UNL     1      -3.770 -10.286  11.310  0.00  0.00    +0.011 A 
ATOM     29  C   UNL     1      -5.100  -8.823   9.342  0.00  0.00    +0.016 A 
ATOM     30  C   UNL     1      -3.042  -9.523  10.398  0.00  0.00    +0.001 A 
ATOM     31  C   UNL     1      -3.707  -8.791   9.414  0.00  0.00    +0.001 A 
ENDBRANCH  18  23
ENDBRANCH   8  15
BRANCH   9  14
ATOM     14  C   UNL     1      -4.571 -11.837  18.097  0.00  0.00    +0.123 C 
BRANCH  14   4
ATOM      2  O   UNL     1      -4.458 -13.463  15.731  0.00  0.00    -0.276 OA
ATOM      4  N   UNL     1      -3.653 -11.701  17.008  0.00  0.00    -0.314 N 
ATOM     17  C   UNL     1      -3.666 -12.536  15.891  0.00  0.00    +0.216 C 
ATOM     32  H   UNL     1      -2.966 -10.957  17.068  0.00  0.00    +0.149 HD
BRANCH  17  20
ATOM     20  C   UNL     1      -2.571 -12.192  14.876  0.00  0.00    +0.074 C 
BRANCH  20  21
ATOM     21  C   UNL     1      -2.433 -10.676  14.660  0.00  0.00    +0.009 C 
ATOM     25  C   UNL     1      -1.127 -10.125  15.222  0.00  0.00    +0.004 C 
ENDBRANCH  20  21
BRANCH  20  22
ATOM     22  C   UNL     1      -2.820 -12.944  13.552  0.00  0.00    +0.009 C 
ATOM     26  C   UNL     1      -1.886 -14.121  13.302  0.00  0.00    +0.004 C 
ENDBRANCH  20  22
ENDBRANCH  17  20
ENDBRANCH  14   4
ENDBRANCH   9  14
TORSDOF 7
ENDMDL
MODEL 8
REMARK VINA RESULT:      -5.4     22.366     27.047
REMARK  Name = 40777252
REMARK  10 active torsions:
REMARK  status: ('A' for Active; 'I' for Inactive)
REMARK    1  A    between atoms: N_4  and  C_14
REMARK    2  A    between atoms: C_8  and  C_15
REMARK    3  A    between atoms: C_9  and  C_14
REMARK    4  A    between atoms: C_17  and  C_20
REMARK    5  A    between atoms: C_18  and  C_23
REMARK    6  A    between atoms: C_19  and  C_24
REMARK    7  A    between atoms: C_20  and  C_21
REMARK    8  A    between atoms: C_20  and  C_22
REMARK    9  A    between atoms: C_21  and  C_25
REMARK   10  A    between atoms: C_22  and  C_26
REMARK                            x       y       z     vdW  Elec       q    Type
REMARK                         _______ _______ _______ _____ _____    ______ ____
ROOT
ATOM      3  N   UNL     1      13.572   9.675   6.172  0.00  0.00    -0.297 NA
ATOM      7  C   UNL     1      14.426   7.437   5.150  0.00  0.00    +0.002 C 
ATOM      8  C   UNL     1      13.818   8.343   4.044  0.00  0.00    +0.055 C 
ATOM      9  C   UNL     1      13.047   8.525   6.954  0.00  0.00    +0.074 C 
ATOM     10  C   UNL     1      13.370   7.191   6.247  0.00  0.00    +0.024 C 
ATOM     11  C   UNL     1      15.576   8.238   5.798  0.00  0.00    +0.019 C 
ATOM     12  C   UNL     1      13.153   9.557   4.754  0.00  0.00    +0.094 C 
ATOM     13  C   UNL     1      15.053   9.621   6.224  0.00  0.00    +0.085 C 
ENDROOT
BRANCH   8  15
ATOM      5  N   UNL     1      11.572   7.863   3.204  0.00  0.00    -0.237 NA
ATOM      6  N   UNL     1      11.197   6.572   1.203  0.00  0.00    -0.232 NA
ATOM     15  C   UNL     1      12.897   7.702   3.015  0.00  0.00    +0.050 A 
ATOM     16  C   UNL     1      13.442   7.000   1.959  0.00  0.00    +0.052 A 
ATOM     18  C   UNL     1      12.535   6.451   1.076  0.00  0.00    +0.076 A 
ATOM     19  C   UNL     1      10.790   7.280   2.274  0.00  0.00    +0.127 A 
ATOM     24  C   UNL     1       9.318   7.434   2.451  0.00  0.00    +0.088 C 
BRANCH  18  23
ATOM      1 BR   UNL     1      12.904   3.316   1.586  0.00  0.00    -0.050 Br
ATOM     23  C   UNL     1      12.976   5.692  -0.070  0.00  0.00    +0.014 A 
ATOM     27  C   UNL     1      13.183   4.314  -0.008  0.00  0.00    +0.027 A 
ATOM     28  C   UNL     1      13.196   6.377  -1.265  0.00  0.00    +0.011 A 
ATOM     29  C   UNL     1      13.609   3.621  -1.142  0.00  0.00    +0.016 A 
ATOM     30  C   UNL     1      13.621   5.684  -2.398  0.00  0.00    +0.001 A 
ATOM     31  C   UNL     1      13.827   4.306  -2.337  0.00  0.00    +0.001 A 
ENDBRANCH  18  23
ENDBRANCH   8  15
BRANCH   9  14
ATOM     14  C   UNL     1      11.554   8.661   7.261  0.00  0.00    +0.123 C 
BRANCH  14   4
ATOM      2  O   UNL     1       8.853   8.028   8.010  0.00  0.00    -0.276 OA
ATOM      4  N   UNL     1      10.871   7.424   7.038  0.00  0.00    -0.314 N 
ATOM     17  C   UNL     1       9.554   7.197   7.435  0.00  0.00    +0.216 C 
ATOM     32  H   UNL     1      11.386   6.685   6.569  0.00  0.00    +0.149 HD
BRANCH  17  20
ATOM     20  C   UNL     1       9.062   5.786   7.096  0.00  0.00    +0.074 C 
BRANCH  20  21
ATOM     21  C   UNL     1       9.885   4.697   7.804  0.00  0.00    +0.009 C 
ATOM     25  C   UNL     1       9.445   4.482   9.248  0.00  0.00    +0.004 C 
ENDBRANCH  20  21
BRANCH  20  22
ATOM     22  C   UNL     1       9.034   5.587   5.567  0.00  0.00    +0.009 C 
ATOM     26  C   UNL     1      10.176   4.744   5.013  0.00  0.00    +0.004 C 
ENDBRANCH  20  22
ENDBRANCH  17  20
ENDBRANCH  14   4
ENDBRANCH   9  14
TORSDOF 7
ENDMDL
MODEL 9
REMARK VINA RESULT:      -5.2     32.819     35.164
REMARK  Name = 40777252
REMARK  10 active torsions:
REMARK  status: ('A' for Active; 'I' for Inactive)
REMARK    1  A    between atoms: N_4  and  C_14
REMARK    2  A    between atoms: C_8  and  C_15
REMARK    3  A    between atoms: C_9  and  C_14
REMARK    4  A    between atoms: C_17  and  C_20
REMARK    5  A    between atoms: C_18  and  C_23
REMARK    6  A    between atoms: C_19  and  C_24
REMARK    7  A    between atoms: C_20  and  C_21
REMARK    8  A    between atoms: C_20  and  C_22
REMARK    9  A    between atoms: C_21  and  C_25
REMARK   10  A    between atoms: C_22  and  C_26
REMARK                            x       y       z     vdW  Elec       q    Type
REMARK                         _______ _______ _______ _____ _____    ______ ____
ROOT
ATOM      3  N   UNL     1     -11.645  13.151  17.866  0.00  0.00    -0.297 NA
ATOM      7  C   UNL     1      -9.861  11.440  17.045  0.00  0.00    +0.002 C 
ATOM      8  C   UNL     1     -11.034  11.532  16.030  0.00  0.00    +0.055 C 
ATOM      9  C   UNL     1     -11.312  12.199  18.958  0.00  0.00    +0.074 C 
ATOM     10  C   UNL     1     -10.416  11.057  18.433  0.00  0.00    +0.024 C 
ATOM     11  C   UNL     1      -9.268  12.860  17.170  0.00  0.00    +0.019 C 
ATOM     12  C   UNL     1     -12.142  12.409  16.681  0.00  0.00    +0.094 C 
ATOM     13  C   UNL     1     -10.399  13.856  17.482  0.00  0.00    +0.085 C 
ENDROOT
BRANCH   8  15
ATOM      5  N   UNL     1     -10.693   9.380  14.920  0.00  0.00    -0.237 NA
ATOM      6  N   UNL     1     -12.522   7.900  14.397  0.00  0.00    -0.232 NA
ATOM     15  C   UNL     1     -11.588  10.238  15.451  0.00  0.00    +0.050 A 
ATOM     16  C   UNL     1     -12.947  10.001  15.493  0.00  0.00    +0.052 A 
ATOM     18  C   UNL     1     -13.361   8.804  14.945  0.00  0.00    +0.076 A 
ATOM     19  C   UNL     1     -11.221   8.247  14.417  0.00  0.00    +0.127 A 
ATOM     24  C   UNL     1     -10.263   7.275  13.818  0.00  0.00    +0.088 C 
BRANCH  18  23
ATOM      1 BR   UNL     1     -14.978   9.763  12.358  0.00  0.00    -0.050 Br
ATOM     23  C   UNL     1     -14.757   8.437  14.924  0.00  0.00    +0.014 A 
ATOM     27  C   UNL     1     -15.596   8.781  13.864  0.00  0.00    +0.027 A 
ATOM     28  C   UNL     1     -15.261   7.716  16.006  0.00  0.00    +0.011 A 
ATOM     29  C   UNL     1     -16.939   8.405  13.887  0.00  0.00    +0.016 A 
ATOM     30  C   UNL     1     -16.604   7.339  16.029  0.00  0.00    +0.001 A 
ATOM     31  C   UNL     1     -17.443   7.683  14.969  0.00  0.00    +0.001 A 
ENDBRANCH  18  23
ENDBRANCH   8  15
BRANCH   9  14
ATOM     14  C   UNL     1     -12.559  11.665  19.667  0.00  0.00    +0.123 C 
BRANCH  14   4
ATOM      2  O   UNL     1     -12.565   9.645  21.711  0.00  0.00    -0.276 OA
ATOM      4  N   UNL     1     -12.691  10.253  19.476  0.00  0.00    -0.314 N 
ATOM     17  C   UNL     1     -12.684   9.337  20.527  0.00  0.00    +0.216 C 
ATOM     32  H   UNL     1     -12.791   9.920  18.523  0.00  0.00    +0.149 HD
BRANCH  17  20
ATOM     20  C   UNL     1     -12.823   7.886  20.056  0.00  0.00    +0.074 C 
BRANCH  20  21
ATOM     21  C   UNL     1     -11.903   6.931  20.834  0.00  0.00    +0.009 C 
ATOM     25  C   UNL     1     -12.682   5.868  21.601  0.00  0.00    +0.004 C 
ENDBRANCH  20  21
BRANCH  20  22
ATOM     22  C   UNL     1     -12.593   7.797  18.533  0.00  0.00    +0.009 C 
ATOM     26  C   UNL     1     -11.172   7.431  18.124  0.00  0.00    +0.004 C 
ENDBRANCH  20  22
ENDBRANCH  17  20
ENDBRANCH  14   4
ENDBRANCH   9  14
TORSDOF 7
ENDMDL
MODEL 10
REMARK VINA RESULT:      -5.2     25.385     27.779
REMARK  Name = 40777252
REMARK  10 active torsions:
REMARK  status: ('A' for Active; 'I' for Inactive)
REMARK    1  A    between atoms: N_4  and  C_14
REMARK    2  A    between atoms: C_8  and  C_15
REMARK    3  A    between atoms: C_9  and  C_14
REMARK    4  A    between atoms: C_17  and  C_20
REMARK    5  A    between atoms: C_18  and  C_23
REMARK    6  A    between atoms: C_19  and  C_24
REMARK    7  A    between atoms: C_20  and  C_21
REMARK    8  A    between atoms: C_20  and  C_22
REMARK    9  A    between atoms: C_21  and  C_25
REMARK   10  A    between atoms: C_22  and  C_26
REMARK                            x       y       z     vdW  Elec       q    Type
REMARK                         _______ _______ _______ _____ _____    ______ ____
ROOT
ATOM      3  N   UNL     1      -5.692 -10.681   9.591  0.00  0.00    -0.297 NA
ATOM      7  C   UNL     1      -3.871  -9.202  10.722  0.00  0.00    +0.002 C 
ATOM      8  C   UNL     1      -3.564 -10.709  10.945  0.00  0.00    +0.055 C 
ATOM      9  C   UNL     1      -6.335  -9.635  10.429  0.00  0.00    +0.074 C 
ATOM     10  C   UNL     1      -5.279  -8.882  11.267  0.00  0.00    +0.024 C 
ATOM     11  C   UNL     1      -3.914  -8.978   9.195  0.00  0.00    +0.019 C 
ATOM     12  C   UNL     1      -4.788 -11.513  10.424  0.00  0.00    +0.094 C 
ATOM     13  C   UNL     1      -4.874  -9.999   8.560  0.00  0.00    +0.085 C 
ENDROOT
BRANCH   8  15
ATOM      5  N   UNL     1      -2.351 -10.300  13.029  0.00  0.00    -0.237 NA
ATOM      6  N   UNL     1      -2.315 -11.903  14.830  0.00  0.00    -0.232 NA
ATOM     15  C   UNL     1      -3.129 -11.155  12.334  0.00  0.00    +0.050 A 
ATOM     16  C   UNL     1      -3.536 -12.384  12.812  0.00  0.00    +0.052 A 
ATOM     18  C   UNL     1      -3.094 -12.708  14.078  0.00  0.00    +0.076 A 
ATOM     19  C   UNL     1      -1.986 -10.731  14.253  0.00  0.00    +0.127 A 
ATOM     24  C   UNL     1      -1.123  -9.814  15.051  0.00  0.00    +0.088 C 
BRANCH  18  23
ATOM      1 BR   UNL     1      -1.144 -15.149  13.397  0.00  0.00    -0.050 Br
ATOM     23  C   UNL     1      -3.448 -13.965  14.692  0.00  0.00    +0.014 A 
ATOM     27  C   UNL     1      -2.697 -15.123  14.493  0.00  0.00    +0.027 A 
ATOM     28  C   UNL     1      -4.581 -14.001  15.506  0.00  0.00    +0.011 A 
ATOM     29  C   UNL     1      -3.078 -16.317  15.108  0.00  0.00    +0.016 A 
ATOM     30  C   UNL     1      -4.962 -15.194  16.121  0.00  0.00    +0.001 A 
ATOM     31  C   UNL     1      -4.209 -16.351  15.922  0.00  0.00    +0.001 A 
ENDBRANCH  18  23
ENDBRANCH   8  15
BRANCH   9  14
ATOM     14  C   UNL     1      -7.460 -10.195  11.301  0.00  0.00    +0.123 C 
BRANCH  14   4
ATOM      2  O   UNL     1      -9.169  -9.760  13.569  0.00  0.00    -0.276 OA
ATOM      4  N   UNL     1      -7.076 -10.218  12.679  0.00  0.00    -0.314 N 
ATOM     17  C   UNL     1      -7.972  -9.996  13.724  0.00  0.00    +0.216 C 
ATOM     32  H   UNL     1      -6.101 -10.405  12.888  0.00  0.00    +0.149 HD
BRANCH  17  20
ATOM     20  C   UNL     1      -7.309 -10.057  15.103  0.00  0.00    +0.074 C 
BRANCH  20  21
ATOM     21  C   UNL     1      -5.806 -10.371  15.012  0.00  0.00    +0.009 C 
ATOM     25  C   UNL     1      -5.060 -10.021  16.295  0.00  0.00    +0.004 C 
ENDBRANCH  20  21
BRANCH  20  22
ATOM     22  C   UNL     1      -8.054 -11.061  16.007  0.00  0.00    +0.009 C 
ATOM     26  C   UNL     1      -8.668 -10.455  17.262  0.00  0.00    +0.004 C 
ENDBRANCH  20  22
ENDBRANCH  17  20
ENDBRANCH  14   4
ENDBRANCH   9  14
TORSDOF 7
ENDMDL
