MODEL 1
REMARK VINA RESULT:      -6.7      0.000      0.000
REMARK  Name = 75367086
REMARK  6 active torsions:
REMARK  status: ('A' for Active; 'I' for Inactive)
REMARK    1  A    between atoms: O_3  and  C_12
REMARK    2  A    between atoms: N_5  and  C_7
REMARK    3  A    between atoms: N_5  and  C_8
REMARK    4  A    between atoms: N_6  and  C_15
REMARK    5  A    between atoms: C_13  and  C_15
REMARK    6  A    between atoms: C_16  and  C_17
REMARK                            x       y       z     vdW  Elec       q    Type
REMARK                         _______ _______ _______ _____ _____    ______ ____
ROOT
ATOM      2  O   UNL     1      12.398   9.455  21.559  0.00  0.00    -0.371 OA
ATOM      8  C   UNL     1      11.948   7.729  19.989  0.00  0.00    +0.111 C 
ATOM     12  C   UNL     1      13.366   7.571  20.505  0.00  0.00    +0.164 C 
ATOM     13  C   UNL     1      13.294   8.358  21.806  0.00  0.00    +0.165 C 
ATOM     14  C   UNL     1      11.651   9.174  20.361  0.00  0.00    +0.181 C 
ENDROOT
BRANCH  12   3
ATOM      3  O   UNL     1      13.720   6.220  20.725  0.00  0.00    -0.388 OA
ATOM     24  H   UNL     1      14.549   6.201  21.232  0.00  0.00    +0.210 HD
ENDBRANCH  12   3
BRANCH   8   5
ATOM      5  N   UNL     1      11.813   7.474  18.563  0.00  0.00    -0.306 NA
ATOM     23  H   UNL     1      10.959   6.936  18.415  0.00  0.00    +0.123 HD
BRANCH   5   7
ATOM      7  C   UNL     1      11.822   8.737  17.839  0.00  0.00    +0.054 C 
ATOM      9  C   UNL     1      10.819   8.659  16.668  0.00  0.00    +0.019 C 
ATOM     10  C   UNL     1      12.946   8.710  16.781  0.00  0.00    +0.019 C 
ATOM     11  C   UNL     1      11.917   9.313  15.799  0.00  0.00    +0.003 C 
ENDBRANCH   5   7
ENDBRANCH   8   5
BRANCH  13  15
ATOM     15  C   UNL     1      14.641   8.891  22.261  0.00  0.00    +0.138 C 
BRANCH  15   6
ATOM      4  O   UNL     1      17.196   9.601  21.160  0.00  0.00    -0.270 OA
ATOM      6  N   UNL     1      15.703   7.992  21.910  0.00  0.00    -0.309 N 
ATOM     16  C   UNL     1      16.914   8.427  21.379  0.00  0.00    +0.244 C 
ATOM     25  H   UNL     1      15.507   7.001  22.001  0.00  0.00    +0.149 HD
BRANCH  16  17
ATOM      1  F   UNL     1      20.640   4.423  20.110  0.00  0.00    -0.205 F 
ATOM     17  C   UNL     1      17.900   7.367  21.044  0.00  0.00    +0.037 A 
ATOM     18  C   UNL     1      17.611   6.438  20.044  0.00  0.00    +0.016 A 
ATOM     19  C   UNL     1      19.114   7.302  21.728  0.00  0.00    +0.016 A 
ATOM     20  C   UNL     1      18.536   5.443  19.728  0.00  0.00    +0.039 A 
ATOM     21  C   UNL     1      20.039   6.307  21.412  0.00  0.00    +0.039 A 
ATOM     22  C   UNL     1      19.750   5.378  20.412  0.00  0.00    +0.123 A 
ENDBRANCH  16  17
ENDBRANCH  15   6
ENDBRANCH  13  15
TORSDOF 6
ENDMDL
MODEL 2
REMARK VINA RESULT:      -6.4      4.146      7.225
REMARK  Name = 75367086
REMARK  6 active torsions:
REMARK  status: ('A' for Active; 'I' for Inactive)
REMARK    1  A    between atoms: O_3  and  C_12
REMARK    2  A    between atoms: N_5  and  C_7
REMARK    3  A    between atoms: N_5  and  C_8
REMARK    4  A    between atoms: N_6  and  C_15
REMARK    5  A    between atoms: C_13  and  C_15
REMARK    6  A    between atoms: C_16  and  C_17
REMARK                            x       y       z     vdW  Elec       q    Type
REMARK                         _______ _______ _______ _____ _____    ______ ____
ROOT
ATOM      2  O   UNL     1      13.100   9.258  19.521  0.00  0.00    -0.371 OA
ATOM      8  C   UNL     1      14.108   7.116  19.331  0.00  0.00    +0.111 C 
ATOM     12  C   UNL     1      12.708   6.956  19.893  0.00  0.00    +0.164 C 
ATOM     13  C   UNL     1      12.064   8.264  19.454  0.00  0.00    +0.165 C 
ATOM     14  C   UNL     1      14.372   8.590  19.595  0.00  0.00    +0.181 C 
ENDROOT
BRANCH  12   3
ATOM      3  O   UNL     1      12.032   5.832  19.364  0.00  0.00    -0.388 OA
ATOM     24  H   UNL     1      11.322   5.585  19.981  0.00  0.00    +0.210 HD
ENDBRANCH  12   3
BRANCH   8   5
ATOM      5  N   UNL     1      15.091   6.244  19.956  0.00  0.00    -0.306 NA
ATOM     23  H   UNL     1      15.005   5.317  19.538  0.00  0.00    +0.123 HD
BRANCH   5   7
ATOM      7  C   UNL     1      16.420   6.817  19.798  0.00  0.00    +0.054 C 
ATOM      9  C   UNL     1      17.315   5.822  19.029  0.00  0.00    +0.019 C 
ATOM     10  C   UNL     1      17.265   6.495  21.049  0.00  0.00    +0.019 C 
ATOM     11  C   UNL     1      18.408   6.130  20.076  0.00  0.00    +0.003 C 
ENDBRANCH   5   7
ENDBRANCH   8   5
BRANCH  13  15
ATOM     15  C   UNL     1      10.896   8.681  20.329  0.00  0.00    +0.138 C 
BRANCH  15   6
ATOM      4  O   UNL     1      10.699   8.799  23.191  0.00  0.00    -0.270 OA
ATOM      6  N   UNL     1      11.242   9.793  21.167  0.00  0.00    -0.309 N 
ATOM     16  C   UNL     1      11.114   9.761  22.553  0.00  0.00    +0.244 C 
ATOM     25  H   UNL     1      11.525  10.646  20.696  0.00  0.00    +0.149 HD
BRANCH  16  17
ATOM      1  F   UNL     1      12.541  14.455  25.284  0.00  0.00    -0.205 F 
ATOM     17  C   UNL     1      11.492  11.004  23.274  0.00  0.00    +0.037 A 
ATOM     18  C   UNL     1      11.084  11.192  24.595  0.00  0.00    +0.016 A 
ATOM     19  C   UNL     1      12.253  11.980  22.633  0.00  0.00    +0.016 A 
ATOM     20  C   UNL     1      11.439  12.358  25.275  0.00  0.00    +0.039 A 
ATOM     21  C   UNL     1      12.607  13.146  23.312  0.00  0.00    +0.039 A 
ATOM     22  C   UNL     1      12.200  13.335  24.632  0.00  0.00    +0.123 A 
ENDBRANCH  16  17
ENDBRANCH  15   6
ENDBRANCH  13  15
TORSDOF 6
ENDMDL
MODEL 3
REMARK VINA RESULT:      -6.2      3.678      7.814
REMARK  Name = 75367086
REMARK  6 active torsions:
REMARK  status: ('A' for Active; 'I' for Inactive)
REMARK    1  A    between atoms: O_3  and  C_12
REMARK    2  A    between atoms: N_5  and  C_7
REMARK    3  A    between atoms: N_5  and  C_8
REMARK    4  A    between atoms: N_6  and  C_15
REMARK    5  A    between atoms: C_13  and  C_15
REMARK    6  A    between atoms: C_16  and  C_17
REMARK                            x       y       z     vdW  Elec       q    Type
REMARK                         _______ _______ _______ _____ _____    ______ ____
ROOT
ATOM      2  O   UNL     1      15.802   6.177  19.054  0.00  0.00    -0.371 OA
ATOM      8  C   UNL     1      16.932   6.615  21.097  0.00  0.00    +0.111 C 
ATOM     12  C   UNL     1      15.572   7.287  21.130  0.00  0.00    +0.164 C 
ATOM     13  C   UNL     1      14.828   6.496  20.062  0.00  0.00    +0.165 C 
ATOM     14  C   UNL     1      17.115   6.378  19.606  0.00  0.00    +0.181 C 
ENDROOT
BRANCH  12   3
ATOM      3  O   UNL     1      14.944   7.188  22.393  0.00  0.00    -0.388 OA
ATOM     24  H   UNL     1      14.107   6.706  22.280  0.00  0.00    +0.210 HD
ENDBRANCH  12   3
BRANCH   8   5
ATOM      5  N   UNL     1      17.995   7.421  21.676  0.00  0.00    -0.306 NA
ATOM     23  H   UNL     1      17.657   7.808  22.558  0.00  0.00    +0.123 HD
BRANCH   5   7
ATOM      7  C   UNL     1      19.191   6.607  21.836  0.00  0.00    +0.054 C 
ATOM      9  C   UNL     1      19.994   7.115  23.053  0.00  0.00    +0.019 C 
ATOM     10  C   UNL     1      20.318   7.177  20.948  0.00  0.00    +0.019 C 
ATOM     11  C   UNL     1      21.253   6.991  22.164  0.00  0.00    +0.003 C 
ENDBRANCH   5   7
ENDBRANCH   8   5
BRANCH  13  15
ATOM     15  C   UNL     1      13.677   7.266  19.438  0.00  0.00    +0.138 C 
BRANCH  15   6
ATOM      4  O   UNL     1      10.972   7.920  20.144  0.00  0.00    -0.270 OA
ATOM      6  N   UNL     1      13.249   8.342  20.284  0.00  0.00    -0.309 N 
ATOM     16  C   UNL     1      11.910   8.586  20.573  0.00  0.00    +0.244 C 
ATOM     25  H   UNL     1      13.970   8.974  20.615  0.00  0.00    +0.149 HD
BRANCH  16  17
ATOM      1  F   UNL     1      10.855  13.010  23.866  0.00  0.00    -0.205 F 
ATOM     17  C   UNL     1      11.631   9.757  21.446  0.00  0.00    +0.037 A 
ATOM     18  C   UNL     1      11.894  11.046  20.984  0.00  0.00    +0.016 A 
ATOM     19  C   UNL     1      11.106   9.565  22.723  0.00  0.00    +0.016 A 
ATOM     20  C   UNL     1      11.632  12.146  21.801  0.00  0.00    +0.039 A 
ATOM     21  C   UNL     1      10.844  10.665  23.541  0.00  0.00    +0.039 A 
ATOM     22  C   UNL     1      11.107  11.955  23.080  0.00  0.00    +0.123 A 
ENDBRANCH  16  17
ENDBRANCH  15   6
ENDBRANCH  13  15
TORSDOF 6
ENDMDL
MODEL 4
REMARK VINA RESULT:      -6.0     26.464     28.011
REMARK  Name = 75367086
REMARK  6 active torsions:
REMARK  status: ('A' for Active; 'I' for Inactive)
REMARK    1  A    between atoms: O_3  and  C_12
REMARK    2  A    between atoms: N_5  and  C_7
REMARK    3  A    between atoms: N_5  and  C_8
REMARK    4  A    between atoms: N_6  and  C_15
REMARK    5  A    between atoms: C_13  and  C_15
REMARK    6  A    between atoms: C_16  and  C_17
REMARK                            x       y       z     vdW  Elec       q    Type
REMARK                         _______ _______ _______ _____ _____    ______ ____
ROOT
ATOM      2  O   UNL     1      -4.766 -11.135  18.706  0.00  0.00    -0.371 OA
ATOM      8  C   UNL     1      -6.849 -10.312  17.916  0.00  0.00    +0.111 C 
ATOM     12  C   UNL     1      -5.816 -10.184  16.812  0.00  0.00    +0.164 C 
ATOM     13  C   UNL     1      -4.772 -11.193  17.269  0.00  0.00    +0.165 C 
ATOM     14  C   UNL     1      -5.962 -10.466  19.141  0.00  0.00    +0.181 C 
ENDROOT
BRANCH  12   3
ATOM      3  O   UNL     1      -6.336 -10.506  15.536  0.00  0.00    -0.388 OA
ATOM     24  H   UNL     1      -6.765 -11.377  15.593  0.00  0.00    +0.210 HD
ENDBRANCH  12   3
BRANCH   8   5
ATOM      5  N   UNL     1      -7.748  -9.172  18.007  0.00  0.00    -0.306 NA
ATOM     23  H   UNL     1      -7.300  -8.375  17.553  0.00  0.00    +0.123 HD
BRANCH   5   7
ATOM      7  C   UNL     1      -9.032  -9.515  17.414  0.00  0.00    +0.054 C 
ATOM      9  C   UNL     1      -9.934  -8.262  17.393  0.00  0.00    +0.019 C 
ATOM     10  C   UNL     1      -9.965 -10.078  18.508  0.00  0.00    +0.019 C 
ATOM     11  C   UNL     1     -11.068  -9.177  17.908  0.00  0.00    +0.003 C 
ENDBRANCH   5   7
ENDBRANCH   8   5
BRANCH  13  15
ATOM     15  C   UNL     1      -3.380 -10.900  16.739  0.00  0.00    +0.138 C 
BRANCH  15   6
ATOM      4  O   UNL     1      -2.518 -12.333  14.404  0.00  0.00    -0.270 OA
ATOM      6  N   UNL     1      -3.425 -10.436  15.382  0.00  0.00    -0.309 N 
ATOM     16  C   UNL     1      -2.983 -11.202  14.308  0.00  0.00    +0.244 C 
ATOM     25  H   UNL     1      -3.734  -9.480  15.240  0.00  0.00    +0.149 HD
BRANCH  16  17
ATOM      1  F   UNL     1      -3.332  -8.797   9.246  0.00  0.00    -0.205 F 
ATOM     17  C   UNL     1      -3.075 -10.566  12.968  0.00  0.00    +0.037 A 
ATOM     18  C   UNL     1      -4.324 -10.334  12.391  0.00  0.00    +0.016 A 
ATOM     19  C   UNL     1      -1.913 -10.200  12.288  0.00  0.00    +0.016 A 
ATOM     20  C   UNL     1      -4.411  -9.737  11.134  0.00  0.00    +0.039 A 
ATOM     21  C   UNL     1      -2.001  -9.603  11.030  0.00  0.00    +0.039 A 
ATOM     22  C   UNL     1      -3.250  -9.371  10.454  0.00  0.00    +0.123 A 
ENDBRANCH  16  17
ENDBRANCH  15   6
ENDBRANCH  13  15
TORSDOF 6
ENDMDL
MODEL 5
REMARK VINA RESULT:      -6.0      5.010      7.887
REMARK  Name = 75367086
REMARK  6 active torsions:
REMARK  status: ('A' for Active; 'I' for Inactive)
REMARK    1  A    between atoms: O_3  and  C_12
REMARK    2  A    between atoms: N_5  and  C_7
REMARK    3  A    between atoms: N_5  and  C_8
REMARK    4  A    between atoms: N_6  and  C_15
REMARK    5  A    between atoms: C_13  and  C_15
REMARK    6  A    between atoms: C_16  and  C_17
REMARK                            x       y       z     vdW  Elec       q    Type
REMARK                         _______ _______ _______ _____ _____    ______ ____
ROOT
ATOM      2  O   UNL     1      12.415   8.827  18.845  0.00  0.00    -0.371 OA
ATOM      8  C   UNL     1      13.243   7.121  20.275  0.00  0.00    +0.111 C 
ATOM     12  C   UNL     1      13.314   8.451  21.000  0.00  0.00    +0.164 C 
ATOM     13  C   UNL     1      12.305   9.271  20.208  0.00  0.00    +0.165 C 
ATOM     14  C   UNL     1      13.119   7.572  18.828  0.00  0.00    +0.181 C 
ENDROOT
BRANCH  12   3
ATOM      3  O   UNL     1      12.956   8.350  22.365  0.00  0.00    -0.388 OA
ATOM     24  H   UNL     1      12.395   9.112  22.590  0.00  0.00    +0.210 HD
ENDBRANCH  12   3
BRANCH   8   5
ATOM      5  N   UNL     1      14.401   6.269  20.504  0.00  0.00    -0.306 NA
ATOM     23  H   UNL     1      14.278   5.412  19.964  0.00  0.00    +0.123 HD
BRANCH   5   7
ATOM      7  C   UNL     1      15.614   6.992  20.153  0.00  0.00    +0.054 C 
ATOM      9  C   UNL     1      16.457   6.132  19.186  0.00  0.00    +0.019 C 
ATOM     10  C   UNL     1      16.696   6.721  21.220  0.00  0.00    +0.019 C 
ATOM     11  C   UNL     1      17.681   6.521  20.045  0.00  0.00    +0.003 C 
ENDBRANCH   5   7
ENDBRANCH   8   5
BRANCH  13  15
ATOM     15  C   UNL     1      12.556  10.767  20.281  0.00  0.00    +0.138 C 
BRANCH  15   6
ATOM      4  O   UNL     1      11.406  13.358  20.741  0.00  0.00    -0.270 OA
ATOM      6  N   UNL     1      12.134  11.306  21.542  0.00  0.00    -0.309 N 
ATOM     16  C   UNL     1      11.585  12.578  21.672  0.00  0.00    +0.244 C 
ATOM     25  H   UNL     1      12.320  10.739  22.362  0.00  0.00    +0.149 HD
BRANCH  16  17
ATOM      1  F   UNL     1      10.215  14.166  26.880  0.00  0.00    -0.205 F 
ATOM     17  C   UNL     1      11.223  12.997  23.051  0.00  0.00    +0.037 A 
ATOM     18  C   UNL     1      10.970  14.342  23.325  0.00  0.00    +0.016 A 
ATOM     19  C   UNL     1      11.135  12.048  24.069  0.00  0.00    +0.016 A 
ATOM     20  C   UNL     1      10.629  14.737  24.619  0.00  0.00    +0.039 A 
ATOM     21  C   UNL     1      10.795  12.444  25.363  0.00  0.00    +0.039 A 
ATOM     22  C   UNL     1      10.542  13.788  25.637  0.00  0.00    +0.123 A 
ENDBRANCH  16  17
ENDBRANCH  15   6
ENDBRANCH  13  15
TORSDOF 6
ENDMDL
MODEL 6
REMARK VINA RESULT:      -5.9     26.155     27.962
REMARK  Name = 75367086
REMARK  6 active torsions:
REMARK  status: ('A' for Active; 'I' for Inactive)
REMARK    1  A    between atoms: O_3  and  C_12
REMARK    2  A    between atoms: N_5  and  C_7
REMARK    3  A    between atoms: N_5  and  C_8
REMARK    4  A    between atoms: N_6  and  C_15
REMARK    5  A    between atoms: C_13  and  C_15
REMARK    6  A    between atoms: C_16  and  C_17
REMARK                            x       y       z     vdW  Elec       q    Type
REMARK                         _______ _______ _______ _____ _____    ______ ____
ROOT
ATOM      2  O   UNL     1      -1.293 -11.427  15.132  0.00  0.00    -0.371 OA
ATOM      8  C   UNL     1      -3.366 -11.398  16.291  0.00  0.00    +0.111 C 
ATOM     12  C   UNL     1      -3.571 -12.033  14.929  0.00  0.00    +0.164 C 
ATOM     13  C   UNL     1      -2.146 -12.444  14.581  0.00  0.00    +0.165 C 
ATOM     14  C   UNL     1      -2.051 -10.663  16.087  0.00  0.00    +0.181 C 
ENDROOT
BRANCH  12   3
ATOM      3  O   UNL     1      -4.445 -13.144  14.969  0.00  0.00    -0.388 OA
ATOM     24  H   UNL     1      -3.972 -13.890  15.377  0.00  0.00    +0.210 HD
ENDBRANCH  12   3
BRANCH   8   5
ATOM      5  N   UNL     1      -4.451 -10.515  16.692  0.00  0.00    -0.306 NA
ATOM     23  H   UNL     1      -5.275 -10.750  16.136  0.00  0.00    +0.123 HD
BRANCH   5   7
ATOM      7  C   UNL     1      -4.678 -10.642  18.124  0.00  0.00    +0.054 C 
ATOM      9  C   UNL     1      -4.780 -12.138  18.493  0.00  0.00    +0.019 C 
ATOM     10  C   UNL     1      -6.192 -10.545  18.411  0.00  0.00    +0.019 C 
ATOM     11  C   UNL     1      -6.003 -11.753  19.355  0.00  0.00    +0.003 C 
ENDBRANCH   5   7
ENDBRANCH   8   5
BRANCH  13  15
ATOM     15  C   UNL     1      -1.903 -12.561  13.086  0.00  0.00    +0.138 C 
BRANCH  15   6
ATOM      4  O   UNL     1      -1.438  -9.962  11.959  0.00  0.00    -0.270 OA
ATOM      6  N   UNL     1      -2.840 -11.769  12.341  0.00  0.00    -0.309 N 
ATOM     16  C   UNL     1      -2.526 -10.514  11.830  0.00  0.00    +0.244 C 
ATOM     25  H   UNL     1      -3.781 -12.138  12.260  0.00  0.00    +0.149 HD
BRANCH  16  17
ATOM      1  F   UNL     1      -6.645  -7.859   9.090  0.00  0.00    -0.205 F 
ATOM     17  C   UNL     1      -3.616  -9.811  11.104  0.00  0.00    +0.037 A 
ATOM     18  C   UNL     1      -4.862  -9.648  11.709  0.00  0.00    +0.016 A 
ATOM     19  C   UNL     1      -3.393  -9.316   9.820  0.00  0.00    +0.016 A 
ATOM     20  C   UNL     1      -5.886  -8.988  11.029  0.00  0.00    +0.039 A 
ATOM     21  C   UNL     1      -4.417  -8.657   9.139  0.00  0.00    +0.039 A 
ATOM     22  C   UNL     1      -5.663  -8.493   9.744  0.00  0.00    +0.123 A 
ENDBRANCH  16  17
ENDBRANCH  15   6
ENDBRANCH  13  15
TORSDOF 6
ENDMDL
MODEL 7
REMARK VINA RESULT:      -5.8      4.421      6.501
REMARK  Name = 75367086
REMARK  6 active torsions:
REMARK  status: ('A' for Active; 'I' for Inactive)
REMARK    1  A    between atoms: O_3  and  C_12
REMARK    2  A    between atoms: N_5  and  C_7
REMARK    3  A    between atoms: N_5  and  C_8
REMARK    4  A    between atoms: N_6  and  C_15
REMARK    5  A    between atoms: C_13  and  C_15
REMARK    6  A    between atoms: C_16  and  C_17
REMARK                            x       y       z     vdW  Elec       q    Type
REMARK                         _______ _______ _______ _____ _____    ______ ____
ROOT
ATOM      2  O   UNL     1      12.256   7.840  21.601  0.00  0.00    -0.371 OA
ATOM      8  C   UNL     1      12.570   6.812  19.483  0.00  0.00    +0.111 C 
ATOM     12  C   UNL     1      13.876   7.444  19.924  0.00  0.00    +0.164 C 
ATOM     13  C   UNL     1      13.654   7.558  21.426  0.00  0.00    +0.165 C 
ATOM     14  C   UNL     1      11.570   7.532  20.374  0.00  0.00    +0.181 C 
ENDROOT
BRANCH  12   3
ATOM      3  O   UNL     1      15.002   6.645  19.616  0.00  0.00    -0.388 OA
ATOM     24  H   UNL     1      15.116   5.991  20.328  0.00  0.00    +0.210 HD
ENDBRANCH  12   3
BRANCH   8   5
ATOM      5  N   UNL     1      12.289   6.981  18.066  0.00  0.00    -0.306 NA
ATOM     23  H   UNL     1      11.365   6.592  17.875  0.00  0.00    +0.123 HD
BRANCH   5   7
ATOM      7  C   UNL     1      12.395   8.390  17.713  0.00  0.00    +0.054 C 
ATOM      9  C   UNL     1      11.295   8.742  16.688  0.00  0.00    +0.019 C 
ATOM     10  C   UNL     1      13.413   8.553  16.565  0.00  0.00    +0.019 C 
ATOM     11  C   UNL     1      12.389   9.504  15.907  0.00  0.00    +0.003 C 
ENDBRANCH   5   7
ENDBRANCH   8   5
BRANCH  13  15
ATOM     15  C   UNL     1      14.483   8.653  22.074  0.00  0.00    +0.138 C 
BRANCH  15   6
ATOM      4  O   UNL     1      13.513  11.195  21.157  0.00  0.00    -0.270 OA
ATOM      6  N   UNL     1      13.656   9.570  22.805  0.00  0.00    -0.309 N 
ATOM     16  C   UNL     1      13.231  10.786  22.279  0.00  0.00    +0.244 C 
ATOM     25  H   UNL     1      13.446   9.323  23.767  0.00  0.00    +0.149 HD
BRANCH  16  17
ATOM      1  F   UNL     1      10.098  13.986  25.665  0.00  0.00    -0.205 F 
ATOM     17  C   UNL     1      12.401  11.633  23.175  0.00  0.00    +0.037 A 
ATOM     18  C   UNL     1      12.702  11.711  24.534  0.00  0.00    +0.016 A 
ATOM     19  C   UNL     1      11.323  12.349  22.656  0.00  0.00    +0.016 A 
ATOM     20  C   UNL     1      11.924  12.506  25.376  0.00  0.00    +0.039 A 
ATOM     21  C   UNL     1      10.545  13.144  23.498  0.00  0.00    +0.039 A 
ATOM     22  C   UNL     1      10.846  13.222  24.858  0.00  0.00    +0.123 A 
ENDBRANCH  16  17
ENDBRANCH  15   6
ENDBRANCH  13  15
TORSDOF 6
ENDMDL
MODEL 8
REMARK VINA RESULT:      -5.8     31.840     32.770
REMARK  Name = 75367086
REMARK  6 active torsions:
REMARK  status: ('A' for Active; 'I' for Inactive)
REMARK    1  A    between atoms: O_3  and  C_12
REMARK    2  A    between atoms: N_5  and  C_7
REMARK    3  A    between atoms: N_5  and  C_8
REMARK    4  A    between atoms: N_6  and  C_15
REMARK    5  A    between atoms: C_13  and  C_15
REMARK    6  A    between atoms: C_16  and  C_17
REMARK                            x       y       z     vdW  Elec       q    Type
REMARK                         _______ _______ _______ _____ _____    ______ ____
ROOT
ATOM      2  O   UNL     1     -16.562   0.301  29.014  0.00  0.00    -0.371 OA
ATOM      8  C   UNL     1     -16.499   2.255  27.665  0.00  0.00    +0.111 C 
ATOM     12  C   UNL     1     -15.777   2.532  28.971  0.00  0.00    +0.164 C 
ATOM     13  C   UNL     1     -15.456   1.117  29.433  0.00  0.00    +0.165 C 
ATOM     14  C   UNL     1     -17.318   1.027  28.028  0.00  0.00    +0.181 C 
ENDROOT
BRANCH  12   3
ATOM      3  O   UNL     1     -14.608   3.308  28.795  0.00  0.00    -0.388 OA
ATOM     24  H   UNL     1     -14.754   4.177  29.207  0.00  0.00    +0.210 HD
ENDBRANCH  12   3
BRANCH   8   5
ATOM      5  N   UNL     1     -17.318   3.366  27.205  0.00  0.00    -0.306 NA
ATOM     23  H   UNL     1     -16.996   4.215  27.671  0.00  0.00    +0.123 HD
BRANCH   5   7
ATOM      7  C   UNL     1     -17.248   3.454  25.754  0.00  0.00    +0.054 C 
ATOM      9  C   UNL     1     -15.773   3.352  25.308  0.00  0.00    +0.019 C 
ATOM     10  C   UNL     1     -17.195   4.939  25.336  0.00  0.00    +0.019 C 
ATOM     11  C   UNL     1     -16.070   4.533  24.357  0.00  0.00    +0.003 C 
ENDBRANCH   5   7
ENDBRANCH   8   5
BRANCH  13  15
ATOM     15  C   UNL     1     -15.276   1.003  30.937  0.00  0.00    +0.138 C 
BRANCH  15   6
ATOM      4  O   UNL     1     -14.505   1.501  33.658  0.00  0.00    -0.270 OA
ATOM      6  N   UNL     1     -14.985   2.278  31.526  0.00  0.00    -0.309 N 
ATOM     16  C   UNL     1     -14.617   2.426  32.860  0.00  0.00    +0.244 C 
ATOM     25  H   UNL     1     -15.127   3.093  30.938  0.00  0.00    +0.149 HD
BRANCH  16  17
ATOM      1  F   UNL     1     -13.703   7.685  34.603  0.00  0.00    -0.205 F 
ATOM     17  C   UNL     1     -14.375   3.818  33.322  0.00  0.00    +0.037 A 
ATOM     18  C   UNL     1     -14.104   4.822  32.393  0.00  0.00    +0.016 A 
ATOM     19  C   UNL     1     -14.420   4.119  34.683  0.00  0.00    +0.016 A 
ATOM     20  C   UNL     1     -13.877   6.129  32.825  0.00  0.00    +0.039 A 
ATOM     21  C   UNL     1     -14.192   5.426  35.116  0.00  0.00    +0.039 A 
ATOM     22  C   UNL     1     -13.921   6.430  34.186  0.00  0.00    +0.123 A 
ENDBRANCH  16  17
ENDBRANCH  15   6
ENDBRANCH  13  15
TORSDOF 6
ENDMDL
MODEL 9
REMARK VINA RESULT:      -5.7     28.757     31.515
REMARK  Name = 75367086
REMARK  6 active torsions:
REMARK  status: ('A' for Active; 'I' for Inactive)
REMARK    1  A    between atoms: O_3  and  C_12
REMARK    2  A    between atoms: N_5  and  C_7
REMARK    3  A    between atoms: N_5  and  C_8
REMARK    4  A    between atoms: N_6  and  C_15
REMARK    5  A    between atoms: C_13  and  C_15
REMARK    6  A    between atoms: C_16  and  C_17
REMARK                            x       y       z     vdW  Elec       q    Type
REMARK                         _______ _______ _______ _____ _____    ______ ____
ROOT
ATOM      2  O   UNL     1     -17.488   1.766  25.347  0.00  0.00    -0.371 OA
ATOM      8  C   UNL     1     -16.432   3.208  26.911  0.00  0.00    +0.111 C 
ATOM     12  C   UNL     1     -16.133   3.698  25.506  0.00  0.00    +0.164 C 
ATOM     13  C   UNL     1     -17.259   3.039  24.721  0.00  0.00    +0.165 C 
ATOM     14  C   UNL     1     -16.867   1.776  26.644  0.00  0.00    +0.181 C 
ENDROOT
BRANCH  12   3
ATOM      3  O   UNL     1     -16.171   5.108  25.399  0.00  0.00    -0.388 OA
ATOM     24  H   UNL     1     -16.217   5.481  26.297  0.00  0.00    +0.210 HD
ENDBRANCH  12   3
BRANCH   8   5
ATOM      5  N   UNL     1     -15.295   3.296  27.814  0.00  0.00    -0.306 NA
ATOM     23  H   UNL     1     -14.907   4.238  27.748  0.00  0.00    +0.123 HD
BRANCH   5   7
ATOM      7  C   UNL     1     -15.716   2.948  29.163  0.00  0.00    +0.054 C 
ATOM      9  C   UNL     1     -15.213   4.027  30.147  0.00  0.00    +0.019 C 
ATOM     10  C   UNL     1     -14.677   1.996  29.792  0.00  0.00    +0.019 C 
ATOM     11  C   UNL     1     -14.782   2.863  31.067  0.00  0.00    +0.003 C 
ENDBRANCH   5   7
ENDBRANCH   8   5
BRANCH  13  15
ATOM     15  C   UNL     1     -16.927   2.836  23.253  0.00  0.00    +0.138 C 
BRANCH  15   6
ATOM      4  O   UNL     1     -17.082   5.184  21.607  0.00  0.00    -0.270 OA
ATOM      6  N   UNL     1     -15.834   3.670  22.844  0.00  0.00    -0.309 N 
ATOM     16  C   UNL     1     -16.003   4.794  22.041  0.00  0.00    +0.244 C 
ATOM     25  H   UNL     1     -14.905   3.363  23.111  0.00  0.00    +0.149 HD
BRANCH  16  17
ATOM      1  F   UNL     1     -11.331   7.604  20.697  0.00  0.00    -0.205 F 
ATOM     17  C   UNL     1     -14.766   5.537  21.686  0.00  0.00    +0.037 A 
ATOM     18  C   UNL     1     -14.852   6.723  20.956  0.00  0.00    +0.016 A 
ATOM     19  C   UNL     1     -13.521   5.050  22.082  0.00  0.00    +0.016 A 
ATOM     20  C   UNL     1     -13.692   7.422  20.622  0.00  0.00    +0.039 A 
ATOM     21  C   UNL     1     -12.360   5.748  21.747  0.00  0.00    +0.039 A 
ATOM     22  C   UNL     1     -12.446   6.934  21.018  0.00  0.00    +0.123 A 
ENDBRANCH  16  17
ENDBRANCH  15   6
ENDBRANCH  13  15
TORSDOF 6
ENDMDL
MODEL 10
REMARK VINA RESULT:      -5.7     29.227     31.695
REMARK  Name = 75367086
REMARK  6 active torsions:
REMARK  status: ('A' for Active; 'I' for Inactive)
REMARK    1  A    between atoms: O_3  and  C_12
REMARK    2  A    between atoms: N_5  and  C_7
REMARK    3  A    between atoms: N_5  and  C_8
REMARK    4  A    between atoms: N_6  and  C_15
REMARK    5  A    between atoms: C_13  and  C_15
REMARK    6  A    between atoms: C_16  and  C_17
REMARK                            x       y       z     vdW  Elec       q    Type
REMARK                         _______ _______ _______ _____ _____    ______ ____
ROOT
ATOM      2  O   UNL     1     -16.646   4.300  25.350  0.00  0.00    -0.371 OA
ATOM      8  C   UNL     1     -16.032   4.189  23.058  0.00  0.00    +0.111 C 
ATOM     12  C   UNL     1     -16.326   2.788  23.560  0.00  0.00    +0.164 C 
ATOM     13  C   UNL     1     -17.176   3.088  24.787  0.00  0.00    +0.165 C 
ATOM     14  C   UNL     1     -15.814   4.937  24.364  0.00  0.00    +0.181 C 
ENDROOT
BRANCH  12   3
ATOM      3  O   UNL     1     -17.025   2.004  22.614  0.00  0.00    -0.388 OA
ATOM     24  H   UNL     1     -17.439   2.602  21.968  0.00  0.00    +0.210 HD
ENDBRANCH  12   3
BRANCH   8   5
ATOM      5  N   UNL     1     -14.884   4.261  22.167  0.00  0.00    -0.306 NA
ATOM     23  H   UNL     1     -15.215   4.133  21.210  0.00  0.00    +0.123 HD
BRANCH   5   7
ATOM      7  C   UNL     1     -14.193   5.527  22.365  0.00  0.00    +0.054 C 
ATOM      9  C   UNL     1     -14.378   6.408  21.110  0.00  0.00    +0.019 C 
ATOM     10  C   UNL     1     -12.715   5.371  21.947  0.00  0.00    +0.019 C 
ATOM     11  C   UNL     1     -12.869   6.724  21.217  0.00  0.00    +0.003 C 
ENDBRANCH   5   7
ENDBRANCH   8   5
BRANCH  13  15
ATOM     15  C   UNL     1     -17.141   1.983  25.827  0.00  0.00    +0.138 C 
BRANCH  15   6
ATOM      4  O   UNL     1     -16.895   0.541  28.299  0.00  0.00    -0.270 OA
ATOM      6  N   UNL     1     -16.361   2.365  26.969  0.00  0.00    -0.309 N 
ATOM     16  C   UNL     1     -16.300   1.601  28.131  0.00  0.00    +0.244 C 
ATOM     25  H   UNL     1     -15.900   3.267  26.922  0.00  0.00    +0.149 HD
BRANCH  16  17
ATOM      1  F   UNL     1     -13.155   3.674  32.295  0.00  0.00    -0.205 F 
ATOM     17  C   UNL     1     -15.467   2.149  29.233  0.00  0.00    +0.037 A 
ATOM     18  C   UNL     1     -15.667   3.458  29.671  0.00  0.00    +0.016 A 
ATOM     19  C   UNL     1     -14.487   1.355  29.828  0.00  0.00    +0.016 A 
ATOM     20  C   UNL     1     -14.886   3.973  30.706  0.00  0.00    +0.039 A 
ATOM     21  C   UNL     1     -13.705   1.871  30.862  0.00  0.00    +0.039 A 
ATOM     22  C   UNL     1     -13.906   3.180  31.301  0.00  0.00    +0.123 A 
ENDBRANCH  16  17
ENDBRANCH  15   6
ENDBRANCH  13  15
TORSDOF 6
ENDMDL
