MODEL 1
REMARK VINA RESULT:      -6.5      0.000      0.000
REMARK  Name = 26742963
REMARK  9 active torsions:
REMARK  status: ('A' for Active; 'I' for Inactive)
REMARK    1  A    between atoms: N_4  and  C_13
REMARK    2  A    between atoms: C_6  and  C_10
REMARK    3  A    between atoms: C_7  and  C_12
REMARK    4  A    between atoms: C_10  and  C_16
REMARK    5  A    between atoms: C_12  and  C_20
REMARK    6  A    between atoms: C_22  and  C_23
REMARK    7  A    between atoms: C_23  and  C_24
REMARK    8  A    between atoms: C_24  and  C_25
REMARK    9  A    between atoms: C_25  and  C_26
REMARK                            x       y       z     vdW  Elec       q    Type
REMARK                         _______ _______ _______ _____ _____    ______ ____
ROOT
ATOM      3  N   UNL     1      13.918   8.425  15.997  0.00  0.00    -0.316 NA
ATOM      6  C   UNL     1      13.116   9.100  18.755  0.00  0.00    +0.004 C 
ATOM      7  C   UNL     1      14.216   8.060  18.435  0.00  0.00    +0.012 C 
ATOM      8  C   UNL     1      12.999  10.084  17.580  0.00  0.00    +0.019 C 
ATOM      9  C   UNL     1      14.006   7.417  17.054  0.00  0.00    +0.085 C 
ATOM     11  C   UNL     1      12.832   9.372  16.238  0.00  0.00    +0.081 C 
ATOM     27  H   UNL     1      13.770   7.964  15.101  0.00  0.00    +0.122 HD
ENDROOT
BRANCH   6  10
ATOM     10  C   UNL     1      11.753   8.482  19.089  0.00  0.00    +0.099 C 
BRANCH  10  16
ATOM      1  O   UNL     1      10.543   8.207  21.166  0.00  0.00    -0.276 OA
ATOM      4  N   UNL     1      11.675  10.197  20.760  0.00  0.00    -0.312 N 
ATOM     16  C   UNL     1      11.245   8.915  20.448  0.00  0.00    +0.214 C 
ATOM     28  H   UNL     1      12.311  10.671  20.127  0.00  0.00    +0.149 HD
BRANCH   4  13
ATOM     13  C   UNL     1      11.338  10.864  21.998  0.00  0.00    +0.073 C 
ATOM     14  C   UNL     1      12.365  10.551  23.091  0.00  0.00    +0.022 C 
ATOM     15  C   UNL     1      11.193  12.375  21.787  0.00  0.00    +0.022 C 
ATOM     17  C   UNL     1      13.707  11.242  22.847  0.00  0.00    +0.002 C 
ATOM     18  C   UNL     1      12.536  13.063  21.545  0.00  0.00    +0.002 C 
ATOM     19  C   UNL     1      13.538  12.747  22.652  0.00  0.00    +0.000 C 
ENDBRANCH   4  13
ENDBRANCH  10  16
ENDBRANCH   6  10
BRANCH   7  12
ATOM     12  C   UNL     1      14.356   6.983  19.512  0.00  0.00    +0.064 C 
BRANCH  12  20
ATOM      2  O   UNL     1      17.769   5.839  19.538  0.00  0.00    -0.359 OA
ATOM      5  N   UNL     1      16.497   5.901  18.982  0.00  0.00    -0.083 NA
ATOM     20  C   UNL     1      15.798   6.686  19.806  0.00  0.00    +0.084 A 
ATOM     21  C   UNL     1      16.569   7.145  20.888  0.00  0.00    +0.071 A 
ATOM     22  C   UNL     1      17.799   6.583  20.672  0.00  0.00    +0.138 A 
BRANCH  22  23
ATOM     23  C   UNL     1      19.078   6.630  21.393  0.00  0.00    +0.077 C 
BRANCH  23  24
ATOM     24  C   UNL     1      20.276   6.183  20.525  0.00  0.00    +0.007 C 
BRANCH  24  25
ATOM     25  C   UNL     1      21.017   4.984  21.120  0.00  0.00    -0.003 C 
ATOM     26  C   UNL     1      21.750   5.361  22.397  0.00  0.00    +0.004 C 
ENDBRANCH  24  25
ENDBRANCH  23  24
ENDBRANCH  22  23
ENDBRANCH  12  20
ENDBRANCH   7  12
TORSDOF 8
ENDMDL
MODEL 2
REMARK VINA RESULT:      -6.3      2.090      3.068
REMARK  Name = 26742963
REMARK  9 active torsions:
REMARK  status: ('A' for Active; 'I' for Inactive)
REMARK    1  A    between atoms: N_4  and  C_13
REMARK    2  A    between atoms: C_6  and  C_10
REMARK    3  A    between atoms: C_7  and  C_12
REMARK    4  A    between atoms: C_10  and  C_16
REMARK    5  A    between atoms: C_12  and  C_20
REMARK    6  A    between atoms: C_22  and  C_23
REMARK    7  A    between atoms: C_23  and  C_24
REMARK    8  A    between atoms: C_24  and  C_25
REMARK    9  A    between atoms: C_25  and  C_26
REMARK                            x       y       z     vdW  Elec       q    Type
REMARK                         _______ _______ _______ _____ _____    ______ ____
ROOT
ATOM      3  N   UNL     1      11.978   6.047  21.151  0.00  0.00    -0.316 NA
ATOM      6  C   UNL     1      11.994   8.928  20.516  0.00  0.00    +0.004 C 
ATOM      7  C   UNL     1      13.031   7.939  19.935  0.00  0.00    +0.012 C 
ATOM      8  C   UNL     1      10.718   8.156  20.890  0.00  0.00    +0.019 C 
ATOM      9  C   UNL     1      13.240   6.727  20.859  0.00  0.00    +0.085 C 
ATOM     11  C   UNL     1      11.008   6.945  21.775  0.00  0.00    +0.081 C 
ATOM     27  H   UNL     1      12.155   5.258  21.771  0.00  0.00    +0.122 HD
ENDROOT
BRANCH   6  10
ATOM     10  C   UNL     1      12.509   9.743  21.708  0.00  0.00    +0.099 C 
BRANCH  10  16
ATOM      1  O   UNL     1      12.370  11.874  20.571  0.00  0.00    -0.276 OA
ATOM      4  N   UNL     1      11.613  11.698  22.762  0.00  0.00    -0.312 N 
ATOM     16  C   UNL     1      12.170  11.213  21.587  0.00  0.00    +0.214 C 
ATOM     28  H   UNL     1      11.426  11.052  23.522  0.00  0.00    +0.149 HD
BRANCH   4  13
ATOM     13  C   UNL     1      11.195  13.072  22.930  0.00  0.00    +0.073 C 
ATOM     14  C   UNL     1      10.136  13.196  24.031  0.00  0.00    +0.022 C 
ATOM     15  C   UNL     1      12.396  13.984  23.208  0.00  0.00    +0.022 C 
ATOM     17  C   UNL     1      10.720  12.990  25.429  0.00  0.00    +0.002 C 
ATOM     18  C   UNL     1      12.976  13.776  24.606  0.00  0.00    +0.002 C 
ATOM     19  C   UNL     1      11.906  13.915  25.686  0.00  0.00    +0.000 C 
ENDBRANCH   4  13
ENDBRANCH  10  16
ENDBRANCH   6  10
BRANCH   7  12
ATOM     12  C   UNL     1      14.371   8.598  19.605  0.00  0.00    +0.064 C 
BRANCH  12  20
ATOM      2  O   UNL     1      16.528   5.836  18.786  0.00  0.00    -0.359 OA
ATOM      5  N   UNL     1      15.359   6.571  18.631  0.00  0.00    -0.083 NA
ATOM     20  C   UNL     1      15.470   7.582  19.497  0.00  0.00    +0.084 A 
ATOM     21  C   UNL     1      16.676   7.537  20.218  0.00  0.00    +0.071 A 
ATOM     22  C   UNL     1      17.304   6.420  19.733  0.00  0.00    +0.138 A 
BRANCH  22  23
ATOM     23  C   UNL     1      18.587   5.769  20.025  0.00  0.00    +0.077 C 
BRANCH  23  24
ATOM     24  C   UNL     1      19.568   6.682  20.794  0.00  0.00    +0.007 C 
BRANCH  24  25
ATOM     25  C   UNL     1      20.918   6.011  21.049  0.00  0.00    -0.003 C 
ATOM     26  C   UNL     1      20.934   4.580  20.534  0.00  0.00    +0.004 C 
ENDBRANCH  24  25
ENDBRANCH  23  24
ENDBRANCH  22  23
ENDBRANCH  12  20
ENDBRANCH   7  12
TORSDOF 8
ENDMDL
MODEL 3
REMARK VINA RESULT:      -6.0     26.763     28.978
REMARK  Name = 26742963
REMARK  9 active torsions:
REMARK  status: ('A' for Active; 'I' for Inactive)
REMARK    1  A    between atoms: N_4  and  C_13
REMARK    2  A    between atoms: C_6  and  C_10
REMARK    3  A    between atoms: C_7  and  C_12
REMARK    4  A    between atoms: C_10  and  C_16
REMARK    5  A    between atoms: C_12  and  C_20
REMARK    6  A    between atoms: C_22  and  C_23
REMARK    7  A    between atoms: C_23  and  C_24
REMARK    8  A    between atoms: C_24  and  C_25
REMARK    9  A    between atoms: C_25  and  C_26
REMARK                            x       y       z     vdW  Elec       q    Type
REMARK                         _______ _______ _______ _____ _____    ______ ____
ROOT
ATOM      3  N   UNL     1      -5.955 -14.236  17.248  0.00  0.00    -0.316 NA
ATOM      6  C   UNL     1      -6.436 -11.332  17.042  0.00  0.00    +0.004 C 
ATOM      7  C   UNL     1      -5.046 -11.968  16.802  0.00  0.00    +0.012 C 
ATOM      8  C   UNL     1      -7.523 -12.387  16.776  0.00  0.00    +0.019 C 
ATOM      9  C   UNL     1      -4.886 -13.290  17.572  0.00  0.00    +0.085 C 
ATOM     11  C   UNL     1      -7.276 -13.685  17.543  0.00  0.00    +0.081 C 
ATOM     27  H   UNL     1      -5.821 -15.093  17.782  0.00  0.00    +0.122 HD
ENDROOT
BRANCH   6  10
ATOM     10  C   UNL     1      -6.605 -10.711  18.433  0.00  0.00    +0.099 C 
BRANCH  10  16
ATOM      1  O   UNL     1      -8.648 -10.923  19.712  0.00  0.00    -0.276 OA
ATOM      4  N   UNL     1      -8.607  -9.533  17.850  0.00  0.00    -0.312 N 
ATOM     16  C   UNL     1      -8.055 -10.423  18.760  0.00  0.00    +0.214 C 
ATOM     28  H   UNL     1      -8.012  -9.123  17.137  0.00  0.00    +0.149 HD
BRANCH   4  13
ATOM     13  C   UNL     1      -9.979  -9.081  17.919  0.00  0.00    +0.073 C 
ATOM     14  C   UNL     1     -10.132  -7.685  17.305  0.00  0.00    +0.022 C 
ATOM     15  C   UNL     1     -10.925 -10.088  17.255  0.00  0.00    +0.022 C 
ATOM     17  C   UNL     1     -10.000  -7.700  15.782  0.00  0.00    +0.002 C 
ATOM     18  C   UNL     1     -10.792 -10.098  15.733  0.00  0.00    +0.002 C 
ATOM     19  C   UNL     1     -10.959  -8.701  15.143  0.00  0.00    +0.000 C 
ENDBRANCH   4  13
ENDBRANCH  10  16
ENDBRANCH   6  10
BRANCH   7  12
ATOM     12  C   UNL     1      -3.888 -11.020  17.120  0.00  0.00    +0.064 C 
BRANCH  12  20
ATOM      2  O   UNL     1      -1.324 -10.156  14.746  0.00  0.00    -0.359 OA
ATOM      5  N   UNL     1      -1.809 -10.278  16.043  0.00  0.00    -0.083 NA
ATOM     20  C   UNL     1      -3.048 -10.756  15.905  0.00  0.00    +0.084 A 
ATOM     21  C   UNL     1      -3.396 -10.955  14.557  0.00  0.00    +0.071 A 
ATOM     22  C   UNL     1      -2.278 -10.561  13.871  0.00  0.00    +0.138 A 
BRANCH  22  23
ATOM     23  C   UNL     1      -1.929 -10.499  12.446  0.00  0.00    +0.077 C 
BRANCH  23  24
ATOM     24  C   UNL     1      -3.152 -10.246  11.535  0.00  0.00    +0.007 C 
BRANCH  24  25
ATOM     25  C   UNL     1      -2.834  -9.303  10.374  0.00  0.00    -0.003 C 
ATOM     26  C   UNL     1      -4.062  -9.043   9.516  0.00  0.00    +0.004 C 
ENDBRANCH  24  25
ENDBRANCH  23  24
ENDBRANCH  22  23
ENDBRANCH  12  20
ENDBRANCH   7  12
TORSDOF 8
ENDMDL
MODEL 4
REMARK VINA RESULT:      -5.9     27.040     29.248
REMARK  Name = 26742963
REMARK  9 active torsions:
REMARK  status: ('A' for Active; 'I' for Inactive)
REMARK    1  A    between atoms: N_4  and  C_13
REMARK    2  A    between atoms: C_6  and  C_10
REMARK    3  A    between atoms: C_7  and  C_12
REMARK    4  A    between atoms: C_10  and  C_16
REMARK    5  A    between atoms: C_12  and  C_20
REMARK    6  A    between atoms: C_22  and  C_23
REMARK    7  A    between atoms: C_23  and  C_24
REMARK    8  A    between atoms: C_24  and  C_25
REMARK    9  A    between atoms: C_25  and  C_26
REMARK                            x       y       z     vdW  Elec       q    Type
REMARK                         _______ _______ _______ _____ _____    ______ ____
ROOT
ATOM      3  N   UNL     1      -5.987 -14.015  17.464  0.00  0.00    -0.316 NA
ATOM      6  C   UNL     1      -6.227 -11.195  16.630  0.00  0.00    +0.004 C 
ATOM      7  C   UNL     1      -4.865 -11.920  16.745  0.00  0.00    +0.012 C 
ATOM      8  C   UNL     1      -7.333 -12.238  16.399  0.00  0.00    +0.019 C 
ATOM      9  C   UNL     1      -4.916 -13.066  17.769  0.00  0.00    +0.085 C 
ATOM     11  C   UNL     1      -7.296 -13.365  17.430  0.00  0.00    +0.081 C 
ATOM     27  H   UNL     1      -5.996 -14.752  18.168  0.00  0.00    +0.122 HD
ENDROOT
BRANCH   6  10
ATOM     10  C   UNL     1      -6.561 -10.301  17.830  0.00  0.00    +0.099 C 
BRANCH  10  16
ATOM      1  O   UNL     1      -8.222  -8.798  16.916  0.00  0.00    -0.276 OA
ATOM      4  N   UNL     1      -8.817 -10.248  18.633  0.00  0.00    -0.312 N 
ATOM     16  C   UNL     1      -7.938  -9.684  17.719  0.00  0.00    +0.214 C 
ATOM     28  H   UNL     1      -8.501 -11.023  19.206  0.00  0.00    +0.149 HD
BRANCH   4  13
ATOM     13  C   UNL     1     -10.201  -9.847  18.749  0.00  0.00    +0.073 C 
ATOM     14  C   UNL     1     -11.028 -10.371  17.570  0.00  0.00    +0.022 C 
ATOM     15  C   UNL     1     -10.795 -10.297  20.089  0.00  0.00    +0.022 C 
ATOM     17  C   UNL     1     -11.248 -11.883  17.638  0.00  0.00    +0.002 C 
ATOM     18  C   UNL     1     -11.014 -11.808  20.152  0.00  0.00    +0.002 C 
ATOM     19  C   UNL     1     -11.849 -12.306  18.975  0.00  0.00    +0.000 C 
ENDBRANCH   4  13
ENDBRANCH  10  16
ENDBRANCH   6  10
BRANCH   7  12
ATOM     12  C   UNL     1      -3.705 -10.973  17.057  0.00  0.00    +0.064 C 
BRANCH  12  20
ATOM      2  O   UNL     1      -1.153 -10.134  14.661  0.00  0.00    -0.359 OA
ATOM      5  N   UNL     1      -1.612 -10.296  15.963  0.00  0.00    -0.083 NA
ATOM     20  C   UNL     1      -2.881 -10.694  15.835  0.00  0.00    +0.084 A 
ATOM     21  C   UNL     1      -3.274 -10.800  14.489  0.00  0.00    +0.071 A 
ATOM     22  C   UNL     1      -2.151 -10.436  13.793  0.00  0.00    +0.138 A 
BRANCH  22  23
ATOM     23  C   UNL     1      -1.835 -10.318  12.364  0.00  0.00    +0.077 C 
BRANCH  23  24
ATOM     24  C   UNL     1      -3.093 -10.202  11.475  0.00  0.00    +0.007 C 
BRANCH  24  25
ATOM     25  C   UNL     1      -2.920  -9.188  10.343  0.00  0.00    -0.003 C 
ATOM     26  C   UNL     1      -4.129  -9.171   9.421  0.00  0.00    +0.004 C 
ENDBRANCH  24  25
ENDBRANCH  23  24
ENDBRANCH  22  23
ENDBRANCH  12  20
ENDBRANCH   7  12
TORSDOF 8
ENDMDL
MODEL 5
REMARK VINA RESULT:      -5.8     26.380     28.839
REMARK  Name = 26742963
REMARK  9 active torsions:
REMARK  status: ('A' for Active; 'I' for Inactive)
REMARK    1  A    between atoms: N_4  and  C_13
REMARK    2  A    between atoms: C_6  and  C_10
REMARK    3  A    between atoms: C_7  and  C_12
REMARK    4  A    between atoms: C_10  and  C_16
REMARK    5  A    between atoms: C_12  and  C_20
REMARK    6  A    between atoms: C_22  and  C_23
REMARK    7  A    between atoms: C_23  and  C_24
REMARK    8  A    between atoms: C_24  and  C_25
REMARK    9  A    between atoms: C_25  and  C_26
REMARK                            x       y       z     vdW  Elec       q    Type
REMARK                         _______ _______ _______ _____ _____    ______ ____
ROOT
ATOM      3  N   UNL     1      -6.606  -9.521   8.123  0.00  0.00    -0.316 NA
ATOM      6  C   UNL     1      -4.468 -10.327   9.989  0.00  0.00    +0.004 C 
ATOM      7  C   UNL     1      -5.851  -9.825  10.469  0.00  0.00    +0.012 C 
ATOM      8  C   UNL     1      -4.607 -10.902   8.570  0.00  0.00    +0.019 C 
ATOM      9  C   UNL     1      -6.504  -8.888   9.438  0.00  0.00    +0.085 C 
ATOM     11  C   UNL     1      -5.299  -9.932   7.614  0.00  0.00    +0.081 C 
ATOM     27  H   UNL     1      -7.034  -8.869   7.466  0.00  0.00    +0.122 HD
ENDROOT
BRANCH   6  10
ATOM     10  C   UNL     1      -3.366  -9.263  10.043  0.00  0.00    +0.099 C 
BRANCH  10  16
ATOM      1  O   UNL     1      -1.132  -9.122  10.961  0.00  0.00    -0.276 OA
ATOM      4  N   UNL     1      -2.636 -10.656  11.849  0.00  0.00    -0.312 N 
ATOM     16  C   UNL     1      -2.243  -9.647  10.981  0.00  0.00    +0.214 C 
ATOM     28  H   UNL     1      -3.600 -10.974  11.830  0.00  0.00    +0.149 HD
BRANCH   4  13
ATOM     13  C   UNL     1      -1.763 -11.219  12.855  0.00  0.00    +0.073 C 
ATOM     14  C   UNL     1      -1.909 -10.480  14.189  0.00  0.00    +0.022 C 
ATOM     15  C   UNL     1      -2.011 -12.722  13.021  0.00  0.00    +0.022 C 
ATOM     17  C   UNL     1      -3.238 -10.784  14.882  0.00  0.00    +0.002 C 
ATOM     18  C   UNL     1      -3.339 -13.022  13.715  0.00  0.00    +0.002 C 
ATOM     19  C   UNL     1      -3.458 -12.285  15.046  0.00  0.00    +0.000 C 
ENDBRANCH   4  13
ENDBRANCH  10  16
ENDBRANCH   6  10
BRANCH   7  12
ATOM     12  C   UNL     1      -5.804  -9.159  11.845  0.00  0.00    +0.064 C 
BRANCH  12  20
ATOM      2  O   UNL     1      -6.802 -11.963  13.868  0.00  0.00    -0.359 OA
ATOM      5  N   UNL     1      -6.339 -11.405  12.683  0.00  0.00    -0.083 NA
ATOM     20  C   UNL     1      -6.274 -10.092  12.921  0.00  0.00    +0.084 A 
ATOM     21  C   UNL     1      -6.680  -9.767  14.227  0.00  0.00    +0.071 A 
ATOM     22  C   UNL     1      -7.002 -10.978  14.779  0.00  0.00    +0.138 A 
BRANCH  22  23
ATOM     23  C   UNL     1      -7.495 -11.395  16.099  0.00  0.00    +0.077 C 
BRANCH  23  24
ATOM     24  C   UNL     1      -7.103 -10.415  17.227  0.00  0.00    +0.007 C 
BRANCH  24  25
ATOM     25  C   UNL     1      -5.640 -10.559  17.648  0.00  0.00    -0.003 C 
ATOM     26  C   UNL     1      -5.518 -10.951  19.111  0.00  0.00    +0.004 C 
ENDBRANCH  24  25
ENDBRANCH  23  24
ENDBRANCH  22  23
ENDBRANCH  12  20
ENDBRANCH   7  12
TORSDOF 8
ENDMDL
MODEL 6
REMARK VINA RESULT:      -5.7     25.899     28.112
REMARK  Name = 26742963
REMARK  9 active torsions:
REMARK  status: ('A' for Active; 'I' for Inactive)
REMARK    1  A    between atoms: N_4  and  C_13
REMARK    2  A    between atoms: C_6  and  C_10
REMARK    3  A    between atoms: C_7  and  C_12
REMARK    4  A    between atoms: C_10  and  C_16
REMARK    5  A    between atoms: C_12  and  C_20
REMARK    6  A    between atoms: C_22  and  C_23
REMARK    7  A    between atoms: C_23  and  C_24
REMARK    8  A    between atoms: C_24  and  C_25
REMARK    9  A    between atoms: C_25  and  C_26
REMARK                            x       y       z     vdW  Elec       q    Type
REMARK                         _______ _______ _______ _____ _____    ______ ____
ROOT
ATOM      3  N   UNL     1     -14.048   4.460  21.950  0.00  0.00    -0.316 NA
ATOM      6  C   UNL     1     -14.175   7.213  20.896  0.00  0.00    +0.004 C 
ATOM      7  C   UNL     1     -12.861   6.398  20.951  0.00  0.00    +0.012 C 
ATOM      8  C   UNL     1     -15.367   6.241  20.859  0.00  0.00    +0.019 C 
ATOM      9  C   UNL     1     -12.891   5.346  22.073  0.00  0.00    +0.085 C 
ATOM     11  C   UNL     1     -15.307   5.202  21.978  0.00  0.00    +0.081 C 
ATOM     27  H   UNL     1     -14.039   3.785  22.714  0.00  0.00    +0.122 HD
ENDROOT
BRANCH   6  10
ATOM     10  C   UNL     1     -14.330   8.223  22.039  0.00  0.00    +0.099 C 
BRANCH  10  16
ATOM      1  O   UNL     1     -16.068   9.900  21.891  0.00  0.00    -0.276 OA
ATOM      4  N   UNL     1     -14.069  10.225  20.750  0.00  0.00    -0.312 N 
ATOM     16  C   UNL     1     -14.942   9.527  21.572  0.00  0.00    +0.214 C 
ATOM     28  H   UNL     1     -13.133   9.862  20.603  0.00  0.00    +0.149 HD
BRANCH   4  13
ATOM     13  C   UNL     1     -14.393  11.504  20.159  0.00  0.00    +0.073 C 
ATOM     14  C   UNL     1     -13.251  12.507  20.354  0.00  0.00    +0.022 C 
ATOM     15  C   UNL     1     -14.751  11.352  18.676  0.00  0.00    +0.022 C 
ATOM     17  C   UNL     1     -12.035  12.185  19.485  0.00  0.00    +0.002 C 
ATOM     18  C   UNL     1     -13.533  11.031  17.811  0.00  0.00    +0.002 C 
ATOM     19  C   UNL     1     -12.415  12.048  18.013  0.00  0.00    +0.000 C 
ENDBRANCH   4  13
ENDBRANCH  10  16
ENDBRANCH   6  10
BRANCH   7  12
ATOM     12  C   UNL     1     -11.615   7.277  21.073  0.00  0.00    +0.064 C 
BRANCH  12  20
ATOM      2  O   UNL     1     -10.373   9.222  18.310  0.00  0.00    -0.359 OA
ATOM      5  N   UNL     1     -10.629   9.031  19.663  0.00  0.00    -0.083 NA
ATOM     20  C   UNL     1     -11.198   7.824  19.739  0.00  0.00    +0.084 A 
ATOM     21  C   UNL     1     -11.326   7.214  18.479  0.00  0.00    +0.071 A 
ATOM     22  C   UNL     1     -10.794   8.134  17.616  0.00  0.00    +0.138 A 
BRANCH  22  23
ATOM     23  C   UNL     1     -10.598   8.169  16.161  0.00  0.00    +0.077 C 
BRANCH  23  24
ATOM     24  C   UNL     1     -11.063   9.495  15.520  0.00  0.00    +0.007 C 
BRANCH  24  25
ATOM     25  C   UNL     1     -12.150   9.287  14.464  0.00  0.00    -0.003 C 
ATOM     26  C   UNL     1     -13.331   8.512  15.026  0.00  0.00    +0.004 C 
ENDBRANCH  24  25
ENDBRANCH  23  24
ENDBRANCH  22  23
ENDBRANCH  12  20
ENDBRANCH   7  12
TORSDOF 8
ENDMDL
MODEL 7
REMARK VINA RESULT:      -5.7      3.414      7.561
REMARK  Name = 26742963
REMARK  9 active torsions:
REMARK  status: ('A' for Active; 'I' for Inactive)
REMARK    1  A    between atoms: N_4  and  C_13
REMARK    2  A    between atoms: C_6  and  C_10
REMARK    3  A    between atoms: C_7  and  C_12
REMARK    4  A    between atoms: C_10  and  C_16
REMARK    5  A    between atoms: C_12  and  C_20
REMARK    6  A    between atoms: C_22  and  C_23
REMARK    7  A    between atoms: C_23  and  C_24
REMARK    8  A    between atoms: C_24  and  C_25
REMARK    9  A    between atoms: C_25  and  C_26
REMARK                            x       y       z     vdW  Elec       q    Type
REMARK                         _______ _______ _______ _____ _____    ______ ____
ROOT
ATOM      3  N   UNL     1      14.115   6.611  19.863  0.00  0.00    -0.316 NA
ATOM      6  C   UNL     1      13.339   9.218  18.721  0.00  0.00    +0.004 C 
ATOM      7  C   UNL     1      12.703   8.648  20.011  0.00  0.00    +0.012 C 
ATOM      8  C   UNL     1      14.734   8.597  18.532  0.00  0.00    +0.019 C 
ATOM      9  C   UNL     1      12.751   7.111  20.037  0.00  0.00    +0.085 C 
ATOM     11  C   UNL     1      14.708   7.072  18.609  0.00  0.00    +0.081 C 
ATOM     27  H   UNL     1      14.106   5.592  19.877  0.00  0.00    +0.122 HD
ENDROOT
BRANCH   6  10
ATOM     10  C   UNL     1      12.481   9.025  17.465  0.00  0.00    +0.099 C 
BRANCH  10  16
ATOM      1  O   UNL     1      13.535   8.570  15.335  0.00  0.00    -0.276 OA
ATOM      4  N   UNL     1      13.509  10.745  16.154  0.00  0.00    -0.312 N 
ATOM     16  C   UNL     1      13.227   9.388  16.199  0.00  0.00    +0.214 C 
ATOM     28  H   UNL     1      13.150  11.348  16.888  0.00  0.00    +0.149 HD
BRANCH   4  13
ATOM     13  C   UNL     1      14.215  11.370  15.058  0.00  0.00    +0.073 C 
ATOM     14  C   UNL     1      13.734  12.808  14.840  0.00  0.00    +0.022 C 
ATOM     15  C   UNL     1      15.731  11.318  15.278  0.00  0.00    +0.022 C 
ATOM     17  C   UNL     1      14.200  13.755  15.946  0.00  0.00    +0.002 C 
ATOM     18  C   UNL     1      16.194  12.266  16.384  0.00  0.00    +0.002 C 
ATOM     19  C   UNL     1      15.713  13.694  16.140  0.00  0.00    +0.000 C 
ENDBRANCH   4  13
ENDBRANCH  10  16
ENDBRANCH   6  10
BRANCH   7  12
ATOM     12  C   UNL     1      11.276   9.144  20.247  0.00  0.00    +0.064 C 
BRANCH  12  20
ATOM      2  O   UNL     1      10.805  10.409  23.584  0.00  0.00    -0.359 OA
ATOM      5  N   UNL     1      10.776   9.389  22.640  0.00  0.00    -0.083 NA
ATOM     20  C   UNL     1      11.180   9.961  21.502  0.00  0.00    +0.084 A 
ATOM     21  C   UNL     1      11.475  11.326  21.666  0.00  0.00    +0.071 A 
ATOM     22  C   UNL     1      11.222  11.556  22.992  0.00  0.00    +0.138 A 
BRANCH  22  23
ATOM     23  C   UNL     1      11.311  12.743  23.852  0.00  0.00    +0.077 C 
BRANCH  23  24
ATOM     24  C   UNL     1      11.909  13.970  23.128  0.00  0.00    +0.007 C 
BRANCH  24  25
ATOM     25  C   UNL     1      10.902  15.113  22.982  0.00  0.00    -0.003 C 
ATOM     26  C   UNL     1       9.736  14.953  23.943  0.00  0.00    +0.004 C 
ENDBRANCH  24  25
ENDBRANCH  23  24
ENDBRANCH  22  23
ENDBRANCH  12  20
ENDBRANCH   7  12
TORSDOF 8
ENDMDL
MODEL 8
REMARK VINA RESULT:      -5.7     26.657     30.281
REMARK  Name = 26742963
REMARK  9 active torsions:
REMARK  status: ('A' for Active; 'I' for Inactive)
REMARK    1  A    between atoms: N_4  and  C_13
REMARK    2  A    between atoms: C_6  and  C_10
REMARK    3  A    between atoms: C_7  and  C_12
REMARK    4  A    between atoms: C_10  and  C_16
REMARK    5  A    between atoms: C_12  and  C_20
REMARK    6  A    between atoms: C_22  and  C_23
REMARK    7  A    between atoms: C_23  and  C_24
REMARK    8  A    between atoms: C_24  and  C_25
REMARK    9  A    between atoms: C_25  and  C_26
REMARK                            x       y       z     vdW  Elec       q    Type
REMARK                         _______ _______ _______ _____ _____    ______ ____
ROOT
ATOM      3  N   UNL     1     -17.837   6.941  21.674  0.00  0.00    -0.316 NA
ATOM      6  C   UNL     1     -15.048   6.102  21.206  0.00  0.00    +0.004 C 
ATOM      7  C   UNL     1     -15.941   5.464  22.296  0.00  0.00    +0.012 C 
ATOM      8  C   UNL     1     -15.945   6.696  20.106  0.00  0.00    +0.019 C 
ATOM      9  C   UNL     1     -17.027   6.438  22.783  0.00  0.00    +0.085 C 
ATOM     11  C   UNL     1     -17.022   7.621  20.669  0.00  0.00    +0.081 C 
ATOM     27  H   UNL     1     -18.537   7.589  22.034  0.00  0.00    +0.122 HD
ENDROOT
BRANCH   6  10
ATOM     10  C   UNL     1     -14.069   7.154  21.739  0.00  0.00    +0.099 C 
BRANCH  10  16
ATOM      1  O   UNL     1     -11.964   6.033  21.332  0.00  0.00    -0.276 OA
ATOM      4  N   UNL     1     -12.358   8.107  20.360  0.00  0.00    -0.312 N 
ATOM     16  C   UNL     1     -12.687   7.008  21.140  0.00  0.00    +0.214 C 
ATOM     28  H   UNL     1     -13.055   8.830  20.209  0.00  0.00    +0.149 HD
BRANCH   4  13
ATOM     13  C   UNL     1     -11.096   8.235  19.666  0.00  0.00    +0.073 C 
ATOM     14  C   UNL     1     -11.181   7.648  18.253  0.00  0.00    +0.022 C 
ATOM     15  C   UNL     1     -10.631   9.695  19.634  0.00  0.00    +0.022 C 
ATOM     17  C   UNL     1     -12.019   8.512  17.311  0.00  0.00    +0.002 C 
ATOM     18  C   UNL     1     -11.470  10.555  18.690  0.00  0.00    +0.002 C 
ATOM     19  C   UNL     1     -11.530   9.957  17.287  0.00  0.00    +0.000 C 
ENDBRANCH   4  13
ENDBRANCH  10  16
ENDBRANCH   6  10
BRANCH   7  12
ATOM     12  C   UNL     1     -15.143   4.914  23.480  0.00  0.00    +0.064 C 
BRANCH  12  20
ATOM      2  O   UNL     1     -16.800   1.762  24.008  0.00  0.00    -0.359 OA
ATOM      5  N   UNL     1     -16.339   2.787  23.191  0.00  0.00    -0.083 NA
ATOM     20  C   UNL     1     -15.764   3.660  24.023  0.00  0.00    +0.084 A 
ATOM     21  C   UNL     1     -15.831   3.243  25.364  0.00  0.00    +0.071 A 
ATOM     22  C   UNL     1     -16.492   2.045  25.299  0.00  0.00    +0.138 A 
BRANCH  22  23
ATOM     23  C   UNL     1     -16.909   1.059  26.304  0.00  0.00    +0.077 C 
BRANCH  23  24
ATOM     24  C   UNL     1     -17.727   1.681  27.458  0.00  0.00    +0.007 C 
BRANCH  24  25
ATOM     25  C   UNL     1     -16.854   2.075  28.651  0.00  0.00    -0.003 C 
ATOM     26  C   UNL     1     -15.946   0.933  29.077  0.00  0.00    +0.004 C 
ENDBRANCH  24  25
ENDBRANCH  23  24
ENDBRANCH  22  23
ENDBRANCH  12  20
ENDBRANCH   7  12
TORSDOF 8
ENDMDL
MODEL 9
REMARK VINA RESULT:      -5.7     13.671     16.607
REMARK  Name = 26742963
REMARK  9 active torsions:
REMARK  status: ('A' for Active; 'I' for Inactive)
REMARK    1  A    between atoms: N_4  and  C_13
REMARK    2  A    between atoms: C_6  and  C_10
REMARK    3  A    between atoms: C_7  and  C_12
REMARK    4  A    between atoms: C_10  and  C_16
REMARK    5  A    between atoms: C_12  and  C_20
REMARK    6  A    between atoms: C_22  and  C_23
REMARK    7  A    between atoms: C_23  and  C_24
REMARK    8  A    between atoms: C_24  and  C_25
REMARK    9  A    between atoms: C_25  and  C_26
REMARK                            x       y       z     vdW  Elec       q    Type
REMARK                         _______ _______ _______ _____ _____    ______ ____
ROOT
ATOM      3  N   UNL     1      15.760   8.913   4.562  0.00  0.00    -0.316 NA
ATOM      6  C   UNL     1      13.349   8.073   6.040  0.00  0.00    +0.004 C 
ATOM      7  C   UNL     1      13.380   8.208   4.499  0.00  0.00    +0.012 C 
ATOM      8  C   UNL     1      14.778   7.827   6.552  0.00  0.00    +0.019 C 
ATOM      9  C   UNL     1      14.431   9.232   4.040  0.00  0.00    +0.085 C 
ATOM     11  C   UNL     1      15.772   8.860   6.023  0.00  0.00    +0.081 C 
ATOM     27  H   UNL     1      16.426   9.617   4.246  0.00  0.00    +0.122 HD
ENDROOT
BRANCH   6  10
ATOM     10  C   UNL     1      12.709   9.267   6.757  0.00  0.00    +0.099 C 
BRANCH  10  16
ATOM      1  O   UNL     1      10.740   9.690   8.098  0.00  0.00    -0.276 OA
ATOM      4  N   UNL     1      11.070   7.576   7.189  0.00  0.00    -0.312 N 
ATOM     16  C   UNL     1      11.404   8.901   7.429  0.00  0.00    +0.214 C 
ATOM     28  H   UNL     1      11.652   7.026   6.565  0.00  0.00    +0.149 HD
BRANCH   4  13
ATOM     13  C   UNL     1       9.872   6.955   7.711  0.00  0.00    +0.073 C 
ATOM     14  C   UNL     1       8.618   7.530   7.044  0.00  0.00    +0.022 C 
ATOM     15  C   UNL     1       9.932   5.431   7.563  0.00  0.00    +0.022 C 
ATOM     17  C   UNL     1       8.467   7.073   5.593  0.00  0.00    +0.002 C 
ATOM     18  C   UNL     1       9.780   4.979   6.112  0.00  0.00    +0.002 C 
ATOM     19  C   UNL     1       8.519   5.553   5.472  0.00  0.00    +0.000 C 
ENDBRANCH   4  13
ENDBRANCH  10  16
ENDBRANCH   6  10
BRANCH   7  12
ATOM     12  C   UNL     1      12.013   8.536   3.897  0.00  0.00    +0.064 C 
BRANCH  12  20
ATOM      2  O   UNL     1      10.228   6.272   1.742  0.00  0.00    -0.359 OA
ATOM      5  N   UNL     1      10.539   7.547   2.198  0.00  0.00    -0.083 NA
ATOM     20  C   UNL     1      11.440   7.357   3.166  0.00  0.00    +0.084 A 
ATOM     21  C   UNL     1      11.733   5.996   3.363  0.00  0.00    +0.071 A 
ATOM     22  C   UNL     1      10.944   5.357   2.443  0.00  0.00    +0.138 A 
BRANCH  22  23
ATOM     23  C   UNL     1      10.736   3.948   2.087  0.00  0.00    +0.077 C 
BRANCH  23  24
ATOM     24  C   UNL     1      12.044   3.125   2.087  0.00  0.00    +0.007 C 
BRANCH  24  25
ATOM     25  C   UNL     1      12.968   3.492   0.924  0.00  0.00    -0.003 C 
ATOM     26  C   UNL     1      14.414   3.606   1.377  0.00  0.00    +0.004 C 
ENDBRANCH  24  25
ENDBRANCH  23  24
ENDBRANCH  22  23
ENDBRANCH  12  20
ENDBRANCH   7  12
TORSDOF 8
ENDMDL
MODEL 10
REMARK VINA RESULT:      -5.6     14.123     17.232
REMARK  Name = 26742963
REMARK  9 active torsions:
REMARK  status: ('A' for Active; 'I' for Inactive)
REMARK    1  A    between atoms: N_4  and  C_13
REMARK    2  A    between atoms: C_6  and  C_10
REMARK    3  A    between atoms: C_7  and  C_12
REMARK    4  A    between atoms: C_10  and  C_16
REMARK    5  A    between atoms: C_12  and  C_20
REMARK    6  A    between atoms: C_22  and  C_23
REMARK    7  A    between atoms: C_23  and  C_24
REMARK    8  A    between atoms: C_24  and  C_25
REMARK    9  A    between atoms: C_25  and  C_26
REMARK                            x       y       z     vdW  Elec       q    Type
REMARK                         _______ _______ _______ _____ _____    ______ ____
ROOT
ATOM      3  N   UNL     1      16.495  10.139   4.719  0.00  0.00    -0.316 NA
ATOM      6  C   UNL     1      14.789   7.805   5.307  0.00  0.00    +0.004 C 
ATOM      7  C   UNL     1      14.846   8.467   3.910  0.00  0.00    +0.012 C 
ATOM      8  C   UNL     1      16.099   8.101   6.058  0.00  0.00    +0.019 C 
ATOM      9  C   UNL     1      15.233   9.953   4.001  0.00  0.00    +0.085 C 
ATOM     11  C   UNL     1      16.437   9.591   6.072  0.00  0.00    +0.081 C 
ATOM     27  H   UNL     1      16.713  11.134   4.767  0.00  0.00    +0.122 HD
ENDROOT
BRANCH   6  10
ATOM     10  C   UNL     1      13.574   8.219   6.145  0.00  0.00    +0.099 C 
BRANCH  10  16
ATOM      1  O   UNL     1      13.349   6.323   7.631  0.00  0.00    -0.276 OA
ATOM      4  N   UNL     1      11.609   6.850   6.182  0.00  0.00    -0.312 N 
ATOM     16  C   UNL     1      12.862   7.029   6.750  0.00  0.00    +0.214 C 
ATOM     28  H   UNL     1      11.272   7.531   5.509  0.00  0.00    +0.149 HD
BRANCH   4  13
ATOM     13  C   UNL     1      10.709   5.787   6.570  0.00  0.00    +0.073 C 
ATOM     14  C   UNL     1       9.620   6.304   7.517  0.00  0.00    +0.022 C 
ATOM     15  C   UNL     1      10.099   5.105   5.341  0.00  0.00    +0.022 C 
ATOM     17  C   UNL     1       8.596   7.186   6.803  0.00  0.00    +0.002 C 
ATOM     18  C   UNL     1       9.074   5.989   4.630  0.00  0.00    +0.002 C 
ATOM     19  C   UNL     1       7.994   6.482   5.589  0.00  0.00    +0.000 C 
ENDBRANCH   4  13
ENDBRANCH  10  16
ENDBRANCH   6  10
BRANCH   7  12
ATOM     12  C   UNL     1      13.553   8.298   3.112  0.00  0.00    +0.064 C 
BRANCH  12  20
ATOM      2  O   UNL     1      12.379   4.966   2.419  0.00  0.00    -0.359 OA
ATOM      5  N   UNL     1      12.224   6.236   2.962  0.00  0.00    -0.083 NA
ATOM     20  C   UNL     1      13.362   6.875   2.674  0.00  0.00    +0.084 A 
ATOM     21  C   UNL     1      14.262   6.066   1.958  0.00  0.00    +0.071 A 
ATOM     22  C   UNL     1      13.595   4.877   1.825  0.00  0.00    +0.138 A 
BRANCH  22  23
ATOM     23  C   UNL     1      13.925   3.592   1.195  0.00  0.00    +0.077 C 
BRANCH  23  24
ATOM     24  C   UNL     1      13.791   3.622  -0.344  0.00  0.00    +0.007 C 
BRANCH  24  25
ATOM     25  C   UNL     1      12.359   3.365  -0.814  0.00  0.00    -0.003 C 
ATOM     26  C   UNL     1      12.330   2.765  -2.210  0.00  0.00    +0.004 C 
ENDBRANCH  24  25
ENDBRANCH  23  24
ENDBRANCH  22  23
ENDBRANCH  12  20
ENDBRANCH   7  12
TORSDOF 8
ENDMDL
