MODEL 1
REMARK VINA RESULT:      -6.0      0.000      0.000
REMARK  Name = 75536338
REMARK  12 active torsions:
REMARK  status: ('A' for Active; 'I' for Inactive)
REMARK    1  A    between atoms: O_2  and  C_9
REMARK    2  A    between atoms: O_4  and  C_20
REMARK    3  A    between atoms: O_4  and  C_26
REMARK    4  A    between atoms: O_5  and  C_25
REMARK    5  A    between atoms: O_5  and  C_29
REMARK    6  A    between atoms: N_6  and  C_13
REMARK    7  A    between atoms: N_6  and  C_16
REMARK    8  A    between atoms: C_8  and  C_13
REMARK    9  A    between atoms: C_10  and  C_14
REMARK   10  A    between atoms: C_14  and  C_15
REMARK   11  A    between atoms: C_16  and  C_18
REMARK   12  A    between atoms: C_19  and  C_20
REMARK                            x       y       z     vdW  Elec       q    Type
REMARK                         _______ _______ _______ _____ _____    ______ ____
ROOT
ATOM      1  O   UNL     1      -4.638  -9.119  11.630  0.00  0.00    -0.369 OA
ATOM      8  C   UNL     1      -6.006  -8.831  11.311  0.00  0.00    +0.161 C 
ATOM      9  C   UNL     1      -6.255  -8.912   9.800  0.00  0.00    +0.145 C 
ATOM     10  C   UNL     1      -4.151 -10.374  11.148  0.00  0.00    +0.125 C 
ATOM     11  C   UNL     1      -5.713 -10.202   9.190  0.00  0.00    +0.036 C 
ATOM     12  C   UNL     1      -4.273 -10.450   9.626  0.00  0.00    +0.034 C 
ENDROOT
BRANCH   9   2
ATOM      2  O   UNL     1      -5.592  -7.816   9.164  0.00  0.00    -0.389 OA
ATOM     34  H   UNL     1      -5.644  -7.959   8.203  0.00  0.00    +0.210 HD
ENDBRANCH   9   2
BRANCH   8  13
ATOM     13  C   UNL     1      -6.955  -9.710  12.121  0.00  0.00    +0.115 C 
BRANCH  13   6
ATOM      6  N   UNL     1      -6.878  -9.392  13.538  0.00  0.00    -0.309 NA
ATOM     33  H   UNL     1      -5.965  -8.983  13.741  0.00  0.00    +0.122 HD
BRANCH   6  16
ATOM     16  C   UNL     1      -7.080 -10.581  14.354  0.00  0.00    +0.116 C 
BRANCH  16  18
ATOM     18  C   UNL     1      -8.019 -10.321  15.501  0.00  0.00    -0.033 A 
ATOM     21  C   UNL     1      -9.142 -11.132  15.681  0.00  0.00    +0.008 A 
ATOM     22  C   UNL     1      -7.770  -9.271  16.385  0.00  0.00    +0.008 A 
ATOM     23  C   UNL     1     -10.013 -10.891  16.743  0.00  0.00    +0.046 A 
ATOM     24  C   UNL     1      -8.641  -9.032  17.447  0.00  0.00    +0.046 A 
ATOM     25  C   UNL     1      -9.762  -9.841  17.626  0.00  0.00    +0.120 A 
BRANCH  25   5
ATOM      5  O   UNL     1     -10.613  -9.606  18.663  0.00  0.00    -0.495 OA
ATOM     29  C   UNL     1     -10.444 -10.402  19.834  0.00  0.00    +0.277 C 
ENDBRANCH  25   5
ENDBRANCH  16  18
ENDBRANCH   6  16
ENDBRANCH  13   6
ENDBRANCH   8  13
BRANCH  10  14
ATOM     14  C   UNL     1      -2.696 -10.499  11.582  0.00  0.00    +0.090 C 
BRANCH  14  15
ATOM      3  O   UNL     1      -1.692 -10.148  15.026  0.00  0.00    -0.356 OA
ATOM      7  N   UNL     1      -1.501  -9.953  13.663  0.00  0.00    -0.083 NA
ATOM     15  C   UNL     1      -2.562 -10.520  13.082  0.00  0.00    +0.086 A 
ATOM     17  C   UNL     1      -3.447 -11.083  14.018  0.00  0.00    +0.074 A 
ATOM     19  C   UNL     1      -2.852 -10.822  15.225  0.00  0.00    +0.175 A 
BRANCH  19  20
ATOM     20  C   UNL     1      -3.211 -11.115  16.618  0.00  0.00    +0.306 C 
BRANCH  20   4
ATOM      4  O   UNL     1      -4.220 -12.126  16.668  0.00  0.00    -0.484 OA
BRANCH   4  26
ATOM     26  C   UNL     1      -5.190 -11.973  17.620  0.00  0.00    +0.121 A 
ATOM     27  C   UNL     1      -6.268 -12.856  17.665  0.00  0.00    +0.045 A 
ATOM     28  C   UNL     1      -5.101 -10.932  18.544  0.00  0.00    +0.045 A 
ATOM     30  C   UNL     1      -7.257 -12.700  18.636  0.00  0.00    +0.004 A 
ATOM     31  C   UNL     1      -6.091 -10.776  19.514  0.00  0.00    +0.004 A 
ATOM     32  C   UNL     1      -7.170 -11.659  19.559  0.00  0.00    +0.000 A 
ENDBRANCH   4  26
ENDBRANCH  20   4
ENDBRANCH  19  20
ENDBRANCH  14  15
ENDBRANCH  10  14
TORSDOF 11
ENDMDL
MODEL 2
REMARK VINA RESULT:      -6.0     27.025     29.123
REMARK  Name = 75536338
REMARK  12 active torsions:
REMARK  status: ('A' for Active; 'I' for Inactive)
REMARK    1  A    between atoms: O_2  and  C_9
REMARK    2  A    between atoms: O_4  and  C_20
REMARK    3  A    between atoms: O_4  and  C_26
REMARK    4  A    between atoms: O_5  and  C_25
REMARK    5  A    between atoms: O_5  and  C_29
REMARK    6  A    between atoms: N_6  and  C_13
REMARK    7  A    between atoms: N_6  and  C_16
REMARK    8  A    between atoms: C_8  and  C_13
REMARK    9  A    between atoms: C_10  and  C_14
REMARK   10  A    between atoms: C_14  and  C_15
REMARK   11  A    between atoms: C_16  and  C_18
REMARK   12  A    between atoms: C_19  and  C_20
REMARK                            x       y       z     vdW  Elec       q    Type
REMARK                         _______ _______ _______ _____ _____    ______ ____
ROOT
ATOM      1  O   UNL     1      12.626  10.057  17.909  0.00  0.00    -0.369 OA
ATOM      8  C   UNL     1      12.436   8.953  17.015  0.00  0.00    +0.161 C 
ATOM      9  C   UNL     1      12.899   9.300  15.594  0.00  0.00    +0.145 C 
ATOM     10  C   UNL     1      13.959  10.569  17.970  0.00  0.00    +0.125 C 
ATOM     11  C   UNL     1      14.298   9.909  15.571  0.00  0.00    +0.036 C 
ATOM     12  C   UNL     1      14.418  11.038  16.589  0.00  0.00    +0.034 C 
ENDROOT
BRANCH   9   2
ATOM      2  O   UNL     1      11.995  10.258  15.037  0.00  0.00    -0.389 OA
ATOM     34  H   UNL     1      11.271  10.383  15.673  0.00  0.00    +0.210 HD
ENDBRANCH   9   2
BRANCH   8  13
ATOM     13  C   UNL     1      13.088   7.685  17.561  0.00  0.00    +0.115 C 
BRANCH  13   6
ATOM      6  N   UNL     1      12.177   6.970  18.442  0.00  0.00    -0.309 NA
ATOM     33  H   UNL     1      11.310   7.500  18.530  0.00  0.00    +0.122 HD
BRANCH   6  16
ATOM     16  C   UNL     1      12.770   6.769  19.757  0.00  0.00    +0.116 C 
BRANCH  16  18
ATOM     18  C   UNL     1      12.304   7.803  20.747  0.00  0.00    -0.033 A 
ATOM     21  C   UNL     1      13.200   8.757  21.233  0.00  0.00    +0.008 A 
ATOM     22  C   UNL     1      10.978   7.808  21.180  0.00  0.00    +0.008 A 
ATOM     23  C   UNL     1      12.769   9.715  22.150  0.00  0.00    +0.046 A 
ATOM     24  C   UNL     1      10.547   8.767  22.097  0.00  0.00    +0.046 A 
ATOM     25  C   UNL     1      11.442   9.720  22.582  0.00  0.00    +0.120 A 
BRANCH  25   5
ATOM      5  O   UNL     1      11.022  10.654  23.478  0.00  0.00    -0.495 OA
ATOM     29  C   UNL     1      11.057  12.017  23.058  0.00  0.00    +0.277 C 
ENDBRANCH  25   5
ENDBRANCH  16  18
ENDBRANCH   6  16
ENDBRANCH  13   6
ENDBRANCH   8  13
BRANCH  10  14
ATOM     14  C   UNL     1      13.961  11.725  18.963  0.00  0.00    +0.090 C 
BRANCH  14  15
ATOM      3  O   UNL     1      16.256  11.998  21.728  0.00  0.00    -0.356 OA
ATOM      7  N   UNL     1      15.081  12.334  21.068  0.00  0.00    -0.083 NA
ATOM     15  C   UNL     1      15.100  11.616  19.942  0.00  0.00    +0.086 A 
ATOM     17  C   UNL     1      16.252  10.817  19.837  0.00  0.00    +0.074 A 
ATOM     19  C   UNL     1      16.946  11.096  20.985  0.00  0.00    +0.175 A 
BRANCH  19  20
ATOM     20  C   UNL     1      18.223  10.630  21.539  0.00  0.00    +0.306 C 
BRANCH  20   4
ATOM      4  O   UNL     1      18.036   9.409  22.258  0.00  0.00    -0.484 OA
BRANCH   4  26
ATOM     26  C   UNL     1      18.230   8.252  21.557  0.00  0.00    +0.121 A 
ATOM     27  C   UNL     1      17.147   7.612  20.954  0.00  0.00    +0.045 A 
ATOM     28  C   UNL     1      19.511   7.710  21.444  0.00  0.00    +0.045 A 
ATOM     30  C   UNL     1      17.344   6.432  20.237  0.00  0.00    +0.004 A 
ATOM     31  C   UNL     1      19.708   6.530  20.728  0.00  0.00    +0.004 A 
ATOM     32  C   UNL     1      18.624   5.890  20.125  0.00  0.00    +0.000 A 
ENDBRANCH   4  26
ENDBRANCH  20   4
ENDBRANCH  19  20
ENDBRANCH  14  15
ENDBRANCH  10  14
TORSDOF 11
ENDMDL
MODEL 3
REMARK VINA RESULT:      -5.8     23.353     27.317
REMARK  Name = 75536338
REMARK  12 active torsions:
REMARK  status: ('A' for Active; 'I' for Inactive)
REMARK    1  A    between atoms: O_2  and  C_9
REMARK    2  A    between atoms: O_4  and  C_20
REMARK    3  A    between atoms: O_4  and  C_26
REMARK    4  A    between atoms: O_5  and  C_25
REMARK    5  A    between atoms: O_5  and  C_29
REMARK    6  A    between atoms: N_6  and  C_13
REMARK    7  A    between atoms: N_6  and  C_16
REMARK    8  A    between atoms: C_8  and  C_13
REMARK    9  A    between atoms: C_10  and  C_14
REMARK   10  A    between atoms: C_14  and  C_15
REMARK   11  A    between atoms: C_16  and  C_18
REMARK   12  A    between atoms: C_19  and  C_20
REMARK                            x       y       z     vdW  Elec       q    Type
REMARK                         _______ _______ _______ _____ _____    ______ ____
ROOT
ATOM      1  O   UNL     1      12.818   3.048   0.733  0.00  0.00    -0.369 OA
ATOM      8  C   UNL     1      13.311   3.824   1.833  0.00  0.00    +0.161 C 
ATOM      9  C   UNL     1      14.766   4.250   1.607  0.00  0.00    +0.145 C 
ATOM     10  C   UNL     1      12.922   3.674  -0.548  0.00  0.00    +0.125 C 
ATOM     11  C   UNL     1      14.981   4.880   0.234  0.00  0.00    +0.036 C 
ATOM     12  C   UNL     1      14.379   4.011  -0.865  0.00  0.00    +0.034 C 
ENDROOT
BRANCH   9   2
ATOM      2  O   UNL     1      15.604   3.094   1.694  0.00  0.00    -0.389 OA
ATOM     34  H   UNL     1      15.736   2.897   2.637  0.00  0.00    +0.210 HD
ENDBRANCH   9   2
BRANCH   8  13
ATOM     13  C   UNL     1      12.384   4.999   2.135  0.00  0.00    +0.115 C 
BRANCH  13   6
ATOM      6  N   UNL     1      11.415   4.646   3.161  0.00  0.00    -0.309 NA
ATOM     33  H   UNL     1      10.673   4.085   2.743  0.00  0.00    +0.122 HD
BRANCH   6  16
ATOM     16  C   UNL     1      10.846   5.838   3.776  0.00  0.00    +0.116 C 
BRANCH  16  18
ATOM     18  C   UNL     1      10.725   5.695   5.270  0.00  0.00    -0.033 A 
ATOM     21  C   UNL     1      11.478   6.516   6.112  0.00  0.00    +0.008 A 
ATOM     22  C   UNL     1       9.862   4.744   5.813  0.00  0.00    +0.008 A 
ATOM     23  C   UNL     1      11.367   6.383   7.496  0.00  0.00    +0.046 A 
ATOM     24  C   UNL     1       9.751   4.612   7.197  0.00  0.00    +0.046 A 
ATOM     25  C   UNL     1      10.503   5.432   8.038  0.00  0.00    +0.120 A 
BRANCH  25   5
ATOM      5  O   UNL     1      10.395   5.302   9.389  0.00  0.00    -0.495 OA
ATOM     29  C   UNL     1       9.203   4.699   9.890  0.00  0.00    +0.277 C 
ENDBRANCH  25   5
ENDBRANCH  16  18
ENDBRANCH   6  16
ENDBRANCH  13   6
ENDBRANCH   8  13
BRANCH  10  14
ATOM     14  C   UNL     1      12.353   2.707  -1.579  0.00  0.00    +0.090 C 
BRANCH  14  15
ATOM      3  O   UNL     1       9.306   3.396  -3.375  0.00  0.00    -0.356 OA
ATOM      7  N   UNL     1      10.184   2.535  -2.729  0.00  0.00    -0.083 NA
ATOM     15  C   UNL     1      11.196   3.311  -2.330  0.00  0.00    +0.086 A 
ATOM     17  C   UNL     1      11.014   4.657  -2.693  0.00  0.00    +0.074 A 
ATOM     19  C   UNL     1       9.810   4.655  -3.349  0.00  0.00    +0.175 A 
BRANCH  19  20
ATOM     20  C   UNL     1       9.003   5.699  -3.993  0.00  0.00    +0.306 C 
BRANCH  20   4
ATOM      4  O   UNL     1       7.622   5.531  -3.665  0.00  0.00    -0.484 OA
BRANCH   4  26
ATOM     26  C   UNL     1       7.004   6.594  -3.067  0.00  0.00    +0.121 A 
ATOM     27  C   UNL     1       5.611   6.648  -3.009  0.00  0.00    +0.045 A 
ATOM     28  C   UNL     1       7.765   7.625  -2.516  0.00  0.00    +0.045 A 
ATOM     30  C   UNL     1       4.980   7.732  -2.399  0.00  0.00    +0.004 A 
ATOM     31  C   UNL     1       7.134   8.709  -1.907  0.00  0.00    +0.004 A 
ATOM     32  C   UNL     1       5.741   8.763  -1.849  0.00  0.00    +0.000 A 
ENDBRANCH   4  26
ENDBRANCH  20   4
ENDBRANCH  19  20
ENDBRANCH  14  15
ENDBRANCH  10  14
TORSDOF 11
ENDMDL
MODEL 4
REMARK VINA RESULT:      -5.6      2.160      7.792
REMARK  Name = 75536338
REMARK  12 active torsions:
REMARK  status: ('A' for Active; 'I' for Inactive)
REMARK    1  A    between atoms: O_2  and  C_9
REMARK    2  A    between atoms: O_4  and  C_20
REMARK    3  A    between atoms: O_4  and  C_26
REMARK    4  A    between atoms: O_5  and  C_25
REMARK    5  A    between atoms: O_5  and  C_29
REMARK    6  A    between atoms: N_6  and  C_13
REMARK    7  A    between atoms: N_6  and  C_16
REMARK    8  A    between atoms: C_8  and  C_13
REMARK    9  A    between atoms: C_10  and  C_14
REMARK   10  A    between atoms: C_14  and  C_15
REMARK   11  A    between atoms: C_16  and  C_18
REMARK   12  A    between atoms: C_19  and  C_20
REMARK                            x       y       z     vdW  Elec       q    Type
REMARK                         _______ _______ _______ _____ _____    ______ ____
ROOT
ATOM      1  O   UNL     1      -8.019 -10.506  18.649  0.00  0.00    -0.369 OA
ATOM      8  C   UNL     1      -8.458 -11.492  19.592  0.00  0.00    +0.161 C 
ATOM      9  C   UNL     1      -9.931 -11.289  19.967  0.00  0.00    +0.145 C 
ATOM     10  C   UNL     1      -8.794 -10.424  17.450  0.00  0.00    +0.125 C 
ATOM     11  C   UNL     1     -10.827 -11.134  18.741  0.00  0.00    +0.036 C 
ATOM     12  C   UNL     1     -10.254 -10.104  17.773  0.00  0.00    +0.034 C 
ENDROOT
BRANCH   9   2
ATOM      2  O   UNL     1     -10.048 -10.096  20.747  0.00  0.00    -0.389 OA
ATOM     34  H   UNL     1     -10.171 -10.363  21.674  0.00  0.00    +0.210 HD
ENDBRANCH   9   2
BRANCH   8  13
ATOM     13  C   UNL     1      -8.159 -12.903  19.092  0.00  0.00    +0.115 C 
BRANCH  13   6
ATOM      6  N   UNL     1      -6.739 -13.070  18.825  0.00  0.00    -0.309 NA
ATOM     33  H   UNL     1      -6.249 -12.207  19.062  0.00  0.00    +0.122 HD
BRANCH   6  16
ATOM     16  C   UNL     1      -6.504 -13.403  17.426  0.00  0.00    +0.116 C 
BRANCH  16  18
ATOM     18  C   UNL     1      -5.382 -12.592  16.836  0.00  0.00    -0.033 A 
ATOM     21  C   UNL     1      -4.645 -13.096  15.763  0.00  0.00    +0.008 A 
ATOM     22  C   UNL     1      -5.076 -11.336  17.362  0.00  0.00    +0.008 A 
ATOM     23  C   UNL     1      -3.605 -12.345  15.217  0.00  0.00    +0.046 A 
ATOM     24  C   UNL     1      -4.036 -10.585  16.815  0.00  0.00    +0.046 A 
ATOM     25  C   UNL     1      -3.300 -11.089  15.743  0.00  0.00    +0.120 A 
BRANCH  25   5
ATOM      5  O   UNL     1      -2.285 -10.357  15.210  0.00  0.00    -0.495 OA
ATOM     29  C   UNL     1      -1.000 -10.492  15.814  0.00  0.00    +0.277 C 
ENDBRANCH  25   5
ENDBRANCH  16  18
ENDBRANCH   6  16
ENDBRANCH  13   6
ENDBRANCH   8  13
BRANCH  10  14
ATOM     14  C   UNL     1      -8.180  -9.333  16.581  0.00  0.00    +0.090 C 
BRANCH  14  15
ATOM      3  O   UNL     1      -8.976  -9.783  13.095  0.00  0.00    -0.356 OA
ATOM      7  N   UNL     1      -9.249  -9.289  14.365  0.00  0.00    -0.083 NA
ATOM     15  C   UNL     1      -8.223  -9.694  15.120  0.00  0.00    +0.086 A 
ATOM     17  C   UNL     1      -7.282 -10.439  14.389  0.00  0.00    +0.074 A 
ATOM     19  C   UNL     1      -7.804 -10.466  13.122  0.00  0.00    +0.175 A 
BRANCH  19  20
ATOM     20  C   UNL     1      -7.361 -11.059  11.854  0.00  0.00    +0.306 C 
BRANCH  20   4
ATOM      4  O   UNL     1      -6.014 -11.524  11.968  0.00  0.00    -0.484 OA
BRANCH   4  26
ATOM     26  C   UNL     1      -5.051 -10.750  11.383  0.00  0.00    +0.121 A 
ATOM     27  C   UNL     1      -5.332 -10.057  10.206  0.00  0.00    +0.045 A 
ATOM     28  C   UNL     1      -3.786 -10.653  11.964  0.00  0.00    +0.045 A 
ATOM     30  C   UNL     1      -4.350  -9.267   9.609  0.00  0.00    +0.004 A 
ATOM     31  C   UNL     1      -2.804  -9.863  11.368  0.00  0.00    +0.004 A 
ATOM     32  C   UNL     1      -3.086  -9.170  10.189  0.00  0.00    +0.000 A 
ENDBRANCH   4  26
ENDBRANCH  20   4
ENDBRANCH  19  20
ENDBRANCH  14  15
ENDBRANCH  10  14
TORSDOF 11
ENDMDL
MODEL 5
REMARK VINA RESULT:      -5.4     27.846     30.700
REMARK  Name = 75536338
REMARK  12 active torsions:
REMARK  status: ('A' for Active; 'I' for Inactive)
REMARK    1  A    between atoms: O_2  and  C_9
REMARK    2  A    between atoms: O_4  and  C_20
REMARK    3  A    between atoms: O_4  and  C_26
REMARK    4  A    between atoms: O_5  and  C_25
REMARK    5  A    between atoms: O_5  and  C_29
REMARK    6  A    between atoms: N_6  and  C_13
REMARK    7  A    between atoms: N_6  and  C_16
REMARK    8  A    between atoms: C_8  and  C_13
REMARK    9  A    between atoms: C_10  and  C_14
REMARK   10  A    between atoms: C_14  and  C_15
REMARK   11  A    between atoms: C_16  and  C_18
REMARK   12  A    between atoms: C_19  and  C_20
REMARK                            x       y       z     vdW  Elec       q    Type
REMARK                         _______ _______ _______ _____ _____    ______ ____
ROOT
ATOM      1  O   UNL     1      23.775   2.978  23.433  0.00  0.00    -0.369 OA
ATOM      8  C   UNL     1      23.389   3.737  22.280  0.00  0.00    +0.161 C 
ATOM      9  C   UNL     1      24.256   3.386  21.065  0.00  0.00    +0.145 C 
ATOM     10  C   UNL     1      23.771   1.560  23.258  0.00  0.00    +0.125 C 
ATOM     11  C   UNL     1      24.354   1.880  20.837  0.00  0.00    +0.036 C 
ATOM     12  C   UNL     1      24.718   1.154  22.128  0.00  0.00    +0.034 C 
ENDROOT
BRANCH   9   2
ATOM      2  O   UNL     1      25.580   3.881  21.286  0.00  0.00    -0.389 OA
ATOM     34  H   UNL     1      25.645   4.748  20.851  0.00  0.00    +0.210 HD
ENDBRANCH   9   2
BRANCH   8  13
ATOM     13  C   UNL     1      21.893   3.598  22.005  0.00  0.00    +0.115 C 
BRANCH  13   6
ATOM      6  N   UNL     1      21.279   4.900  21.797  0.00  0.00    -0.309 NA
ATOM     33  H   UNL     1      20.555   5.046  22.499  0.00  0.00    +0.122 HD
BRANCH   6  16
ATOM     16  C   UNL     1      20.703   4.999  20.462  0.00  0.00    +0.116 C 
BRANCH  16  18
ATOM     18  C   UNL     1      19.418   5.783  20.464  0.00  0.00    -0.033 A 
ATOM     21  C   UNL     1      18.413   5.478  19.543  0.00  0.00    +0.008 A 
ATOM     22  C   UNL     1      19.229   6.815  21.384  0.00  0.00    +0.008 A 
ATOM     23  C   UNL     1      17.223   6.205  19.544  0.00  0.00    +0.046 A 
ATOM     24  C   UNL     1      18.039   7.541  21.384  0.00  0.00    +0.046 A 
ATOM     25  C   UNL     1      17.036   7.236  20.464  0.00  0.00    +0.120 A 
BRANCH  25   5
ATOM      5  O   UNL     1      15.874   7.945  20.465  0.00  0.00    -0.495 OA
ATOM     29  C   UNL     1      14.760   7.366  21.140  0.00  0.00    +0.277 C 
ENDBRANCH  25   5
ENDBRANCH  16  18
ENDBRANCH   6  16
ENDBRANCH  13   6
ENDBRANCH   8  13
BRANCH  10  14
ATOM     14  C   UNL     1      24.202   0.933  24.578  0.00  0.00    +0.090 C 
BRANCH  14  15
ATOM      3  O   UNL     1      22.297  -1.719  26.103  0.00  0.00    -0.356 OA
ATOM      7  N   UNL     1      23.494  -1.136  25.706  0.00  0.00    -0.083 NA
ATOM     15  C   UNL     1      23.143   0.019  25.133  0.00  0.00    +0.086 A 
ATOM     17  C   UNL     1      21.751   0.217  25.139  0.00  0.00    +0.074 A 
ATOM     19  C   UNL     1      21.266  -0.905  25.760  0.00  0.00    +0.175 A 
BRANCH  19  20
ATOM     20  C   UNL     1      19.918  -1.371  26.107  0.00  0.00    +0.306 C 
BRANCH  20   4
ATOM      4  O   UNL     1      18.955  -0.821  25.204  0.00  0.00    -0.484 OA
BRANCH   4  26
ATOM     26  C   UNL     1      18.192  -1.716  24.508  0.00  0.00    +0.121 A 
ATOM     27  C   UNL     1      18.797  -2.792  23.858  0.00  0.00    +0.045 A 
ATOM     28  C   UNL     1      16.808  -1.554  24.446  0.00  0.00    +0.045 A 
ATOM     30  C   UNL     1      18.019  -3.705  23.148  0.00  0.00    +0.004 A 
ATOM     31  C   UNL     1      16.030  -2.467  23.736  0.00  0.00    +0.004 A 
ATOM     32  C   UNL     1      16.636  -3.543  23.086  0.00  0.00    +0.000 A 
ENDBRANCH   4  26
ENDBRANCH  20   4
ENDBRANCH  19  20
ENDBRANCH  14  15
ENDBRANCH  10  14
TORSDOF 11
ENDMDL
MODEL 6
REMARK VINA RESULT:      -5.4     28.041     30.580
REMARK  Name = 75536338
REMARK  12 active torsions:
REMARK  status: ('A' for Active; 'I' for Inactive)
REMARK    1  A    between atoms: O_2  and  C_9
REMARK    2  A    between atoms: O_4  and  C_20
REMARK    3  A    between atoms: O_4  and  C_26
REMARK    4  A    between atoms: O_5  and  C_25
REMARK    5  A    between atoms: O_5  and  C_29
REMARK    6  A    between atoms: N_6  and  C_13
REMARK    7  A    between atoms: N_6  and  C_16
REMARK    8  A    between atoms: C_8  and  C_13
REMARK    9  A    between atoms: C_10  and  C_14
REMARK   10  A    between atoms: C_14  and  C_15
REMARK   11  A    between atoms: C_16  and  C_18
REMARK   12  A    between atoms: C_19  and  C_20
REMARK                            x       y       z     vdW  Elec       q    Type
REMARK                         _______ _______ _______ _____ _____    ______ ____
ROOT
ATOM      1  O   UNL     1      19.531   7.813  22.257  0.00  0.00    -0.369 OA
ATOM      8  C   UNL     1      20.024   9.094  22.671  0.00  0.00    +0.161 C 
ATOM      9  C   UNL     1      21.539   9.204  22.458  0.00  0.00    +0.145 C 
ATOM     10  C   UNL     1      19.836   7.450  20.908  0.00  0.00    +0.125 C 
ATOM     11  C   UNL     1      21.961   8.779  21.055  0.00  0.00    +0.036 C 
ATOM     12  C   UNL     1      21.348   7.433  20.684  0.00  0.00    +0.034 C 
ENDROOT
BRANCH   9   2
ATOM      2  O   UNL     1      22.199   8.345  23.392  0.00  0.00    -0.389 OA
ATOM     34  H   UNL     1      21.664   7.537  23.477  0.00  0.00    +0.210 HD
ENDBRANCH   9   2
BRANCH   8  13
ATOM     13  C   UNL     1      19.244  10.225  22.004  0.00  0.00    +0.115 C 
BRANCH  13   6
ATOM      6  N   UNL     1      17.842  10.186  22.390  0.00  0.00    -0.309 NA
ATOM     33  H   UNL     1      17.672   9.355  22.956  0.00  0.00    +0.122 HD
BRANCH   6  16
ATOM     16  C   UNL     1      16.977  10.172  21.217  0.00  0.00    +0.116 C 
BRANCH  16  18
ATOM     18  C   UNL     1      15.571  10.593  21.552  0.00  0.00    -0.033 A 
ATOM     21  C   UNL     1      15.131  11.877  21.225  0.00  0.00    +0.008 A 
ATOM     22  C   UNL     1      14.708   9.703  22.191  0.00  0.00    +0.008 A 
ATOM     23  C   UNL     1      13.829  12.269  21.535  0.00  0.00    +0.046 A 
ATOM     24  C   UNL     1      13.406  10.095  22.501  0.00  0.00    +0.046 A 
ATOM     25  C   UNL     1      12.967  11.377  22.173  0.00  0.00    +0.120 A 
BRANCH  25   5
ATOM      5  O   UNL     1      11.696  11.759  22.477  0.00  0.00    -0.495 OA
ATOM     29  C   UNL     1      11.033  11.041  23.516  0.00  0.00    +0.277 C 
ENDBRANCH  25   5
ENDBRANCH  16  18
ENDBRANCH   6  16
ENDBRANCH  13   6
ENDBRANCH   8  13
BRANCH  10  14
ATOM     14  C   UNL     1      19.235   6.073  20.656  0.00  0.00    +0.090 C 
BRANCH  14  15
ATOM      3  O   UNL     1      16.138   5.967  18.816  0.00  0.00    -0.356 OA
ATOM      7  N   UNL     1      17.504   5.744  18.939  0.00  0.00    -0.083 NA
ATOM     15  C   UNL     1      17.814   6.166  20.168  0.00  0.00    +0.086 A 
ATOM     17  C   UNL     1      16.696   6.662  20.860  0.00  0.00    +0.074 A 
ATOM     19  C   UNL     1      15.668   6.515  19.965  0.00  0.00    +0.175 A 
BRANCH  19  20
ATOM     20  C   UNL     1      14.232   6.818  20.009  0.00  0.00    +0.306 C 
BRANCH  20   4
ATOM      4  O   UNL     1      13.703   6.902  18.683  0.00  0.00    -0.484 OA
BRANCH   4  26
ATOM     26  C   UNL     1      13.699   8.141  18.106  0.00  0.00    +0.121 A 
ATOM     27  C   UNL     1      13.302   9.254  18.847  0.00  0.00    +0.045 A 
ATOM     28  C   UNL     1      14.090   8.292  16.775  0.00  0.00    +0.045 A 
ATOM     30  C   UNL     1      13.298  10.518  18.258  0.00  0.00    +0.004 A 
ATOM     31  C   UNL     1      14.085   9.556  16.187  0.00  0.00    +0.004 A 
ATOM     32  C   UNL     1      13.688  10.670  16.928  0.00  0.00    +0.000 A 
ENDBRANCH   4  26
ENDBRANCH  20   4
ENDBRANCH  19  20
ENDBRANCH  14  15
ENDBRANCH  10  14
TORSDOF 11
ENDMDL
MODEL 7
REMARK VINA RESULT:      -5.3     27.579     30.072
REMARK  Name = 75536338
REMARK  12 active torsions:
REMARK  status: ('A' for Active; 'I' for Inactive)
REMARK    1  A    between atoms: O_2  and  C_9
REMARK    2  A    between atoms: O_4  and  C_20
REMARK    3  A    between atoms: O_4  and  C_26
REMARK    4  A    between atoms: O_5  and  C_25
REMARK    5  A    between atoms: O_5  and  C_29
REMARK    6  A    between atoms: N_6  and  C_13
REMARK    7  A    between atoms: N_6  and  C_16
REMARK    8  A    between atoms: C_8  and  C_13
REMARK    9  A    between atoms: C_10  and  C_14
REMARK   10  A    between atoms: C_14  and  C_15
REMARK   11  A    between atoms: C_16  and  C_18
REMARK   12  A    between atoms: C_19  and  C_20
REMARK                            x       y       z     vdW  Elec       q    Type
REMARK                         _______ _______ _______ _____ _____    ______ ____
ROOT
ATOM      1  O   UNL     1      19.061   6.433  21.910  0.00  0.00    -0.369 OA
ATOM      8  C   UNL     1      19.789   7.363  22.723  0.00  0.00    +0.161 C 
ATOM      9  C   UNL     1      21.270   6.977  22.820  0.00  0.00    +0.145 C 
ATOM     10  C   UNL     1      19.576   6.244  20.590  0.00  0.00    +0.125 C 
ATOM     11  C   UNL     1      21.890   6.701  21.453  0.00  0.00    +0.036 C 
ATOM     12  C   UNL     1      21.020   5.745  20.643  0.00  0.00    +0.034 C 
ENDROOT
BRANCH   9   2
ATOM      2  O   UNL     1      21.386   5.785  23.602  0.00  0.00    -0.389 OA
ATOM     34  H   UNL     1      20.632   5.213  23.377  0.00  0.00    +0.210 HD
ENDBRANCH   9   2
BRANCH   8  13
ATOM     13  C   UNL     1      19.575   8.797  22.243  0.00  0.00    +0.115 C 
BRANCH  13   6
ATOM      6  N   UNL     1      18.163   9.143  22.254  0.00  0.00    -0.309 NA
ATOM     33  H   UNL     1      17.612   8.302  22.422  0.00  0.00    +0.122 HD
BRANCH   6  16
ATOM     16  C   UNL     1      17.764   9.752  20.991  0.00  0.00    +0.116 C 
BRANCH  16  18
ATOM     18  C   UNL     1      16.480  10.527  21.123  0.00  0.00    -0.033 A 
ATOM     21  C   UNL     1      15.877  11.076  19.990  0.00  0.00    +0.008 A 
ATOM     22  C   UNL     1      15.892  10.697  22.377  0.00  0.00    +0.008 A 
ATOM     23  C   UNL     1      14.688  11.795  20.112  0.00  0.00    +0.046 A 
ATOM     24  C   UNL     1      14.703  11.415  22.498  0.00  0.00    +0.046 A 
ATOM     25  C   UNL     1      14.101  11.964  21.366  0.00  0.00    +0.120 A 
BRANCH  25   5
ATOM      5  O   UNL     1      12.941  12.665  21.485  0.00  0.00    -0.495 OA
ATOM     29  C   UNL     1      12.251  12.574  22.730  0.00  0.00    +0.277 C 
ENDBRANCH  25   5
ENDBRANCH  16  18
ENDBRANCH   6  16
ENDBRANCH  13   6
ENDBRANCH   8  13
BRANCH  10  14
ATOM     14  C   UNL     1      18.679   5.234  19.887  0.00  0.00    +0.090 C 
BRANCH  14  15
ATOM      3  O   UNL     1      15.749   6.349  18.109  0.00  0.00    -0.356 OA
ATOM      7  N   UNL     1      16.944   5.644  18.191  0.00  0.00    -0.083 NA
ATOM     15  C   UNL     1      17.386   5.858  19.434  0.00  0.00    +0.086 A 
ATOM     17  C   UNL     1      16.521   6.681  20.175  0.00  0.00    +0.074 A 
ATOM     19  C   UNL     1      15.508   6.963  19.295  0.00  0.00    +0.175 A 
BRANCH  19  20
ATOM     20  C   UNL     1      14.277   7.758  19.384  0.00  0.00    +0.306 C 
BRANCH  20   4
ATOM      4  O   UNL     1      14.035   8.147  20.739  0.00  0.00    -0.484 OA
BRANCH   4  26
ATOM     26  C   UNL     1      12.779   7.912  21.225  0.00  0.00    +0.121 A 
ATOM     27  C   UNL     1      12.055   8.948  21.815  0.00  0.00    +0.045 A 
ATOM     28  C   UNL     1      12.222   6.637  21.131  0.00  0.00    +0.045 A 
ATOM     30  C   UNL     1      10.774   8.709  22.311  0.00  0.00    +0.004 A 
ATOM     31  C   UNL     1      10.941   6.398  21.627  0.00  0.00    +0.004 A 
ATOM     32  C   UNL     1      10.217   7.434  22.218  0.00  0.00    +0.000 A 
ENDBRANCH   4  26
ENDBRANCH  20   4
ENDBRANCH  19  20
ENDBRANCH  14  15
ENDBRANCH  10  14
TORSDOF 11
ENDMDL
MODEL 8
REMARK VINA RESULT:      -5.3      2.034      7.220
REMARK  Name = 75536338
REMARK  12 active torsions:
REMARK  status: ('A' for Active; 'I' for Inactive)
REMARK    1  A    between atoms: O_2  and  C_9
REMARK    2  A    between atoms: O_4  and  C_20
REMARK    3  A    between atoms: O_4  and  C_26
REMARK    4  A    between atoms: O_5  and  C_25
REMARK    5  A    between atoms: O_5  and  C_29
REMARK    6  A    between atoms: N_6  and  C_13
REMARK    7  A    between atoms: N_6  and  C_16
REMARK    8  A    between atoms: C_8  and  C_13
REMARK    9  A    between atoms: C_10  and  C_14
REMARK   10  A    between atoms: C_14  and  C_15
REMARK   11  A    between atoms: C_16  and  C_18
REMARK   12  A    between atoms: C_19  and  C_20
REMARK                            x       y       z     vdW  Elec       q    Type
REMARK                         _______ _______ _______ _____ _____    ______ ____
ROOT
ATOM      1  O   UNL     1      -4.310 -12.488  16.498  0.00  0.00    -0.369 OA
ATOM      8  C   UNL     1      -4.070 -12.235  15.107  0.00  0.00    +0.161 C 
ATOM      9  C   UNL     1      -5.030 -11.171  14.560  0.00  0.00    +0.145 C 
ATOM     10  C   UNL     1      -4.256 -11.337  17.344  0.00  0.00    +0.125 C 
ATOM     11  C   UNL     1      -5.077  -9.924  15.438  0.00  0.00    +0.036 C 
ATOM     12  C   UNL     1      -5.284 -10.295  16.903  0.00  0.00    +0.034 C 
ENDROOT
BRANCH   9   2
ATOM      2  O   UNL     1      -6.349 -11.722  14.512  0.00  0.00    -0.389 OA
ATOM     34  H   UNL     1      -6.281 -12.667  14.729  0.00  0.00    +0.210 HD
ENDBRANCH   9   2
BRANCH   8  13
ATOM     13  C   UNL     1      -2.602 -11.901  14.855  0.00  0.00    +0.115 C 
BRANCH  13   6
ATOM      6  N   UNL     1      -2.239 -12.165  13.471  0.00  0.00    -0.309 NA
ATOM     33  H   UNL     1      -1.485 -12.851  13.446  0.00  0.00    +0.122 HD
BRANCH   6  16
ATOM     16  C   UNL     1      -1.819 -10.943  12.798  0.00  0.00    +0.116 C 
BRANCH  16  18
ATOM     18  C   UNL     1      -2.617 -10.688  11.547  0.00  0.00    -0.033 A 
ATOM     21  C   UNL     1      -2.611  -9.420  10.963  0.00  0.00    +0.008 A 
ATOM     22  C   UNL     1      -3.363 -11.717  10.972  0.00  0.00    +0.008 A 
ATOM     23  C   UNL     1      -3.351  -9.183   9.805  0.00  0.00    +0.046 A 
ATOM     24  C   UNL     1      -4.102 -11.479   9.814  0.00  0.00    +0.046 A 
ATOM     25  C   UNL     1      -4.096 -10.213   9.230  0.00  0.00    +0.120 A 
BRANCH  25   5
ATOM      5  O   UNL     1      -4.819  -9.982   8.100  0.00  0.00    -0.495 OA
ATOM     29  C   UNL     1      -6.160  -9.528   8.269  0.00  0.00    +0.277 C 
ENDBRANCH  25   5
ENDBRANCH  16  18
ENDBRANCH   6  16
ENDBRANCH  13   6
ENDBRANCH   8  13
BRANCH  10  14
ATOM     14  C   UNL     1      -4.532 -11.802  18.768  0.00  0.00    +0.090 C 
BRANCH  14  15
ATOM      3  O   UNL     1      -7.703 -10.713  20.090  0.00  0.00    -0.356 OA
ATOM      7  N   UNL     1      -6.326 -10.602  19.951  0.00  0.00    -0.083 NA
ATOM     15  C   UNL     1      -5.977 -11.610  19.147  0.00  0.00    +0.086 A 
ATOM     17  C   UNL     1      -7.081 -12.383  18.749  0.00  0.00    +0.074 A 
ATOM     19  C   UNL     1      -8.142 -11.778  19.371  0.00  0.00    +0.175 A 
BRANCH  19  20
ATOM     20  C   UNL     1      -9.585 -12.043  19.406  0.00  0.00    +0.306 C 
BRANCH  20   4
ATOM      4  O   UNL     1     -10.154 -11.866  18.106  0.00  0.00    -0.484 OA
BRANCH   4  26
ATOM     26  C   UNL     1      -9.996 -10.634  17.535  0.00  0.00    +0.121 A 
ATOM     27  C   UNL     1      -9.133 -10.472  16.452  0.00  0.00    +0.045 A 
ATOM     28  C   UNL     1     -10.698  -9.537  18.037  0.00  0.00    +0.045 A 
ATOM     30  C   UNL     1      -8.971  -9.215  15.869  0.00  0.00    +0.004 A 
ATOM     31  C   UNL     1     -10.536  -8.280  17.454  0.00  0.00    +0.004 A 
ATOM     32  C   UNL     1      -9.672  -8.119  16.371  0.00  0.00    +0.000 A 
ENDBRANCH   4  26
ENDBRANCH  20   4
ENDBRANCH  19  20
ENDBRANCH  14  15
ENDBRANCH  10  14
TORSDOF 11
ENDMDL
MODEL 9
REMARK VINA RESULT:      -5.3     24.009     27.939
REMARK  Name = 75536338
REMARK  12 active torsions:
REMARK  status: ('A' for Active; 'I' for Inactive)
REMARK    1  A    between atoms: O_2  and  C_9
REMARK    2  A    between atoms: O_4  and  C_20
REMARK    3  A    between atoms: O_4  and  C_26
REMARK    4  A    between atoms: O_5  and  C_25
REMARK    5  A    between atoms: O_5  and  C_29
REMARK    6  A    between atoms: N_6  and  C_13
REMARK    7  A    between atoms: N_6  and  C_16
REMARK    8  A    between atoms: C_8  and  C_13
REMARK    9  A    between atoms: C_10  and  C_14
REMARK   10  A    between atoms: C_14  and  C_15
REMARK   11  A    between atoms: C_16  and  C_18
REMARK   12  A    between atoms: C_19  and  C_20
REMARK                            x       y       z     vdW  Elec       q    Type
REMARK                         _______ _______ _______ _____ _____    ______ ____
ROOT
ATOM      1  O   UNL     1      11.443   6.580   7.020  0.00  0.00    -0.369 OA
ATOM      8  C   UNL     1      10.422   5.583   6.891  0.00  0.00    +0.161 C 
ATOM      9  C   UNL     1       9.225   5.889   7.800  0.00  0.00    +0.145 C 
ATOM     10  C   UNL     1      11.016   7.924   6.785  0.00  0.00    +0.125 C 
ATOM     11  C   UNL     1       8.737   7.327   7.655  0.00  0.00    +0.036 C 
ATOM     12  C   UNL     1       9.898   8.311   7.754  0.00  0.00    +0.034 C 
ENDROOT
BRANCH   9   2
ATOM      2  O   UNL     1       9.620   5.697   9.162  0.00  0.00    -0.389 OA
ATOM     34  H   UNL     1      10.547   5.980   9.241  0.00  0.00    +0.210 HD
ENDBRANCH   9   2
BRANCH   8  13
ATOM     13  C   UNL     1      10.026   5.388   5.429  0.00  0.00    +0.115 C 
BRANCH  13   6
ATOM      6  N   UNL     1      11.200   5.187   4.595  0.00  0.00    -0.309 NA
ATOM     33  H   UNL     1      11.519   6.088   4.240  0.00  0.00    +0.122 HD
BRANCH   6  16
ATOM     16  C   UNL     1      10.906   4.293   3.483  0.00  0.00    +0.116 C 
BRANCH  16  18
ATOM     18  C   UNL     1      10.657   5.049   2.206  0.00  0.00    -0.033 A 
ATOM     21  C   UNL     1      10.167   4.380   1.083  0.00  0.00    +0.008 A 
ATOM     22  C   UNL     1      10.915   6.419   2.143  0.00  0.00    +0.008 A 
ATOM     23  C   UNL     1       9.936   5.080  -0.100  0.00  0.00    +0.046 A 
ATOM     24  C   UNL     1      10.683   7.118   0.959  0.00  0.00    +0.046 A 
ATOM     25  C   UNL     1      10.194   6.449  -0.162  0.00  0.00    +0.120 A 
BRANCH  25   5
ATOM      5  O   UNL     1       9.969   7.133  -1.318  0.00  0.00    -0.495 OA
ATOM     29  C   UNL     1      10.408   6.521  -2.529  0.00  0.00    +0.277 C 
ENDBRANCH  25   5
ENDBRANCH  16  18
ENDBRANCH   6  16
ENDBRANCH  13   6
ENDBRANCH   8  13
BRANCH  10  14
ATOM     14  C   UNL     1      12.228   8.830   6.966  0.00  0.00    +0.090 C 
BRANCH  14  15
ATOM      3  O   UNL     1      15.297   8.358   5.138  0.00  0.00    -0.356 OA
ATOM      7  N   UNL     1      14.586   8.734   6.270  0.00  0.00    -0.083 NA
ATOM     15  C   UNL     1      13.304   8.528   5.957  0.00  0.00    +0.086 A 
ATOM     17  C   UNL     1      13.146   8.029   4.653  0.00  0.00    +0.074 A 
ATOM     19  C   UNL     1      14.430   7.941   4.181  0.00  0.00    +0.175 A 
BRANCH  19  20
ATOM     20  C   UNL     1      15.017   7.505   2.908  0.00  0.00    +0.306 C 
BRANCH  20   4
ATOM      4  O   UNL     1      15.041   6.077   2.837  0.00  0.00    -0.484 OA
BRANCH   4  26
ATOM     26  C   UNL     1      14.531   5.515   1.700  0.00  0.00    +0.121 A 
ATOM     27  C   UNL     1      14.232   4.152   1.670  0.00  0.00    +0.045 A 
ATOM     28  C   UNL     1      14.310   6.302   0.570  0.00  0.00    +0.045 A 
ATOM     30  C   UNL     1      13.712   3.578   0.511  0.00  0.00    +0.004 A 
ATOM     31  C   UNL     1      13.789   5.728  -0.589  0.00  0.00    +0.004 A 
ATOM     32  C   UNL     1      13.491   4.365  -0.619  0.00  0.00    +0.000 A 
ENDBRANCH   4  26
ENDBRANCH  20   4
ENDBRANCH  19  20
ENDBRANCH  14  15
ENDBRANCH  10  14
TORSDOF 11
ENDMDL
MODEL 10
REMARK VINA RESULT:      -5.2     28.537     30.889
REMARK  Name = 75536338
REMARK  12 active torsions:
REMARK  status: ('A' for Active; 'I' for Inactive)
REMARK    1  A    between atoms: O_2  and  C_9
REMARK    2  A    between atoms: O_4  and  C_20
REMARK    3  A    between atoms: O_4  and  C_26
REMARK    4  A    between atoms: O_5  and  C_25
REMARK    5  A    between atoms: O_5  and  C_29
REMARK    6  A    between atoms: N_6  and  C_13
REMARK    7  A    between atoms: N_6  and  C_16
REMARK    8  A    between atoms: C_8  and  C_13
REMARK    9  A    between atoms: C_10  and  C_14
REMARK   10  A    between atoms: C_14  and  C_15
REMARK   11  A    between atoms: C_16  and  C_18
REMARK   12  A    between atoms: C_19  and  C_20
REMARK                            x       y       z     vdW  Elec       q    Type
REMARK                         _______ _______ _______ _____ _____    ______ ____
ROOT
ATOM      1  O   UNL     1      19.456   8.062  22.493  0.00  0.00    -0.369 OA
ATOM      8  C   UNL     1      19.818   9.373  22.944  0.00  0.00    +0.161 C 
ATOM      9  C   UNL     1      21.311   9.647  22.722  0.00  0.00    +0.145 C 
ATOM     10  C   UNL     1      19.781   7.774  21.131  0.00  0.00    +0.125 C 
ATOM     11  C   UNL     1      21.759   9.312  21.302  0.00  0.00    +0.036 C 
ATOM     12  C   UNL     1      21.284   7.921  20.894  0.00  0.00    +0.034 C 
ENDROOT
BRANCH   9   2
ATOM      2  O   UNL     1      22.067   8.832  23.622  0.00  0.00    -0.389 OA
ATOM     34  H   UNL     1      22.551   9.427  24.220  0.00  0.00    +0.210 HD
ENDBRANCH   9   2
BRANCH   8  13
ATOM     13  C   UNL     1      18.917  10.437  22.319  0.00  0.00    +0.115 C 
BRANCH  13   6
ATOM      6  N   UNL     1      17.515  10.077  22.460  0.00  0.00    -0.309 NA
ATOM     33  H   UNL     1      17.406   9.077  22.291  0.00  0.00    +0.122 HD
BRANCH   6  16
ATOM     16  C   UNL     1      16.686  10.829  21.527  0.00  0.00    +0.116 C 
BRANCH  16  18
ATOM     18  C   UNL     1      15.527  11.496  22.219  0.00  0.00    -0.033 A 
ATOM     21  C   UNL     1      14.941  10.894  23.334  0.00  0.00    +0.008 A 
ATOM     22  C   UNL     1      15.037  12.713  21.746  0.00  0.00    +0.008 A 
ATOM     23  C   UNL     1      13.867  11.511  23.975  0.00  0.00    +0.046 A 
ATOM     24  C   UNL     1      13.963  13.329  22.388  0.00  0.00    +0.046 A 
ATOM     25  C   UNL     1      13.378  12.729  23.502  0.00  0.00    +0.120 A 
BRANCH  25   5
ATOM      5  O   UNL     1      12.329  13.330  24.127  0.00  0.00    -0.495 OA
ATOM     29  C   UNL     1      12.212  13.131  25.534  0.00  0.00    +0.277 C 
ENDBRANCH  25   5
ENDBRANCH  16  18
ENDBRANCH   6  16
ENDBRANCH  13   6
ENDBRANCH   8  13
BRANCH  10  14
ATOM     14  C   UNL     1      19.323   6.350  20.841  0.00  0.00    +0.090 C 
BRANCH  14  15
ATOM      3  O   UNL     1      16.437   5.778  18.759  0.00  0.00    -0.356 OA
ATOM      7  N   UNL     1      17.770   5.578  19.094  0.00  0.00    -0.083 NA
ATOM     15  C   UNL     1      17.968   6.324  20.185  0.00  0.00    +0.086 A 
ATOM     17  C   UNL     1      16.807   7.011  20.580  0.00  0.00    +0.074 A 
ATOM     19  C   UNL     1      15.874   6.633  19.649  0.00  0.00    +0.175 A 
BRANCH  19  20
ATOM     20  C   UNL     1      14.458   6.958  19.442  0.00  0.00    +0.306 C 
BRANCH  20   4
ATOM      4  O   UNL     1      14.272   8.376  19.417  0.00  0.00    -0.484 OA
BRANCH   4  26
ATOM     26  C   UNL     1      13.314   8.879  20.253  0.00  0.00    +0.121 A 
ATOM     27  C   UNL     1      12.837   8.108  21.312  0.00  0.00    +0.045 A 
ATOM     28  C   UNL     1      12.813  10.164  20.045  0.00  0.00    +0.045 A 
ATOM     30  C   UNL     1      11.860   8.621  22.165  0.00  0.00    +0.004 A 
ATOM     31  C   UNL     1      11.836  10.677  20.897  0.00  0.00    +0.004 A 
ATOM     32  C   UNL     1      11.359   9.905  21.957  0.00  0.00    +0.000 A 
ENDBRANCH   4  26
ENDBRANCH  20   4
ENDBRANCH  19  20
ENDBRANCH  14  15
ENDBRANCH  10  14
TORSDOF 11
ENDMDL
