MODEL 1
REMARK VINA RESULT:      -8.0      0.000      0.000
REMARK  Name = 11911663
REMARK  10 active torsions:
REMARK  status: ('A' for Active; 'I' for Inactive)
REMARK    1  A    between atoms: O_3  and  C_14
REMARK    2  A    between atoms: O_3  and  C_18
REMARK    3  A    between atoms: N_6  and  C_13
REMARK    4  A    between atoms: N_9  and  C_22
REMARK    5  A    between atoms: N_10  and  C_32
REMARK    6  A    between atoms: N_10  and  C_35
REMARK    7  A    between atoms: N_10  and  C_36
REMARK    8  A    between atoms: C_19  and  C_23
REMARK    9  A    between atoms: C_28  and  C_34
REMARK   10  A    between atoms: C_34  and  C_37
REMARK                            x       y       z     vdW  Elec       q    Type
REMARK                         _______ _______ _______ _____ _____    ______ ____
ROOT
ATOM      1  O   UNL     1     -13.668   4.941  22.318  0.00  0.00    -0.368 OA
ATOM      2  O   UNL     1     -15.458   7.231  23.299  0.00  0.00    -0.368 OA
ATOM     11  C   UNL     1     -15.776   5.916  22.795  0.00  0.00    +0.173 C 
ATOM     12  C   UNL     1     -14.775   5.613  21.698  0.00  0.00    +0.192 C 
ATOM     13  C   UNL     1     -15.486   4.875  23.851  0.00  0.00    +0.130 C 
ATOM     14  C   UNL     1     -14.393   6.991  21.215  0.00  0.00    +0.235 C 
ATOM     15  C   UNL     1     -13.993   4.653  23.688  0.00  0.00    +0.185 C 
ATOM     16  C   UNL     1     -14.413   7.794  22.495  0.00  0.00    +0.207 C 
ENDROOT
BRANCH  13   6
ATOM      6  N   UNL     1     -16.210   3.654  23.563  0.00  0.00    -0.306 N 
ATOM      7  N   UNL     1     -16.161   2.988  25.786  0.00  0.00    -0.214 NA
ATOM      8  N   UNL     1     -17.222   1.634  24.098  0.00  0.00    -0.223 NA
ATOM     17  C   UNL     1     -16.546   2.718  24.524  0.00  0.00    +0.216 A 
ATOM     19  C   UNL     1     -16.505   2.055  26.698  0.00  0.00    +0.076 A 
ATOM     20  C   UNL     1     -17.533   0.742  25.062  0.00  0.00    +0.116 A 
ATOM     21  C   UNL     1     -17.197   0.901  26.391  0.00  0.00    +0.048 A 
ATOM     38  H   UNL     1     -16.541   3.484  22.620  0.00  0.00    +0.149 HD
BRANCH  19  23
ATOM     23  C   UNL     1     -16.095   2.341  28.053  0.00  0.00    +0.001 A 
ATOM     26  C   UNL     1     -15.843   1.295  28.940  0.00  0.00    +0.012 A 
ATOM     27  C   UNL     1     -15.948   3.663  28.473  0.00  0.00    +0.012 A 
ATOM     29  C   UNL     1     -15.446   1.571  30.248  0.00  0.00    +0.024 A 
ATOM     30  C   UNL     1     -15.551   3.938  29.781  0.00  0.00    +0.024 A 
ATOM     32  C   UNL     1     -15.299   2.892  30.668  0.00  0.00    +0.029 A 
BRANCH  32  10
ATOM     10  N   UNL     1     -14.898   3.172  31.992  0.00  0.00    -0.336 N 
ATOM     35  C   UNL     1     -14.146   4.374  32.292  0.00  0.00    +0.129 C 
ATOM     36  C   UNL     1     -15.244   2.269  33.070  0.00  0.00    +0.129 C 
ENDBRANCH  32  10
ENDBRANCH  19  23
ENDBRANCH  13   6
BRANCH  14   3
ATOM      3  O   UNL     1     -13.135   7.036  20.579  0.00  0.00    -0.442 OA
BRANCH   3  18
ATOM      4  O   UNL     1     -14.019   8.036  18.722  0.00  0.00    -0.226 OA
ATOM      9  N   UNL     1     -11.735   8.170  19.222  0.00  0.00    -0.251 N 
ATOM     18  C   UNL     1     -13.046   7.784  19.423  0.00  0.00    +0.405 C 
ATOM     39  H   UNL     1     -11.063   7.861  19.920  0.00  0.00    +0.158 HD
BRANCH   9  22
ATOM     22  C   UNL     1     -11.208   8.943  18.162  0.00  0.00    +0.037 A 
ATOM     24  C   UNL     1     -10.864  10.277  18.376  0.00  0.00    +0.034 A 
ATOM     25  C   UNL     1     -11.033   8.370  16.903  0.00  0.00    +0.023 A 
ATOM     28  C   UNL     1     -10.343  11.039  17.330  0.00  0.00    +0.019 A 
ATOM     31  C   UNL     1     -10.512   9.132  15.857  0.00  0.00    +0.002 A 
ATOM     33  C   UNL     1     -10.167  10.466  16.070  0.00  0.00    +0.011 A 
BRANCH  28  34
ATOM      5  O   UNL     1     -10.639  13.159  18.321  0.00  0.00    -0.292 OA
ATOM     34  C   UNL     1      -9.983  12.430  17.552  0.00  0.00    +0.160 C 
ATOM     37  C   UNL     1      -8.778  13.034  16.837  0.00  0.00    +0.091 C 
ENDBRANCH  28  34
ENDBRANCH   9  22
ENDBRANCH   3  18
ENDBRANCH  14   3
TORSDOF 7
ENDMDL
MODEL 2
REMARK VINA RESULT:      -7.9     16.651     18.815
REMARK  Name = 11911663
REMARK  10 active torsions:
REMARK  status: ('A' for Active; 'I' for Inactive)
REMARK    1  A    between atoms: O_3  and  C_14
REMARK    2  A    between atoms: O_3  and  C_18
REMARK    3  A    between atoms: N_6  and  C_13
REMARK    4  A    between atoms: N_9  and  C_22
REMARK    5  A    between atoms: N_10  and  C_32
REMARK    6  A    between atoms: N_10  and  C_35
REMARK    7  A    between atoms: N_10  and  C_36
REMARK    8  A    between atoms: C_19  and  C_23
REMARK    9  A    between atoms: C_28  and  C_34
REMARK   10  A    between atoms: C_34  and  C_37
REMARK                            x       y       z     vdW  Elec       q    Type
REMARK                         _______ _______ _______ _____ _____    ______ ____
ROOT
ATOM      1  O   UNL     1     -11.561  -8.620  17.427  0.00  0.00    -0.368 OA
ATOM      2  O   UNL     1      -9.477  -8.419  15.185  0.00  0.00    -0.368 OA
ATOM     11  C   UNL     1      -9.335  -8.494  16.620  0.00  0.00    +0.173 C 
ATOM     12  C   UNL     1     -10.480  -7.698  17.216  0.00  0.00    +0.192 C 
ATOM     13  C   UNL     1      -9.588  -9.907  17.091  0.00  0.00    +0.130 C 
ATOM     14  C   UNL     1     -10.795  -6.709  16.120  0.00  0.00    +0.235 C 
ATOM     15  C   UNL     1     -11.104  -9.957  17.167  0.00  0.00    +0.185 C 
ATOM     16  C   UNL     1     -10.556  -7.528  14.872  0.00  0.00    +0.207 C 
ENDROOT
BRANCH  13   6
ATOM      6  N   UNL     1      -9.012 -10.109  18.403  0.00  0.00    -0.306 N 
ATOM      7  N   UNL     1      -6.938 -10.655  17.513  0.00  0.00    -0.214 NA
ATOM      8  N   UNL     1      -7.309 -10.627  19.894  0.00  0.00    -0.223 NA
ATOM     17  C   UNL     1      -7.696 -10.479  18.613  0.00  0.00    +0.216 A 
ATOM     19  C   UNL     1      -5.661 -11.016  17.753  0.00  0.00    +0.076 A 
ATOM     20  C   UNL     1      -6.020 -10.988  20.062  0.00  0.00    +0.116 A 
ATOM     21  C   UNL     1      -5.141 -11.199  19.019  0.00  0.00    +0.048 A 
ATOM     38  H   UNL     1      -9.574  -9.924  19.227  0.00  0.00    +0.149 HD
BRANCH  19  23
ATOM     23  C   UNL     1      -4.845 -11.204  16.577  0.00  0.00    +0.001 A 
ATOM     26  C   UNL     1      -3.486 -10.892  16.615  0.00  0.00    +0.012 A 
ATOM     27  C   UNL     1      -5.415 -11.701  15.405  0.00  0.00    +0.012 A 
ATOM     29  C   UNL     1      -2.698 -11.075  15.479  0.00  0.00    +0.024 A 
ATOM     30  C   UNL     1      -4.627 -11.884  14.270  0.00  0.00    +0.024 A 
ATOM     32  C   UNL     1      -3.268 -11.571  14.307  0.00  0.00    +0.029 A 
BRANCH  32  10
ATOM     10  N   UNL     1      -2.471 -11.757  13.157  0.00  0.00    -0.336 N 
ATOM     35  C   UNL     1      -1.902 -13.056  12.860  0.00  0.00    +0.129 C 
ATOM     36  C   UNL     1      -2.222 -10.653  12.251  0.00  0.00    +0.129 C 
ENDBRANCH  32  10
ENDBRANCH  19  23
ENDBRANCH  13   6
BRANCH  14   3
ATOM      3  O   UNL     1     -12.110  -6.203  16.180  0.00  0.00    -0.442 OA
BRANCH   3  18
ATOM      4  O   UNL     1     -13.579  -6.906  14.573  0.00  0.00    -0.226 OA
ATOM      9  N   UNL     1     -12.410  -4.887  14.373  0.00  0.00    -0.251 N 
ATOM     18  C   UNL     1     -12.782  -6.069  14.983  0.00  0.00    +0.405 C 
ATOM     39  H   UNL     1     -11.729  -4.319  14.872  0.00  0.00    +0.158 HD
BRANCH   9  22
ATOM     22  C   UNL     1     -12.857  -4.366  13.138  0.00  0.00    +0.037 A 
ATOM     24  C   UNL     1     -12.030  -4.424  12.016  0.00  0.00    +0.034 A 
ATOM     25  C   UNL     1     -14.126  -3.795  13.041  0.00  0.00    +0.023 A 
ATOM     28  C   UNL     1     -12.472  -3.911  10.796  0.00  0.00    +0.019 A 
ATOM     31  C   UNL     1     -14.568  -3.282  11.822  0.00  0.00    +0.002 A 
ATOM     33  C   UNL     1     -13.742  -3.340  10.699  0.00  0.00    +0.011 A 
BRANCH  28  34
ATOM      5  O   UNL     1     -11.468  -2.989   8.872  0.00  0.00    -0.292 OA
ATOM     34  C   UNL     1     -11.613  -3.971   9.626  0.00  0.00    +0.160 C 
ATOM     37  C   UNL     1     -10.859  -5.255   9.292  0.00  0.00    +0.091 C 
ENDBRANCH  28  34
ENDBRANCH   9  22
ENDBRANCH   3  18
ENDBRANCH  14   3
TORSDOF 7
ENDMDL
MODEL 3
REMARK VINA RESULT:      -7.9      1.216      2.070
REMARK  Name = 11911663
REMARK  10 active torsions:
REMARK  status: ('A' for Active; 'I' for Inactive)
REMARK    1  A    between atoms: O_3  and  C_14
REMARK    2  A    between atoms: O_3  and  C_18
REMARK    3  A    between atoms: N_6  and  C_13
REMARK    4  A    between atoms: N_9  and  C_22
REMARK    5  A    between atoms: N_10  and  C_32
REMARK    6  A    between atoms: N_10  and  C_35
REMARK    7  A    between atoms: N_10  and  C_36
REMARK    8  A    between atoms: C_19  and  C_23
REMARK    9  A    between atoms: C_28  and  C_34
REMARK   10  A    between atoms: C_34  and  C_37
REMARK                            x       y       z     vdW  Elec       q    Type
REMARK                         _______ _______ _______ _____ _____    ______ ____
ROOT
ATOM      1  O   UNL     1     -13.911   4.866  22.481  0.00  0.00    -0.368 OA
ATOM      2  O   UNL     1     -15.756   7.149  23.372  0.00  0.00    -0.368 OA
ATOM     11  C   UNL     1     -16.043   5.820  22.890  0.00  0.00    +0.173 C 
ATOM     12  C   UNL     1     -15.014   5.508  21.821  0.00  0.00    +0.192 C 
ATOM     13  C   UNL     1     -15.762   4.806  23.974  0.00  0.00    +0.130 C 
ATOM     14  C   UNL     1     -14.641   6.881  21.317  0.00  0.00    +0.235 C 
ATOM     15  C   UNL     1     -14.263   4.603  23.848  0.00  0.00    +0.185 C 
ATOM     16  C   UNL     1     -14.701   7.711  22.579  0.00  0.00    +0.207 C 
ENDROOT
BRANCH  13   6
ATOM      6  N   UNL     1     -16.462   3.568  23.697  0.00  0.00    -0.306 N 
ATOM      7  N   UNL     1     -16.235   2.837  25.888  0.00  0.00    -0.214 NA
ATOM      8  N   UNL     1     -17.363   1.497  24.234  0.00  0.00    -0.223 NA
ATOM     17  C   UNL     1     -16.697   2.592  24.648  0.00  0.00    +0.216 A 
ATOM     19  C   UNL     1     -16.481   1.865  26.791  0.00  0.00    +0.076 A 
ATOM     20  C   UNL     1     -17.575   0.566  25.187  0.00  0.00    +0.116 A 
ATOM     21  C   UNL     1     -17.153   0.697  26.494  0.00  0.00    +0.048 A 
ATOM     38  H   UNL     1     -16.852   3.414  22.774  0.00  0.00    +0.149 HD
BRANCH  19  23
ATOM     23  C   UNL     1     -15.988   2.125  28.122  0.00  0.00    +0.001 A 
ATOM     26  C   UNL     1     -15.743   3.436  28.531  0.00  0.00    +0.012 A 
ATOM     27  C   UNL     1     -15.759   1.065  29.001  0.00  0.00    +0.012 A 
ATOM     29  C   UNL     1     -15.268   3.687  29.818  0.00  0.00    +0.024 A 
ATOM     30  C   UNL     1     -15.284   1.317  30.287  0.00  0.00    +0.024 A 
ATOM     32  C   UNL     1     -15.039   2.628  30.696  0.00  0.00    +0.029 A 
BRANCH  32  10
ATOM     10  N   UNL     1     -14.558   2.881  31.998  0.00  0.00    -0.336 N 
ATOM     35  C   UNL     1     -13.272   3.519  32.194  0.00  0.00    +0.129 C 
ATOM     36  C   UNL     1     -15.350   2.519  33.156  0.00  0.00    +0.129 C 
ENDBRANCH  32  10
ENDBRANCH  19  23
ENDBRANCH  13   6
BRANCH  14   3
ATOM      3  O   UNL     1     -13.369   6.931  20.709  0.00  0.00    -0.442 OA
BRANCH   3  18
ATOM      4  O   UNL     1     -14.185   8.324  19.088  0.00  0.00    -0.226 OA
ATOM      9  N   UNL     1     -11.899   7.850  19.267  0.00  0.00    -0.251 N 
ATOM     18  C   UNL     1     -13.232   7.767  19.620  0.00  0.00    +0.405 C 
ATOM     39  H   UNL     1     -11.249   7.310  19.833  0.00  0.00    +0.158 HD
BRANCH   9  22
ATOM     22  C   UNL     1     -11.322   8.595  18.212  0.00  0.00    +0.037 A 
ATOM     24  C   UNL     1     -11.526   8.202  16.890  0.00  0.00    +0.034 A 
ATOM     25  C   UNL     1     -10.551   9.721  18.496  0.00  0.00    +0.023 A 
ATOM     28  C   UNL     1     -10.958   8.938  15.849  0.00  0.00    +0.019 A 
ATOM     31  C   UNL     1      -9.983  10.457  17.455  0.00  0.00    +0.002 A 
ATOM     33  C   UNL     1     -10.187  10.066  16.132  0.00  0.00    +0.011 A 
BRANCH  28  34
ATOM      5  O   UNL     1     -12.120   8.978  13.798  0.00  0.00    -0.292 OA
ATOM     34  C   UNL     1     -11.170   8.532  14.469  0.00  0.00    +0.160 C 
ATOM     37  C   UNL     1     -10.220   7.539  13.807  0.00  0.00    +0.091 C 
ENDBRANCH  28  34
ENDBRANCH   9  22
ENDBRANCH   3  18
ENDBRANCH  14   3
TORSDOF 7
ENDMDL
MODEL 4
REMARK VINA RESULT:      -7.7     18.193     22.189
REMARK  Name = 11911663
REMARK  10 active torsions:
REMARK  status: ('A' for Active; 'I' for Inactive)
REMARK    1  A    between atoms: O_3  and  C_14
REMARK    2  A    between atoms: O_3  and  C_18
REMARK    3  A    between atoms: N_6  and  C_13
REMARK    4  A    between atoms: N_9  and  C_22
REMARK    5  A    between atoms: N_10  and  C_32
REMARK    6  A    between atoms: N_10  and  C_35
REMARK    7  A    between atoms: N_10  and  C_36
REMARK    8  A    between atoms: C_19  and  C_23
REMARK    9  A    between atoms: C_28  and  C_34
REMARK   10  A    between atoms: C_34  and  C_37
REMARK                            x       y       z     vdW  Elec       q    Type
REMARK                         _______ _______ _______ _____ _____    ______ ____
ROOT
ATOM      1  O   UNL     1      -6.003 -12.194  19.188  0.00  0.00    -0.368 OA
ATOM      2  O   UNL     1      -7.319 -11.327  16.555  0.00  0.00    -0.368 OA
ATOM     11  C   UNL     1      -6.051 -10.980  17.151  0.00  0.00    +0.173 C 
ATOM     12  C   UNL     1      -6.278 -10.892  18.647  0.00  0.00    +0.192 C 
ATOM     13  C   UNL     1      -5.077 -12.125  16.997  0.00  0.00    +0.130 C 
ATOM     14  C   UNL     1      -7.746 -10.549  18.735  0.00  0.00    +0.235 C 
ATOM     15  C   UNL     1      -5.455 -13.030  18.156  0.00  0.00    +0.185 C 
ATOM     16  C   UNL     1      -8.325 -11.330  17.577  0.00  0.00    +0.207 C 
ENDROOT
BRANCH  13   6
ATOM      6  N   UNL     1      -3.718 -11.652  17.150  0.00  0.00    -0.306 N 
ATOM      7  N   UNL     1      -3.583 -11.025  14.919  0.00  0.00    -0.214 NA
ATOM      8  N   UNL     1      -1.725 -10.710  16.421  0.00  0.00    -0.223 NA
ATOM     17  C   UNL     1      -2.976 -11.105  16.119  0.00  0.00    +0.216 A 
ATOM     19  C   UNL     1      -2.832 -10.486  13.936  0.00  0.00    +0.076 A 
ATOM     20  C   UNL     1      -1.031 -10.181  15.392  0.00  0.00    +0.116 A 
ATOM     21  C   UNL     1      -1.538 -10.042  14.116  0.00  0.00    +0.048 A 
ATOM     38  H   UNL     1      -3.286 -11.668  18.068  0.00  0.00    +0.149 HD
BRANCH  19  23
ATOM     23  C   UNL     1      -3.479 -10.397  12.649  0.00  0.00    +0.001 A 
ATOM     26  C   UNL     1      -4.872 -10.404  12.567  0.00  0.00    +0.012 A 
ATOM     27  C   UNL     1      -2.712 -10.302  11.487  0.00  0.00    +0.012 A 
ATOM     29  C   UNL     1      -5.497 -10.317  11.323  0.00  0.00    +0.024 A 
ATOM     30  C   UNL     1      -3.338 -10.215  10.244  0.00  0.00    +0.024 A 
ATOM     32  C   UNL     1      -4.730 -10.222  10.162  0.00  0.00    +0.029 A 
BRANCH  32  10
ATOM     10  N   UNL     1      -5.362 -10.134   8.903  0.00  0.00    -0.336 N 
ATOM     35  C   UNL     1      -6.495  -9.251   8.711  0.00  0.00    +0.129 C 
ATOM     36  C   UNL     1      -4.878 -10.916   7.784  0.00  0.00    +0.129 C 
ENDBRANCH  32  10
ENDBRANCH  19  23
ENDBRANCH  13   6
BRANCH  14   3
ATOM      3  O   UNL     1      -8.335 -10.907  19.965  0.00  0.00    -0.442 OA
BRANCH   3  18
ATOM      4  O   UNL     1     -10.140 -12.299  20.159  0.00  0.00    -0.226 OA
ATOM      9  N   UNL     1     -10.389 -10.019  19.683  0.00  0.00    -0.251 N 
ATOM     18  C   UNL     1      -9.687 -11.178  19.953  0.00  0.00    +0.405 C 
ATOM     39  H   UNL     1      -9.833  -9.180  19.540  0.00  0.00    +0.158 HD
BRANCH   9  22
ATOM     22  C   UNL     1     -11.789  -9.854  19.580  0.00  0.00    +0.037 A 
ATOM     24  C   UNL     1     -12.381  -9.688  18.328  0.00  0.00    +0.034 A 
ATOM     25  C   UNL     1     -12.578  -9.857  20.730  0.00  0.00    +0.023 A 
ATOM     28  C   UNL     1     -13.763  -9.526  18.227  0.00  0.00    +0.019 A 
ATOM     31  C   UNL     1     -13.959  -9.695  20.629  0.00  0.00    +0.002 A 
ATOM     33  C   UNL     1     -14.553  -9.530  19.377  0.00  0.00    +0.011 A 
BRANCH  28  34
ATOM      5  O   UNL     1     -15.231 -10.161  16.493  0.00  0.00    -0.292 OA
ATOM     34  C   UNL     1     -14.383  -9.355  16.923  0.00  0.00    +0.160 C 
ATOM     37  C   UNL     1     -14.003  -8.168  16.042  0.00  0.00    +0.091 C 
ENDBRANCH  28  34
ENDBRANCH   9  22
ENDBRANCH   3  18
ENDBRANCH  14   3
TORSDOF 7
ENDMDL
MODEL 5
REMARK VINA RESULT:      -7.5     19.537     21.417
REMARK  Name = 11911663
REMARK  10 active torsions:
REMARK  status: ('A' for Active; 'I' for Inactive)
REMARK    1  A    between atoms: O_3  and  C_14
REMARK    2  A    between atoms: O_3  and  C_18
REMARK    3  A    between atoms: N_6  and  C_13
REMARK    4  A    between atoms: N_9  and  C_22
REMARK    5  A    between atoms: N_10  and  C_32
REMARK    6  A    between atoms: N_10  and  C_35
REMARK    7  A    between atoms: N_10  and  C_36
REMARK    8  A    between atoms: C_19  and  C_23
REMARK    9  A    between atoms: C_28  and  C_34
REMARK   10  A    between atoms: C_34  and  C_37
REMARK                            x       y       z     vdW  Elec       q    Type
REMARK                         _______ _______ _______ _____ _____    ______ ____
ROOT
ATOM      1  O   UNL     1      -4.605  -8.975  10.093  0.00  0.00    -0.368 OA
ATOM      2  O   UNL     1      -5.707 -11.834  10.241  0.00  0.00    -0.368 OA
ATOM     11  C   UNL     1      -4.415 -11.288  10.581  0.00  0.00    +0.173 C 
ATOM     12  C   UNL     1      -4.111 -10.212   9.557  0.00  0.00    +0.192 C 
ATOM     13  C   UNL     1      -4.500 -10.534  11.887  0.00  0.00    +0.130 C 
ATOM     14  C   UNL     1      -4.914 -10.663   8.361  0.00  0.00    +0.235 C 
ATOM     15  C   UNL     1      -5.035  -9.182  11.448  0.00  0.00    +0.185 C 
ATOM     16  C   UNL     1      -6.148 -11.249   9.008  0.00  0.00    +0.207 C 
ENDROOT
BRANCH  13   6
ATOM      6  N   UNL     1      -3.182 -10.389  12.469  0.00  0.00    -0.306 N 
ATOM      7  N   UNL     1      -3.989 -10.730  14.619  0.00  0.00    -0.214 NA
ATOM      8  N   UNL     1      -1.648 -10.329  14.211  0.00  0.00    -0.223 NA
ATOM     17  C   UNL     1      -2.929 -10.487  13.825  0.00  0.00    +0.216 A 
ATOM     19  C   UNL     1      -3.706 -10.820  15.935  0.00  0.00    +0.076 A 
ATOM     20  C   UNL     1      -1.437 -10.431  15.539  0.00  0.00    +0.116 A 
ATOM     21  C   UNL     1      -2.437 -10.678  16.458  0.00  0.00    +0.048 A 
ATOM     38  H   UNL     1      -2.382 -10.258  11.860  0.00  0.00    +0.149 HD
BRANCH  19  23
ATOM     23  C   UNL     1      -4.840 -11.081  16.789  0.00  0.00    +0.001 A 
ATOM     26  C   UNL     1      -4.673 -11.133  18.173  0.00  0.00    +0.012 A 
ATOM     27  C   UNL     1      -6.104 -11.278  16.231  0.00  0.00    +0.012 A 
ATOM     29  C   UNL     1      -5.769 -11.384  18.999  0.00  0.00    +0.024 A 
ATOM     30  C   UNL     1      -7.199 -11.529  17.057  0.00  0.00    +0.024 A 
ATOM     32  C   UNL     1      -7.031 -11.581  18.441  0.00  0.00    +0.029 A 
BRANCH  32  10
ATOM     10  N   UNL     1      -8.141 -11.835  19.275  0.00  0.00    -0.336 N 
ATOM     35  C   UNL     1      -9.236 -10.890  19.348  0.00  0.00    +0.129 C 
ATOM     36  C   UNL     1      -8.205 -13.052  20.059  0.00  0.00    +0.129 C 
ENDBRANCH  32  10
ENDBRANCH  19  23
ENDBRANCH  13   6
BRANCH  14   3
ATOM      3  O   UNL     1      -5.228  -9.618   7.467  0.00  0.00    -0.442 OA
BRANCH   3  18
ATOM      4  O   UNL     1      -7.356  -9.788   6.645  0.00  0.00    -0.226 OA
ATOM      9  N   UNL     1      -6.785  -8.193   8.261  0.00  0.00    -0.251 N 
ATOM     18  C   UNL     1      -6.552  -9.240   7.391  0.00  0.00    +0.405 C 
ATOM     39  H   UNL     1      -5.986  -7.872   8.802  0.00  0.00    +0.158 HD
BRANCH   9  22
ATOM     22  C   UNL     1      -7.999  -7.509   8.495  0.00  0.00    +0.037 A 
ATOM     24  C   UNL     1      -9.048  -8.153   9.150  0.00  0.00    +0.034 A 
ATOM     25  C   UNL     1      -8.147  -6.188   8.070  0.00  0.00    +0.023 A 
ATOM     28  C   UNL     1     -10.247  -7.477   9.381  0.00  0.00    +0.019 A 
ATOM     31  C   UNL     1      -9.345  -5.512   8.301  0.00  0.00    +0.002 A 
ATOM     33  C   UNL     1     -10.395  -6.155   8.957  0.00  0.00    +0.011 A 
BRANCH  28  34
ATOM      5  O   UNL     1     -11.853  -7.670  11.097  0.00  0.00    -0.292 OA
ATOM     34  C   UNL     1     -11.341  -8.146  10.064  0.00  0.00    +0.160 C 
ATOM     37  C   UNL     1     -11.894  -9.462   9.524  0.00  0.00    +0.091 C 
ENDBRANCH  28  34
ENDBRANCH   9  22
ENDBRANCH   3  18
ENDBRANCH  14   3
TORSDOF 7
ENDMDL
MODEL 6
REMARK VINA RESULT:      -7.4     20.434     22.272
REMARK  Name = 11911663
REMARK  10 active torsions:
REMARK  status: ('A' for Active; 'I' for Inactive)
REMARK    1  A    between atoms: O_3  and  C_14
REMARK    2  A    between atoms: O_3  and  C_18
REMARK    3  A    between atoms: N_6  and  C_13
REMARK    4  A    between atoms: N_9  and  C_22
REMARK    5  A    between atoms: N_10  and  C_32
REMARK    6  A    between atoms: N_10  and  C_35
REMARK    7  A    between atoms: N_10  and  C_36
REMARK    8  A    between atoms: C_19  and  C_23
REMARK    9  A    between atoms: C_28  and  C_34
REMARK   10  A    between atoms: C_34  and  C_37
REMARK                            x       y       z     vdW  Elec       q    Type
REMARK                         _______ _______ _______ _____ _____    ______ ____
ROOT
ATOM      1  O   UNL     1      -3.992  -9.262   9.234  0.00  0.00    -0.368 OA
ATOM      2  O   UNL     1      -6.339 -10.978  10.215  0.00  0.00    -0.368 OA
ATOM     11  C   UNL     1      -4.926 -11.033  10.504  0.00  0.00    +0.173 C 
ATOM     12  C   UNL     1      -4.200 -10.683   9.220  0.00  0.00    +0.192 C 
ATOM     13  C   UNL     1      -4.549  -9.919  11.452  0.00  0.00    +0.130 C 
ATOM     14  C   UNL     1      -5.196 -11.092   8.161  0.00  0.00    +0.235 C 
ATOM     15  C   UNL     1      -4.382  -8.737  10.513  0.00  0.00    +0.185 C 
ATOM     16  C   UNL     1      -6.515 -10.741   8.811  0.00  0.00    +0.207 C 
ENDROOT
BRANCH  13   6
ATOM      6  N   UNL     1      -3.294 -10.222  12.108  0.00  0.00    -0.306 N 
ATOM      7  N   UNL     1      -4.318 -10.425  14.182  0.00  0.00    -0.214 NA
ATOM      8  N   UNL     1      -1.943 -10.741  13.923  0.00  0.00    -0.223 NA
ATOM     17  C   UNL     1      -3.180 -10.474  13.463  0.00  0.00    +0.216 A 
ATOM     19  C   UNL     1      -4.171 -10.676  15.499  0.00  0.00    +0.076 A 
ATOM     20  C   UNL     1      -1.868 -10.982  15.249  0.00  0.00    +0.116 A 
ATOM     21  C   UNL     1      -2.959 -10.963  16.094  0.00  0.00    +0.048 A 
ATOM     38  H   UNL     1      -2.451 -10.308  11.552  0.00  0.00    +0.149 HD
BRANCH  19  23
ATOM     23  C   UNL     1      -5.388 -10.625  16.273  0.00  0.00    +0.001 A 
ATOM     26  C   UNL     1      -5.329 -10.628  17.666  0.00  0.00    +0.012 A 
ATOM     27  C   UNL     1      -6.624 -10.570  15.627  0.00  0.00    +0.012 A 
ATOM     29  C   UNL     1      -6.505 -10.578  18.414  0.00  0.00    +0.024 A 
ATOM     30  C   UNL     1      -7.800 -10.520  16.375  0.00  0.00    +0.024 A 
ATOM     32  C   UNL     1      -7.740 -10.524  17.768  0.00  0.00    +0.029 A 
BRANCH  32  10
ATOM     10  N   UNL     1      -8.931 -10.473  18.524  0.00  0.00    -0.336 N 
ATOM     35  C   UNL     1      -9.085 -11.297  19.707  0.00  0.00    +0.129 C 
ATOM     36  C   UNL     1     -10.009  -9.586  18.136  0.00  0.00    +0.129 C 
ENDBRANCH  32  10
ENDBRANCH  19  23
ENDBRANCH  13   6
BRANCH  14   3
ATOM      3  O   UNL     1      -5.015 -10.425   6.931  0.00  0.00    -0.442 OA
BRANCH   3  18
ATOM      4  O   UNL     1      -6.694 -11.224   5.599  0.00  0.00    -0.226 OA
ATOM      9  N   UNL     1      -6.469  -8.939   6.056  0.00  0.00    -0.251 N 
ATOM     18  C   UNL     1      -6.130 -10.276   6.133  0.00  0.00    +0.405 C 
ATOM     39  H   UNL     1      -5.876  -8.295   6.573  0.00  0.00    +0.158 HD
BRANCH   9  22
ATOM     22  C   UNL     1      -7.540  -8.352   5.345  0.00  0.00    +0.037 A 
ATOM     24  C   UNL     1      -7.573  -8.420   3.953  0.00  0.00    +0.034 A 
ATOM     25  C   UNL     1      -8.564  -7.705   6.037  0.00  0.00    +0.023 A 
ATOM     28  C   UNL     1      -8.632  -7.841   3.251  0.00  0.00    +0.019 A 
ATOM     31  C   UNL     1      -9.622  -7.127   5.336  0.00  0.00    +0.002 A 
ATOM     33  C   UNL     1      -9.657  -7.195   3.943  0.00  0.00    +0.011 A 
BRANCH  28  34
ATOM      5  O   UNL     1      -7.666  -8.244   1.138  0.00  0.00    -0.292 OA
ATOM     34  C   UNL     1      -8.669  -7.912   1.800  0.00  0.00    +0.160 C 
ATOM     37  C   UNL     1      -9.953  -7.577   1.047  0.00  0.00    +0.091 C 
ENDBRANCH  28  34
ENDBRANCH   9  22
ENDBRANCH   3  18
ENDBRANCH  14   3
TORSDOF 7
ENDMDL
MODEL 7
REMARK VINA RESULT:      -7.4     30.261     34.308
REMARK  Name = 11911663
REMARK  10 active torsions:
REMARK  status: ('A' for Active; 'I' for Inactive)
REMARK    1  A    between atoms: O_3  and  C_14
REMARK    2  A    between atoms: O_3  and  C_18
REMARK    3  A    between atoms: N_6  and  C_13
REMARK    4  A    between atoms: N_9  and  C_22
REMARK    5  A    between atoms: N_10  and  C_32
REMARK    6  A    between atoms: N_10  and  C_35
REMARK    7  A    between atoms: N_10  and  C_36
REMARK    8  A    between atoms: C_19  and  C_23
REMARK    9  A    between atoms: C_28  and  C_34
REMARK   10  A    between atoms: C_34  and  C_37
REMARK                            x       y       z     vdW  Elec       q    Type
REMARK                         _______ _______ _______ _____ _____    ______ ____
ROOT
ATOM      1  O   UNL     1       9.054   6.267  -5.339  0.00  0.00    -0.368 OA
ATOM      2  O   UNL     1       7.766   6.664  -2.584  0.00  0.00    -0.368 OA
ATOM     11  C   UNL     1       8.721   5.694  -3.063  0.00  0.00    +0.173 C 
ATOM     12  C   UNL     1       8.332   5.362  -4.490  0.00  0.00    +0.192 C 
ATOM     13  C   UNL     1      10.084   6.332  -3.195  0.00  0.00    +0.130 C 
ATOM     14  C   UNL     1       6.850   5.650  -4.499  0.00  0.00    +0.235 C 
ATOM     15  C   UNL     1       9.992   7.014  -4.549  0.00  0.00    +0.185 C 
ATOM     16  C   UNL     1       6.752   6.847  -3.581  0.00  0.00    +0.207 C 
ENDROOT
BRANCH  13   6
ATOM      6  N   UNL     1      11.114   5.315  -3.213  0.00  0.00    -0.306 N 
ATOM      7  N   UNL     1      11.099   5.123  -0.900  0.00  0.00    -0.214 NA
ATOM      8  N   UNL     1      12.574   3.784  -2.256  0.00  0.00    -0.223 NA
ATOM     17  C   UNL     1      11.617   4.715  -2.073  0.00  0.00    +0.216 A 
ATOM     19  C   UNL     1      11.611   4.517   0.191  0.00  0.00    +0.076 A 
ATOM     20  C   UNL     1      13.041   3.219  -1.123  0.00  0.00    +0.116 A 
ATOM     21  C   UNL     1      12.594   3.549   0.140  0.00  0.00    +0.048 A 
ATOM     38  H   UNL     1      11.462   4.976  -4.103  0.00  0.00    +0.149 HD
BRANCH  19  23
ATOM     23  C   UNL     1      11.057   4.951   1.451  0.00  0.00    +0.001 A 
ATOM     26  C   UNL     1      11.158   4.133   2.576  0.00  0.00    +0.012 A 
ATOM     27  C   UNL     1      10.424   6.191   1.545  0.00  0.00    +0.012 A 
ATOM     29  C   UNL     1      10.624   4.553   3.794  0.00  0.00    +0.024 A 
ATOM     30  C   UNL     1       9.890   6.611   2.763  0.00  0.00    +0.024 A 
ATOM     32  C   UNL     1       9.991   5.792   3.887  0.00  0.00    +0.029 A 
BRANCH  32  10
ATOM     10  N   UNL     1       9.450   6.218   5.119  0.00  0.00    -0.336 N 
ATOM     35  C   UNL     1      10.112   5.887   6.365  0.00  0.00    +0.129 C 
ATOM     36  C   UNL     1       8.234   7.005   5.154  0.00  0.00    +0.129 C 
ENDBRANCH  32  10
ENDBRANCH  19  23
ENDBRANCH  13   6
BRANCH  14   3
ATOM      3  O   UNL     1       6.337   5.923  -5.784  0.00  0.00    -0.442 OA
BRANCH   3  18
ATOM      4  O   UNL     1       4.335   6.354  -6.803  0.00  0.00    -0.226 OA
ATOM      9  N   UNL     1       4.530   4.764  -5.095  0.00  0.00    -0.251 N 
ATOM     18  C   UNL     1       4.984   5.731  -5.970  0.00  0.00    +0.405 C 
ATOM     39  H   UNL     1       5.225   4.358  -4.474  0.00  0.00    +0.158 HD
BRANCH   9  22
ATOM     22  C   UNL     1       3.214   4.268  -4.953  0.00  0.00    +0.037 A 
ATOM     24  C   UNL     1       2.911   2.969  -5.359  0.00  0.00    +0.034 A 
ATOM     25  C   UNL     1       2.219   5.079  -4.406  0.00  0.00    +0.023 A 
ATOM     28  C   UNL     1       1.612   2.479  -5.217  0.00  0.00    +0.019 A 
ATOM     31  C   UNL     1       0.921   4.589  -4.264  0.00  0.00    +0.002 A 
ATOM     33  C   UNL     1       0.617   3.289  -4.669  0.00  0.00    +0.011 A 
BRANCH  28  34
ATOM      5  O   UNL     1       0.649   0.902  -6.682  0.00  0.00    -0.292 OA
ATOM     34  C   UNL     1       1.294   1.125  -5.639  0.00  0.00    +0.160 C 
ATOM     37  C   UNL     1       1.750  -0.067  -4.803  0.00  0.00    +0.091 C 
ENDBRANCH  28  34
ENDBRANCH   9  22
ENDBRANCH   3  18
ENDBRANCH  14   3
TORSDOF 7
ENDMDL
MODEL 8
REMARK VINA RESULT:      -7.4     16.238     18.239
REMARK  Name = 11911663
REMARK  10 active torsions:
REMARK  status: ('A' for Active; 'I' for Inactive)
REMARK    1  A    between atoms: O_3  and  C_14
REMARK    2  A    between atoms: O_3  and  C_18
REMARK    3  A    between atoms: N_6  and  C_13
REMARK    4  A    between atoms: N_9  and  C_22
REMARK    5  A    between atoms: N_10  and  C_32
REMARK    6  A    between atoms: N_10  and  C_35
REMARK    7  A    between atoms: N_10  and  C_36
REMARK    8  A    between atoms: C_19  and  C_23
REMARK    9  A    between atoms: C_28  and  C_34
REMARK   10  A    between atoms: C_34  and  C_37
REMARK                            x       y       z     vdW  Elec       q    Type
REMARK                         _______ _______ _______ _____ _____    ______ ____
ROOT
ATOM      1  O   UNL     1     -12.359  -8.571  15.342  0.00  0.00    -0.368 OA
ATOM      2  O   UNL     1     -10.444  -6.193  15.645  0.00  0.00    -0.368 OA
ATOM     11  C   UNL     1     -10.930  -7.158  16.602  0.00  0.00    +0.173 C 
ATOM     12  C   UNL     1     -12.373  -7.448  16.239  0.00  0.00    +0.192 C 
ATOM     13  C   UNL     1     -10.230  -8.482  16.401  0.00  0.00    +0.130 C 
ATOM     14  C   UNL     1     -12.795  -6.179  15.538  0.00  0.00    +0.235 C 
ATOM     15  C   UNL     1     -11.027  -9.101  15.266  0.00  0.00    +0.185 C 
ATOM     16  C   UNL     1     -11.533  -5.786  14.804  0.00  0.00    +0.207 C 
ENDROOT
BRANCH  13   6
ATOM      6  N   UNL     1     -10.341  -9.294  17.595  0.00  0.00    -0.306 N 
ATOM      7  N   UNL     1      -8.153 -10.044  17.403  0.00  0.00    -0.214 NA
ATOM      8  N   UNL     1      -9.568 -10.767  19.214  0.00  0.00    -0.223 NA
ATOM     17  C   UNL     1      -9.309 -10.068  18.092  0.00  0.00    +0.216 A 
ATOM     19  C   UNL     1      -7.167 -10.810  17.916  0.00  0.00    +0.076 A 
ATOM     20  C   UNL     1      -8.540 -11.511  19.672  0.00  0.00    +0.116 A 
ATOM     21  C   UNL     1      -7.305 -11.572  19.058  0.00  0.00    +0.048 A 
ATOM     38  H   UNL     1     -11.198  -9.266  18.137  0.00  0.00    +0.149 HD
BRANCH  19  23
ATOM     23  C   UNL     1      -5.926 -10.786  17.180  0.00  0.00    +0.001 A 
ATOM     26  C   UNL     1      -5.921 -10.422  15.834  0.00  0.00    +0.012 A 
ATOM     27  C   UNL     1      -4.731 -11.123  17.817  0.00  0.00    +0.012 A 
ATOM     29  C   UNL     1      -4.720 -10.397  15.123  0.00  0.00    +0.024 A 
ATOM     30  C   UNL     1      -3.531 -11.098  17.106  0.00  0.00    +0.024 A 
ATOM     32  C   UNL     1      -3.526 -10.735  15.760  0.00  0.00    +0.029 A 
BRANCH  32  10
ATOM     10  N   UNL     1      -2.312 -10.711  15.041  0.00  0.00    -0.336 N 
ATOM     35  C   UNL     1      -2.282 -11.070  13.638  0.00  0.00    +0.129 C 
ATOM     36  C   UNL     1      -1.081 -10.312  15.694  0.00  0.00    +0.129 C 
ENDBRANCH  32  10
ENDBRANCH  19  23
ENDBRANCH  13   6
BRANCH  14   3
ATOM      3  O   UNL     1     -13.886  -6.356  14.661  0.00  0.00    -0.442 OA
BRANCH   3  18
ATOM      4  O   UNL     1     -13.508  -7.324  12.624  0.00  0.00    -0.226 OA
ATOM      9  N   UNL     1     -13.489  -4.999  12.904  0.00  0.00    -0.251 N 
ATOM     18  C   UNL     1     -13.613  -6.314  13.310  0.00  0.00    +0.405 C 
ATOM     39  H   UNL     1     -13.611  -4.293  13.625  0.00  0.00    +0.158 HD
BRANCH   9  22
ATOM     22  C   UNL     1     -13.213  -4.512  11.606  0.00  0.00    +0.037 A 
ATOM     24  C   UNL     1     -12.043  -4.895  10.952  0.00  0.00    +0.034 A 
ATOM     25  C   UNL     1     -14.111  -3.647  10.981  0.00  0.00    +0.023 A 
ATOM     28  C   UNL     1     -11.770  -4.415   9.671  0.00  0.00    +0.019 A 
ATOM     31  C   UNL     1     -13.838  -3.166   9.700  0.00  0.00    +0.002 A 
ATOM     33  C   UNL     1     -12.669  -3.550   9.045  0.00  0.00    +0.011 A 
BRANCH  28  34
ATOM      5  O   UNL     1      -9.586  -4.036   8.867  0.00  0.00    -0.292 OA
ATOM     34  C   UNL     1     -10.552  -4.815   8.986  0.00  0.00    +0.160 C 
ATOM     37  C   UNL     1     -10.428  -6.215   8.392  0.00  0.00    +0.091 C 
ENDBRANCH  28  34
ENDBRANCH   9  22
ENDBRANCH   3  18
ENDBRANCH  14   3
TORSDOF 7
ENDMDL
MODEL 9
REMARK VINA RESULT:      -7.3     26.360     31.876
REMARK  Name = 11911663
REMARK  10 active torsions:
REMARK  status: ('A' for Active; 'I' for Inactive)
REMARK    1  A    between atoms: O_3  and  C_14
REMARK    2  A    between atoms: O_3  and  C_18
REMARK    3  A    between atoms: N_6  and  C_13
REMARK    4  A    between atoms: N_9  and  C_22
REMARK    5  A    between atoms: N_10  and  C_32
REMARK    6  A    between atoms: N_10  and  C_35
REMARK    7  A    between atoms: N_10  and  C_36
REMARK    8  A    between atoms: C_19  and  C_23
REMARK    9  A    between atoms: C_28  and  C_34
REMARK   10  A    between atoms: C_34  and  C_37
REMARK                            x       y       z     vdW  Elec       q    Type
REMARK                         _______ _______ _______ _____ _____    ______ ____
ROOT
ATOM      1  O   UNL     1      12.511  10.173  17.852  0.00  0.00    -0.368 OA
ATOM      2  O   UNL     1      14.385   7.750  17.677  0.00  0.00    -0.368 OA
ATOM     11  C   UNL     1      13.773   8.562  16.653  0.00  0.00    +0.173 C 
ATOM     12  C   UNL     1      12.387   8.926  17.150  0.00  0.00    +0.192 C 
ATOM     13  C   UNL     1      14.485   9.891  16.554  0.00  0.00    +0.130 C 
ATOM     14  C   UNL     1      12.068   7.786  18.088  0.00  0.00    +0.235 C 
ATOM     15  C   UNL     1      13.839  10.690  17.673  0.00  0.00    +0.185 C 
ATOM     16  C   UNL     1      13.417   7.493  18.704  0.00  0.00    +0.207 C 
ENDROOT
BRANCH  13   6
ATOM      6  N   UNL     1      14.215  10.510  15.273  0.00  0.00    -0.306 N 
ATOM      7  N   UNL     1      16.416  11.211  15.041  0.00  0.00    -0.214 NA
ATOM      8  N   UNL     1      14.767  11.688  13.350  0.00  0.00    -0.223 NA
ATOM     17  C   UNL     1      15.174  11.165  14.522  0.00  0.00    +0.216 A 
ATOM     19  C   UNL     1      17.327  11.856  14.283  0.00  0.00    +0.076 A 
ATOM     20  C   UNL     1      15.728  12.318  12.643  0.00  0.00    +0.116 A 
ATOM     21  C   UNL     1      17.037  12.435  13.064  0.00  0.00    +0.048 A 
ATOM     38  H   UNL     1      13.291  10.426  14.866  0.00  0.00    +0.149 HD
BRANCH  19  23
ATOM     23  C   UNL     1      18.659  11.907  14.835  0.00  0.00    +0.001 A 
ATOM     26  C   UNL     1      19.696  11.205  14.220  0.00  0.00    +0.012 A 
ATOM     27  C   UNL     1      18.911  12.660  15.982  0.00  0.00    +0.012 A 
ATOM     29  C   UNL     1      20.984  11.256  14.753  0.00  0.00    +0.024 A 
ATOM     30  C   UNL     1      20.199  12.710  16.515  0.00  0.00    +0.024 A 
ATOM     32  C   UNL     1      21.235  12.008  15.899  0.00  0.00    +0.029 A 
BRANCH  32  10
ATOM     10  N   UNL     1      22.538  12.059  16.439  0.00  0.00    -0.336 N 
ATOM     35  C   UNL     1      23.195  10.848  16.887  0.00  0.00    +0.129 C 
ATOM     36  C   UNL     1      23.242  13.322  16.540  0.00  0.00    +0.129 C 
ENDBRANCH  32  10
ENDBRANCH  19  23
ENDBRANCH  13   6
BRANCH  14   3
ATOM      3  O   UNL     1      11.099   8.112  19.060  0.00  0.00    -0.442 OA
BRANCH   3  18
ATOM      4  O   UNL     1      11.704   7.431  21.158  0.00  0.00    -0.226 OA
ATOM      9  N   UNL     1      11.793   9.683  20.521  0.00  0.00    -0.251 N 
ATOM     18  C   UNL     1      11.554   8.334  20.343  0.00  0.00    +0.405 C 
ATOM     39  H   UNL     1      11.607  10.282  19.721  0.00  0.00    +0.158 HD
BRANCH   9  22
ATOM     22  C   UNL     1      12.264  10.337  21.682  0.00  0.00    +0.037 A 
ATOM     24  C   UNL     1      11.363  10.960  22.546  0.00  0.00    +0.034 A 
ATOM     25  C   UNL     1      13.629  10.359  21.964  0.00  0.00    +0.023 A 
ATOM     28  C   UNL     1      11.828  11.605  23.692  0.00  0.00    +0.019 A 
ATOM     31  C   UNL     1      14.095  11.003  23.110  0.00  0.00    +0.002 A 
ATOM     33  C   UNL     1      13.195  11.626  23.975  0.00  0.00    +0.011 A 
BRANCH  28  34
ATOM      5  O   UNL     1      10.643  11.787  25.723  0.00  0.00    -0.292 OA
ATOM     34  C   UNL     1      10.891  12.254  24.594  0.00  0.00    +0.160 C 
ATOM     37  C   UNL     1      10.183  13.538  24.172  0.00  0.00    +0.091 C 
ENDBRANCH  28  34
ENDBRANCH   9  22
ENDBRANCH   3  18
ENDBRANCH  14   3
TORSDOF 7
ENDMDL
MODEL 10
REMARK VINA RESULT:      -7.2     27.001     29.340
REMARK  Name = 11911663
REMARK  10 active torsions:
REMARK  status: ('A' for Active; 'I' for Inactive)
REMARK    1  A    between atoms: O_3  and  C_14
REMARK    2  A    between atoms: O_3  and  C_18
REMARK    3  A    between atoms: N_6  and  C_13
REMARK    4  A    between atoms: N_9  and  C_22
REMARK    5  A    between atoms: N_10  and  C_32
REMARK    6  A    between atoms: N_10  and  C_35
REMARK    7  A    between atoms: N_10  and  C_36
REMARK    8  A    between atoms: C_19  and  C_23
REMARK    9  A    between atoms: C_28  and  C_34
REMARK   10  A    between atoms: C_34  and  C_37
REMARK                            x       y       z     vdW  Elec       q    Type
REMARK                         _______ _______ _______ _____ _____    ______ ____
ROOT
ATOM      1  O   UNL     1      -4.270 -14.011   3.321  0.00  0.00    -0.368 OA
ATOM      2  O   UNL     1      -1.812 -13.660   5.123  0.00  0.00    -0.368 OA
ATOM     11  C   UNL     1      -2.847 -12.736   4.726  0.00  0.00    +0.173 C 
ATOM     12  C   UNL     1      -3.195 -13.059   3.286  0.00  0.00    +0.192 C 
ATOM     13  C   UNL     1      -4.120 -13.031   5.484  0.00  0.00    +0.130 C 
ATOM     14  C   UNL     1      -1.917 -13.677   2.772  0.00  0.00    +0.235 C 
ATOM     15  C   UNL     1      -4.725 -14.165   4.675  0.00  0.00    +0.185 C 
ATOM     16  C   UNL     1      -1.421 -14.437   3.982  0.00  0.00    +0.207 C 
ENDROOT
BRANCH  13   6
ATOM      6  N   UNL     1      -4.995 -11.877   5.463  0.00  0.00    -0.306 N 
ATOM      7  N   UNL     1      -4.512 -11.352   7.672  0.00  0.00    -0.214 NA
ATOM      8  N   UNL     1      -6.033 -10.009   6.372  0.00  0.00    -0.223 NA
ATOM     17  C   UNL     1      -5.188 -11.043   6.550  0.00  0.00    +0.216 A 
ATOM     19  C   UNL     1      -4.723 -10.519   8.712  0.00  0.00    +0.076 A 
ATOM     20  C   UNL     1      -6.197  -9.217   7.451  0.00  0.00    +0.116 A 
ATOM     21  C   UNL     1      -5.563  -9.425   8.659  0.00  0.00    +0.048 A 
ATOM     38  H   UNL     1      -5.459 -11.621   4.599  0.00  0.00    +0.149 HD
BRANCH  19  23
ATOM     23  C   UNL     1      -3.999 -10.846   9.917  0.00  0.00    +0.001 A 
ATOM     26  C   UNL     1      -3.985 -12.159  10.387  0.00  0.00    +0.012 A 
ATOM     27  C   UNL     1      -3.311  -9.849  10.611  0.00  0.00    +0.012 A 
ATOM     29  C   UNL     1      -3.284 -12.475  11.551  0.00  0.00    +0.024 A 
ATOM     30  C   UNL     1      -2.611 -10.166  11.774  0.00  0.00    +0.024 A 
ATOM     32  C   UNL     1      -2.597 -11.479  12.244  0.00  0.00    +0.029 A 
BRANCH  32  10
ATOM     10  N   UNL     1      -1.889 -11.799  13.422  0.00  0.00    -0.336 N 
ATOM     35  C   UNL     1      -1.704 -10.804  14.460  0.00  0.00    +0.129 C 
ATOM     36  C   UNL     1      -1.348 -13.129  13.615  0.00  0.00    +0.129 C 
ENDBRANCH  32  10
ENDBRANCH  19  23
ENDBRANCH  13   6
BRANCH  14   3
ATOM      3  O   UNL     1      -2.108 -14.520   1.657  0.00  0.00    -0.442 OA
BRANCH   3  18
ATOM      4  O   UNL     1      -0.781 -16.190   0.831  0.00  0.00    -0.226 OA
ATOM      9  N   UNL     1      -0.150 -13.938   0.702  0.00  0.00    -0.251 N 
ATOM     18  C   UNL     1      -0.974 -14.996   1.034  0.00  0.00    +0.405 C 
ATOM     39  H   UNL     1      -0.484 -13.012   0.954  0.00  0.00    +0.158 HD
BRANCH   9  22
ATOM     22  C   UNL     1       1.106 -13.983   0.054  0.00  0.00    +0.037 A 
ATOM     24  C   UNL     1       1.173 -13.973  -1.339  0.00  0.00    +0.034 A 
ATOM     25  C   UNL     1       2.277 -14.037   0.809  0.00  0.00    +0.023 A 
ATOM     28  C   UNL     1       2.412 -14.016  -1.978  0.00  0.00    +0.019 A 
ATOM     31  C   UNL     1       3.517 -14.080   0.170  0.00  0.00    +0.002 A 
ATOM     33  C   UNL     1       3.585 -14.069  -1.223  0.00  0.00    +0.011 A 
BRANCH  28  34
ATOM      5  O   UNL     1       3.272 -14.747  -4.048  0.00  0.00    -0.292 OA
ATOM     34  C   UNL     1       2.484 -14.005  -3.429  0.00  0.00    +0.160 C 
ATOM     37  C   UNL     1       1.585 -13.073  -4.236  0.00  0.00    +0.091 C 
ENDBRANCH  28  34
ENDBRANCH   9  22
ENDBRANCH   3  18
ENDBRANCH  14   3
TORSDOF 7
ENDMDL
