MODEL 1
REMARK VINA RESULT:      -7.1      0.000      0.000
REMARK  Name = 38028932
REMARK  9 active torsions:
REMARK  status: ('A' for Active; 'I' for Inactive)
REMARK    1  A    between atoms: N_4  and  C_16
REMARK    2  A    between atoms: C_8  and  C_12
REMARK    3  A    between atoms: C_9  and  C_16
REMARK    4  A    between atoms: C_11  and  C_15
REMARK    5  A    between atoms: C_12  and  C_17
REMARK    6  A    between atoms: C_12  and  C_18
REMARK    7  A    between atoms: C_13  and  C_19
REMARK    8  A    between atoms: C_15  and  C_20
REMARK    9  A    between atoms: C_25  and  C_27
REMARK                            x       y       z     vdW  Elec       q    Type
REMARK                         _______ _______ _______ _____ _____    ______ ____
ROOT
ATOM      8  C   UNL     1      -2.839 -12.437  13.228  0.00  0.00    +0.000 C 
ATOM      9  C   UNL     1      -1.832 -11.265  13.122  0.00  0.00    +0.032 C 
ATOM     10  C   UNL     1      -3.247 -12.924  11.829  0.00  0.00    +0.012 C 
ATOM     11  C   UNL     1      -3.887 -11.805  10.987  0.00  0.00    +0.023 C 
ATOM     13  C   UNL     1      -3.083 -10.522  11.050  0.00  0.00    -0.073 C 
ATOM     14  C   UNL     1      -2.160 -10.304  12.002  0.00  0.00    -0.022 C 
ATOM     19  C   UNL     1      -3.333  -9.513   9.963  0.00  0.00    +0.039 C 
ENDROOT
BRANCH   8  12
ATOM     12  C   UNL     1      -2.268 -13.605  14.038  0.00  0.00    -0.013 C 
ATOM     17  C   UNL     1      -1.476 -14.543  13.134  0.00  0.00    +0.007 C 
ATOM     18  C   UNL     1      -3.389 -14.358  14.749  0.00  0.00    +0.007 C 
ENDBRANCH   8  12
BRANCH  11  15
ATOM     15  C   UNL     1      -5.341 -11.562  11.405  0.00  0.00    +0.103 C 
BRANCH  15  20
ATOM      1  O   UNL     1      -6.283 -12.741   9.571  0.00  0.00    -0.276 OA
ATOM      3  N   UNL     1      -7.002 -10.553   9.885  0.00  0.00    -0.298 N 
ATOM      5  N   UNL     1      -8.771  -8.347   9.262  0.00  0.00    -0.312 N 
ATOM      6  N   UNL     1      -9.127  -6.084   8.693  0.00  0.00    -0.240 NA
ATOM     20  C   UNL     1      -6.248 -11.683  10.205  0.00  0.00    +0.216 C 
ATOM     21  C   UNL     1      -6.968  -9.301  10.646  0.00  0.00    +0.126 C 
ATOM     22  C   UNL     1      -7.900 -10.590   8.734  0.00  0.00    +0.126 C 
ATOM     23  C   UNL     1      -7.442  -8.100   9.828  0.00  0.00    +0.125 C 
ATOM     24  C   UNL     1      -9.144  -9.731   8.953  0.00  0.00    +0.125 C 
ATOM     26  C   UNL     1      -9.643  -7.297   8.989  0.00  0.00    +0.121 A 
ATOM     28  C   UNL     1     -11.001  -7.571   9.041  0.00  0.00    +0.043 A 
ATOM     31  C   UNL     1     -11.885  -6.532   8.773  0.00  0.00    +0.005 A 
ATOM     32  C   UNL     1     -10.017  -5.098   8.437  0.00  0.00    +0.113 A 
ATOM     33  C   UNL     1     -11.391  -5.269   8.463  0.00  0.00    +0.020 A 
ENDBRANCH  15  20
ENDBRANCH  11  15
BRANCH   9  16
ATOM     16  C   UNL     1      -1.736 -10.495  14.443  0.00  0.00    +0.112 C 
BRANCH  16   4
ATOM      2  O   UNL     1      -2.527 -11.047  17.148  0.00  0.00    -0.270 OA
ATOM      4  N   UNL     1      -3.033 -10.297  15.010  0.00  0.00    -0.311 N 
ATOM     25  C   UNL     1      -3.333 -10.592  16.340  0.00  0.00    +0.244 C 
ATOM     36  H   UNL     1      -3.728  -9.841  14.429  0.00  0.00    +0.149 HD
BRANCH  25  27
ATOM      7  N   UNL     1      -7.373  -9.897  17.576  0.00  0.00    -0.263 NA
ATOM     27  C   UNL     1      -4.736 -10.353  16.769  0.00  0.00    +0.040 A 
ATOM     29  C   UNL     1      -5.644  -9.772  15.890  0.00  0.00    +0.033 A 
ATOM     30  C   UNL     1      -5.144 -10.706  18.050  0.00  0.00    +0.033 A 
ATOM     34  C   UNL     1      -6.939  -9.567  16.339  0.00  0.00    +0.111 A 
ATOM     35  C   UNL     1      -6.462 -10.460  18.402  0.00  0.00    +0.111 A 
ENDBRANCH  25  27
ENDBRANCH  16   4
ENDBRANCH   9  16
TORSDOF 6
ENDMDL
MODEL 2
REMARK VINA RESULT:      -7.1     27.808     31.231
REMARK  Name = 38028932
REMARK  9 active torsions:
REMARK  status: ('A' for Active; 'I' for Inactive)
REMARK    1  A    between atoms: N_4  and  C_16
REMARK    2  A    between atoms: C_8  and  C_12
REMARK    3  A    between atoms: C_9  and  C_16
REMARK    4  A    between atoms: C_11  and  C_15
REMARK    5  A    between atoms: C_12  and  C_17
REMARK    6  A    between atoms: C_12  and  C_18
REMARK    7  A    between atoms: C_13  and  C_19
REMARK    8  A    between atoms: C_15  and  C_20
REMARK    9  A    between atoms: C_25  and  C_27
REMARK                            x       y       z     vdW  Elec       q    Type
REMARK                         _______ _______ _______ _____ _____    ______ ____
ROOT
ATOM      8  C   UNL     1      13.981   9.677  18.053  0.00  0.00    +0.000 C 
ATOM      9  C   UNL     1      12.841   9.937  19.069  0.00  0.00    +0.032 C 
ATOM     10  C   UNL     1      14.225   8.169  17.894  0.00  0.00    +0.012 C 
ATOM     11  C   UNL     1      14.596   7.495  19.227  0.00  0.00    +0.023 C 
ATOM     13  C   UNL     1      13.668   7.916  20.348  0.00  0.00    -0.073 C 
ATOM     14  C   UNL     1      12.882   9.002  20.255  0.00  0.00    -0.022 C 
ATOM     19  C   UNL     1      13.632   7.032  21.564  0.00  0.00    +0.039 C 
ENDROOT
BRANCH   8  12
ATOM     12  C   UNL     1      13.679  10.302  16.687  0.00  0.00    -0.013 C 
ATOM     17  C   UNL     1      12.632   9.478  15.945  0.00  0.00    +0.007 C 
ATOM     18  C   UNL     1      14.957  10.422  15.862  0.00  0.00    +0.007 C 
ENDBRANCH   8  12
BRANCH  11  15
ATOM     15  C   UNL     1      16.059   7.765  19.594  0.00  0.00    +0.103 C 
BRANCH  15  20
ATOM      1  O   UNL     1      16.543   5.697  18.533  0.00  0.00    -0.276 OA
ATOM      3  N   UNL     1      17.991   6.366  20.224  0.00  0.00    -0.298 N 
ATOM      5  N   UNL     1      20.437   6.059  21.741  0.00  0.00    -0.312 N 
ATOM      6  N   UNL     1      21.584   5.895  23.798  0.00  0.00    -0.240 NA
ATOM     20  C   UNL     1      16.879   6.514  19.393  0.00  0.00    +0.216 C 
ATOM     21  C   UNL     1      18.395   7.343  21.238  0.00  0.00    +0.126 C 
ATOM     22  C   UNL     1      18.832   5.179  20.094  0.00  0.00    +0.126 C 
ATOM     23  C   UNL     1      19.276   6.734  22.328  0.00  0.00    +0.125 C 
ATOM     24  C   UNL     1      20.297   5.482  20.401  0.00  0.00    +0.125 C 
ATOM     26  C   UNL     1      21.631   5.935  22.448  0.00  0.00    +0.121 A 
ATOM     28  C   UNL     1      22.800   5.860  21.710  0.00  0.00    +0.043 A 
ATOM     31  C   UNL     1      24.000   5.737  22.401  0.00  0.00    +0.005 A 
ATOM     32  C   UNL     1      22.771   5.775  24.436  0.00  0.00    +0.113 A 
ATOM     33  C   UNL     1      23.993   5.692  23.791  0.00  0.00    +0.020 A 
ENDBRANCH  15  20
ENDBRANCH  11  15
BRANCH   9  16
ATOM     16  C   UNL     1      12.858  11.388  19.562  0.00  0.00    +0.112 C 
BRANCH  16   4
ATOM      2  O   UNL     1      11.352  13.536  20.730  0.00  0.00    -0.270 OA
ATOM      4  N   UNL     1      12.394  11.470  20.912  0.00  0.00    -0.311 N 
ATOM     25  C   UNL     1      11.665  12.555  21.399  0.00  0.00    +0.244 C 
ATOM     36  H   UNL     1      12.537  10.657  21.501  0.00  0.00    +0.149 HD
BRANCH  25  27
ATOM      7  N   UNL     1      10.557  12.399  25.532  0.00  0.00    -0.263 NA
ATOM     27  C   UNL     1      11.279  12.500  22.833  0.00  0.00    +0.040 A 
ATOM     29  C   UNL     1      10.659  13.592  23.431  0.00  0.00    +0.033 A 
ATOM     30  C   UNL     1      11.539  11.358  23.582  0.00  0.00    +0.033 A 
ATOM     34  C   UNL     1      10.321  13.491  24.771  0.00  0.00    +0.111 A 
ATOM     35  C   UNL     1      11.162  11.358  24.916  0.00  0.00    +0.111 A 
ENDBRANCH  25  27
ENDBRANCH  16   4
ENDBRANCH   9  16
TORSDOF 6
ENDMDL
MODEL 3
REMARK VINA RESULT:      -7.1      3.604      6.929
REMARK  Name = 38028932
REMARK  9 active torsions:
REMARK  status: ('A' for Active; 'I' for Inactive)
REMARK    1  A    between atoms: N_4  and  C_16
REMARK    2  A    between atoms: C_8  and  C_12
REMARK    3  A    between atoms: C_9  and  C_16
REMARK    4  A    between atoms: C_11  and  C_15
REMARK    5  A    between atoms: C_12  and  C_17
REMARK    6  A    between atoms: C_12  and  C_18
REMARK    7  A    between atoms: C_13  and  C_19
REMARK    8  A    between atoms: C_15  and  C_20
REMARK    9  A    between atoms: C_25  and  C_27
REMARK                            x       y       z     vdW  Elec       q    Type
REMARK                         _______ _______ _______ _____ _____    ______ ____
ROOT
ATOM      8  C   UNL     1      -7.543 -11.811  17.170  0.00  0.00    +0.000 C 
ATOM      9  C   UNL     1      -7.566 -12.082  18.695  0.00  0.00    +0.032 C 
ATOM     10  C   UNL     1      -6.332 -12.498  16.521  0.00  0.00    +0.012 C 
ATOM     11  C   UNL     1      -4.999 -12.018  17.122  0.00  0.00    +0.023 C 
ATOM     13  C   UNL     1      -5.037 -12.003  18.636  0.00  0.00    -0.073 C 
ATOM     14  C   UNL     1      -6.192 -12.045  19.322  0.00  0.00    -0.022 C 
ATOM     19  C   UNL     1      -3.711 -11.984  19.346  0.00  0.00    +0.039 C 
ENDROOT
BRANCH   8  12
ATOM     12  C   UNL     1      -8.833 -12.281  16.490  0.00  0.00    -0.013 C 
ATOM     17  C   UNL     1      -8.768 -13.776  16.201  0.00  0.00    +0.007 C 
ATOM     18  C   UNL     1      -9.076 -11.492  15.207  0.00  0.00    +0.007 C 
ENDBRANCH   8  12
BRANCH  11  15
ATOM     15  C   UNL     1      -4.607 -10.644  16.569  0.00  0.00    +0.103 C 
BRANCH  15  20
ATOM      1  O   UNL     1      -2.303 -10.963  16.089  0.00  0.00    -0.276 OA
ATOM      3  N   UNL     1      -3.721 -10.691  14.267  0.00  0.00    -0.298 N 
ATOM      5  N   UNL     1      -4.230 -10.734  11.417  0.00  0.00    -0.312 N 
ATOM      6  N   UNL     1      -5.058  -9.719   9.452  0.00  0.00    -0.240 NA
ATOM     20  C   UNL     1      -3.433 -10.783  15.630  0.00  0.00    +0.216 C 
ATOM     21  C   UNL     1      -5.065 -10.488  13.723  0.00  0.00    +0.126 C 
ATOM     22  C   UNL     1      -2.637 -10.811  13.294  0.00  0.00    +0.126 C 
ATOM     23  C   UNL     1      -5.051  -9.909  12.309  0.00  0.00    +0.125 C 
ATOM     24  C   UNL     1      -3.104 -11.472  11.999  0.00  0.00    +0.125 C 
ATOM     26  C   UNL     1      -4.486 -10.788  10.050  0.00  0.00    +0.121 A 
ATOM     28  C   UNL     1      -4.132 -11.951   9.384  0.00  0.00    +0.043 A 
ATOM     31  C   UNL     1      -4.383 -12.022   8.019  0.00  0.00    +0.005 A 
ATOM     32  C   UNL     1      -5.286  -9.825   8.124  0.00  0.00    +0.113 A 
ATOM     33  C   UNL     1      -4.970 -10.942   7.369  0.00  0.00    +0.020 A 
ENDBRANCH  15  20
ENDBRANCH  11  15
BRANCH   9  16
ATOM     16  C   UNL     1      -8.485 -11.093  19.420  0.00  0.00    +0.112 C 
BRANCH  16   4
ATOM      2  O   UNL     1     -11.188 -10.130  19.303  0.00  0.00    -0.270 OA
ATOM      4  N   UNL     1      -9.007 -10.124  18.508  0.00  0.00    -0.311 N 
ATOM     25  C   UNL     1     -10.339  -9.710  18.520  0.00  0.00    +0.244 C 
ATOM     36  H   UNL     1      -8.345  -9.666  17.890  0.00  0.00    +0.149 HD
BRANCH  25  27
ATOM      7  N   UNL     1     -11.466  -6.845  15.546  0.00  0.00    -0.263 NA
ATOM     27  C   UNL     1     -10.730  -8.714  17.490  0.00  0.00    +0.040 A 
ATOM     29  C   UNL     1     -12.061  -8.597  17.102  0.00  0.00    +0.033 A 
ATOM     30  C   UNL     1      -9.767  -7.898  16.907  0.00  0.00    +0.033 A 
ATOM     34  C   UNL     1     -12.373  -7.656  16.135  0.00  0.00    +0.111 A 
ATOM     35  C   UNL     1     -10.183  -6.987  15.948  0.00  0.00    +0.111 A 
ENDBRANCH  25  27
ENDBRANCH  16   4
ENDBRANCH   9  16
TORSDOF 6
ENDMDL
MODEL 4
REMARK VINA RESULT:      -7.0     21.161     25.137
REMARK  Name = 38028932
REMARK  9 active torsions:
REMARK  status: ('A' for Active; 'I' for Inactive)
REMARK    1  A    between atoms: N_4  and  C_16
REMARK    2  A    between atoms: C_8  and  C_12
REMARK    3  A    between atoms: C_9  and  C_16
REMARK    4  A    between atoms: C_11  and  C_15
REMARK    5  A    between atoms: C_12  and  C_17
REMARK    6  A    between atoms: C_12  and  C_18
REMARK    7  A    between atoms: C_13  and  C_19
REMARK    8  A    between atoms: C_15  and  C_20
REMARK    9  A    between atoms: C_25  and  C_27
REMARK                            x       y       z     vdW  Elec       q    Type
REMARK                         _______ _______ _______ _____ _____    ______ ____
ROOT
ATOM      8  C   UNL     1     -14.542   6.406  32.755  0.00  0.00    +0.000 C 
ATOM      9  C   UNL     1     -15.194   5.469  33.802  0.00  0.00    +0.032 C 
ATOM     10  C   UNL     1     -15.613   7.256  32.054  0.00  0.00    +0.012 C 
ATOM     11  C   UNL     1     -16.670   6.391  31.343  0.00  0.00    +0.023 C 
ATOM     13  C   UNL     1     -17.170   5.270  32.232  0.00  0.00    -0.073 C 
ATOM     14  C   UNL     1     -16.505   4.881  33.333  0.00  0.00    -0.022 C 
ATOM     19  C   UNL     1     -18.479   4.637  31.849  0.00  0.00    +0.039 C 
ENDROOT
BRANCH   8  12
ATOM     12  C   UNL     1     -13.487   7.318  33.388  0.00  0.00    -0.013 C 
ATOM     17  C   UNL     1     -14.154   8.500  34.084  0.00  0.00    +0.007 C 
ATOM     18  C   UNL     1     -12.498   7.801  32.332  0.00  0.00    +0.007 C 
ENDBRANCH   8  12
BRANCH  11  15
ATOM     15  C   UNL     1     -16.134   5.842  30.017  0.00  0.00    +0.103 C 
BRANCH  15  20
ATOM      1  O   UNL     1     -17.566   7.329  28.843  0.00  0.00    -0.276 OA
ATOM      3  N   UNL     1     -17.343   5.187  27.969  0.00  0.00    -0.298 N 
ATOM      5  N   UNL     1     -17.794   3.240  25.874  0.00  0.00    -0.312 N 
ATOM      6  N   UNL     1     -18.517   1.110  25.156  0.00  0.00    -0.240 NA
ATOM     20  C   UNL     1     -17.078   6.197  28.895  0.00  0.00    +0.216 C 
ATOM     21  C   UNL     1     -16.755   3.847  28.025  0.00  0.00    +0.126 C 
ATOM     22  C   UNL     1     -18.251   5.452  26.856  0.00  0.00    +0.126 C 
ATOM     23  C   UNL     1     -17.573   2.808  27.258  0.00  0.00    +0.125 C 
ATOM     24  C   UNL     1     -17.855   4.679  25.600  0.00  0.00    +0.125 C 
ATOM     26  C   UNL     1     -17.979   2.312  24.852  0.00  0.00    +0.121 A 
ATOM     28  C   UNL     1     -17.593   2.689  23.576  0.00  0.00    +0.043 A 
ATOM     31  C   UNL     1     -17.770   1.773  22.545  0.00  0.00    +0.005 A 
ATOM     32  C   UNL     1     -18.674   0.246  24.128  0.00  0.00    +0.113 A 
ATOM     33  C   UNL     1     -18.321   0.526  22.818  0.00  0.00    +0.020 A 
ENDBRANCH  15  20
ENDBRANCH  11  15
BRANCH   9  16
ATOM     16  C   UNL     1     -14.242   4.338  34.204  0.00  0.00    +0.112 C 
BRANCH  16   4
ATOM      2  O   UNL     1     -12.749   3.592  31.867  0.00  0.00    -0.270 OA
ATOM      4  N   UNL     1     -14.454   3.183  33.388  0.00  0.00    -0.311 N 
ATOM     25  C   UNL     1     -13.678   2.894  32.265  0.00  0.00    +0.244 C 
ATOM     36  H   UNL     1     -15.146   2.513  33.705  0.00  0.00    +0.149 HD
BRANCH  25  27
ATOM      7  N   UNL     1     -14.724  -0.641  30.089  0.00  0.00    -0.263 NA
ATOM     27  C   UNL     1     -14.043   1.669  31.509  0.00  0.00    +0.040 A 
ATOM     29  C   UNL     1     -14.831   0.690  32.105  0.00  0.00    +0.033 A 
ATOM     30  C   UNL     1     -13.595   1.494  30.204  0.00  0.00    +0.033 A 
ATOM     34  C   UNL     1     -15.140  -0.436  31.358  0.00  0.00    +0.111 A 
ATOM     35  C   UNL     1     -13.960   0.332  29.543  0.00  0.00    +0.111 A 
ENDBRANCH  25  27
ENDBRANCH  16   4
ENDBRANCH   9  16
TORSDOF 6
ENDMDL
MODEL 5
REMARK VINA RESULT:      -6.9      3.820      7.288
REMARK  Name = 38028932
REMARK  9 active torsions:
REMARK  status: ('A' for Active; 'I' for Inactive)
REMARK    1  A    between atoms: N_4  and  C_16
REMARK    2  A    between atoms: C_8  and  C_12
REMARK    3  A    between atoms: C_9  and  C_16
REMARK    4  A    between atoms: C_11  and  C_15
REMARK    5  A    between atoms: C_12  and  C_17
REMARK    6  A    between atoms: C_12  and  C_18
REMARK    7  A    between atoms: C_13  and  C_19
REMARK    8  A    between atoms: C_15  and  C_20
REMARK    9  A    between atoms: C_25  and  C_27
REMARK                            x       y       z     vdW  Elec       q    Type
REMARK                         _______ _______ _______ _____ _____    ______ ____
ROOT
ATOM      8  C   UNL     1      -7.025 -11.292  17.024  0.00  0.00    +0.000 C 
ATOM      9  C   UNL     1      -7.111 -11.512  18.555  0.00  0.00    +0.032 C 
ATOM     10  C   UNL     1      -5.934 -12.186  16.414  0.00  0.00    +0.012 C 
ATOM     11  C   UNL     1      -4.548 -11.913  17.025  0.00  0.00    +0.023 C 
ATOM     13  C   UNL     1      -4.602 -11.849  18.538  0.00  0.00    -0.073 C 
ATOM     14  C   UNL     1      -5.757 -11.683  19.205  0.00  0.00    -0.022 C 
ATOM     19  C   UNL     1      -3.301 -12.026  19.270  0.00  0.00    +0.039 C 
ENDROOT
BRANCH   8  12
ATOM     12  C   UNL     1      -8.365 -11.564  16.334  0.00  0.00    -0.013 C 
ATOM     17  C   UNL     1      -8.921 -12.917  16.766  0.00  0.00    +0.007 C 
ATOM     18  C   UNL     1      -8.206 -11.504  14.818  0.00  0.00    +0.007 C 
ENDBRANCH   8  12
BRANCH  11  15
ATOM     15  C   UNL     1      -3.929 -10.637  16.444  0.00  0.00    +0.103 C 
BRANCH  15  20
ATOM      1  O   UNL     1      -1.722 -11.310  15.882  0.00  0.00    -0.276 OA
ATOM      3  N   UNL     1      -3.182 -10.939  14.112  0.00  0.00    -0.298 N 
ATOM      5  N   UNL     1      -3.841 -11.066  11.296  0.00  0.00    -0.312 N 
ATOM      6  N   UNL     1      -4.622 -10.055   9.310  0.00  0.00    -0.240 NA
ATOM     20  C   UNL     1      -2.838 -10.996  15.464  0.00  0.00    +0.216 C 
ATOM     21  C   UNL     1      -4.511 -10.576  13.616  0.00  0.00    +0.126 C 
ATOM     22  C   UNL     1      -2.179 -11.267  13.102  0.00  0.00    +0.126 C 
ATOM     23  C   UNL     1      -4.490 -10.084  12.170  0.00  0.00    +0.125 C 
ATOM     24  C   UNL     1      -2.802 -11.925  11.872  0.00  0.00    +0.125 C 
ATOM     26  C   UNL     1      -4.174 -11.160   9.947  0.00  0.00    +0.121 A 
ATOM     28  C   UNL     1      -4.024 -12.396   9.341  0.00  0.00    +0.043 A 
ATOM     31  C   UNL     1      -4.354 -12.506   7.995  0.00  0.00    +0.005 A 
ATOM     32  C   UNL     1      -4.933 -10.200   8.002  0.00  0.00    +0.113 A 
ATOM     33  C   UNL     1      -4.817 -11.391   7.305  0.00  0.00    +0.020 A 
ENDBRANCH  15  20
ENDBRANCH  11  15
BRANCH   9  16
ATOM     16  C   UNL     1      -7.864 -10.366  19.238  0.00  0.00    +0.112 C 
BRANCH  16   4
ATOM      2  O   UNL     1     -10.503  -9.466  18.549  0.00  0.00    -0.270 OA
ATOM      4  N   UNL     1      -9.097 -10.829  19.795  0.00  0.00    -0.311 N 
ATOM     25  C   UNL     1     -10.341 -10.336  19.400  0.00  0.00    +0.244 C 
ATOM     36  H   UNL     1      -9.049 -11.611  20.440  0.00  0.00    +0.149 HD
BRANCH  25  27
ATOM      7  N   UNL     1     -13.757 -11.975  21.393  0.00  0.00    -0.263 NA
ATOM     27  C   UNL     1     -11.526 -10.904  20.094  0.00  0.00    +0.040 A 
ATOM     29  C   UNL     1     -11.542 -12.246  20.462  0.00  0.00    +0.033 A 
ATOM     30  C   UNL     1     -12.623 -10.098  20.373  0.00  0.00    +0.033 A 
ATOM     34  C   UNL     1     -12.672 -12.727  21.104  0.00  0.00    +0.111 A 
ATOM     35  C   UNL     1     -13.705 -10.677  21.020  0.00  0.00    +0.111 A 
ENDBRANCH  25  27
ENDBRANCH  16   4
ENDBRANCH   9  16
TORSDOF 6
ENDMDL
MODEL 6
REMARK VINA RESULT:      -6.9      2.501      4.171
REMARK  Name = 38028932
REMARK  9 active torsions:
REMARK  status: ('A' for Active; 'I' for Inactive)
REMARK    1  A    between atoms: N_4  and  C_16
REMARK    2  A    between atoms: C_8  and  C_12
REMARK    3  A    between atoms: C_9  and  C_16
REMARK    4  A    between atoms: C_11  and  C_15
REMARK    5  A    between atoms: C_12  and  C_17
REMARK    6  A    between atoms: C_12  and  C_18
REMARK    7  A    between atoms: C_13  and  C_19
REMARK    8  A    between atoms: C_15  and  C_20
REMARK    9  A    between atoms: C_25  and  C_27
REMARK                            x       y       z     vdW  Elec       q    Type
REMARK                         _______ _______ _______ _____ _____    ______ ____
ROOT
ATOM      8  C   UNL     1      -4.963 -12.396  16.459  0.00  0.00    +0.000 C 
ATOM      9  C   UNL     1      -4.064 -11.877  17.609  0.00  0.00    +0.032 C 
ATOM     10  C   UNL     1      -4.106 -12.803  15.250  0.00  0.00    +0.012 C 
ATOM     11  C   UNL     1      -3.258 -11.634  14.717  0.00  0.00    +0.023 C 
ATOM     13  C   UNL     1      -2.546 -10.899  15.834  0.00  0.00    -0.073 C 
ATOM     14  C   UNL     1      -2.911 -11.030  17.121  0.00  0.00    -0.022 C 
ATOM     19  C   UNL     1      -1.373 -10.044  15.442  0.00  0.00    +0.039 C 
ENDROOT
BRANCH   8  12
ATOM     12  C   UNL     1      -5.828 -13.579  16.904  0.00  0.00    -0.013 C 
ATOM     17  C   UNL     1      -5.151 -14.898  16.547  0.00  0.00    +0.007 C 
ATOM     18  C   UNL     1      -7.213 -13.494  16.269  0.00  0.00    +0.007 C 
ENDBRANCH   8  12
BRANCH  11  15
ATOM     15  C   UNL     1      -4.109 -10.671  13.882  0.00  0.00    +0.103 C 
BRANCH  15  20
ATOM      1  O   UNL     1      -2.365 -10.913  12.288  0.00  0.00    -0.276 OA
ATOM      3  N   UNL     1      -4.343  -9.953  11.533  0.00  0.00    -0.298 N 
ATOM      5  N   UNL     1      -6.038  -8.974   9.399  0.00  0.00    -0.312 N 
ATOM      6  N   UNL     1      -7.408  -7.298   8.455  0.00  0.00    -0.240 NA
ATOM     20  C   UNL     1      -3.518 -10.530  12.500  0.00  0.00    +0.216 C 
ATOM     21  C   UNL     1      -5.716  -9.509  11.784  0.00  0.00    +0.126 C 
ATOM     22  C   UNL     1      -3.842  -9.779  10.172  0.00  0.00    +0.126 C 
ATOM     23  C   UNL     1      -6.198  -8.473  10.768  0.00  0.00    +0.125 C 
ATOM     24  C   UNL     1      -4.952  -9.922   9.132  0.00  0.00    +0.125 C 
ATOM     26  C   UNL     1      -6.868  -8.535   8.372  0.00  0.00    +0.121 A 
ATOM     28  C   UNL     1      -7.089  -9.408   7.319  0.00  0.00    +0.043 A 
ATOM     31  C   UNL     1      -7.918  -8.985   6.285  0.00  0.00    +0.005 A 
ATOM     32  C   UNL     1      -8.207  -6.922   7.432  0.00  0.00    +0.113 A 
ATOM     33  C   UNL     1      -8.490  -7.719   6.335  0.00  0.00    +0.020 A 
ENDBRANCH  15  20
ENDBRANCH  11  15
BRANCH   9  16
ATOM     16  C   UNL     1      -4.880 -11.085  18.636  0.00  0.00    +0.112 C 
BRANCH  16   4
ATOM      2  O   UNL     1      -7.542 -11.047  19.714  0.00  0.00    -0.270 OA
ATOM      4  N   UNL     1      -6.039 -10.510  18.028  0.00  0.00    -0.311 N 
ATOM     25  C   UNL     1      -7.300 -10.535  18.624  0.00  0.00    +0.244 C 
ATOM     36  H   UNL     1      -5.901  -9.991  17.167  0.00  0.00    +0.149 HD
BRANCH  25  27
ATOM      7  N   UNL     1     -10.492  -8.757  16.393  0.00  0.00    -0.263 NA
ATOM     27  C   UNL     1      -8.407  -9.916  17.850  0.00  0.00    +0.040 A 
ATOM     29  C   UNL     1      -9.707  -9.948  18.345  0.00  0.00    +0.033 A 
ATOM     30  C   UNL     1      -8.149  -9.305  16.628  0.00  0.00    +0.033 A 
ATOM     34  C   UNL     1     -10.705  -9.360  17.584  0.00  0.00    +0.111 A 
ATOM     35  C   UNL     1      -9.217  -8.745  15.945  0.00  0.00    +0.111 A 
ENDBRANCH  25  27
ENDBRANCH  16   4
ENDBRANCH   9  16
TORSDOF 6
ENDMDL
MODEL 7
REMARK VINA RESULT:      -6.8     25.700     28.849
REMARK  Name = 38028932
REMARK  9 active torsions:
REMARK  status: ('A' for Active; 'I' for Inactive)
REMARK    1  A    between atoms: N_4  and  C_16
REMARK    2  A    between atoms: C_8  and  C_12
REMARK    3  A    between atoms: C_9  and  C_16
REMARK    4  A    between atoms: C_11  and  C_15
REMARK    5  A    between atoms: C_12  and  C_17
REMARK    6  A    between atoms: C_12  and  C_18
REMARK    7  A    between atoms: C_13  and  C_19
REMARK    8  A    between atoms: C_15  and  C_20
REMARK    9  A    between atoms: C_25  and  C_27
REMARK                            x       y       z     vdW  Elec       q    Type
REMARK                         _______ _______ _______ _____ _____    ______ ____
ROOT
ATOM      8  C   UNL     1      11.560   6.918   4.935  0.00  0.00    +0.000 C 
ATOM      9  C   UNL     1      10.247   6.216   4.505  0.00  0.00    +0.032 C 
ATOM     10  C   UNL     1      11.403   8.444   4.858  0.00  0.00    +0.012 C 
ATOM     11  C   UNL     1      11.038   8.921   3.440  0.00  0.00    +0.023 C 
ATOM     13  C   UNL     1       9.918   8.095   2.840  0.00  0.00    -0.073 C 
ATOM     14  C   UNL     1       9.570   6.895   3.336  0.00  0.00    -0.022 C 
ATOM     19  C   UNL     1       9.177   8.701   1.681  0.00  0.00    +0.039 C 
ENDROOT
BRANCH   8  12
ATOM     12  C   UNL     1      11.985   6.510   6.349  0.00  0.00    -0.013 C 
ATOM     17  C   UNL     1      10.862   6.788   7.343  0.00  0.00    +0.007 C 
ATOM     18  C   UNL     1      13.259   7.244   6.755  0.00  0.00    +0.007 C 
ENDBRANCH   8  12
BRANCH  11  15
ATOM     15  C   UNL     1      12.266   8.928   2.525  0.00  0.00    +0.103 C 
BRANCH  15  20
ATOM      1  O   UNL     1      12.846  11.196   2.921  0.00  0.00    -0.276 OA
ATOM      3  N   UNL     1      14.488   9.609   3.354  0.00  0.00    -0.298 N 
ATOM      5  N   UNL     1      17.074   8.855   4.415  0.00  0.00    -0.312 N 
ATOM      6  N   UNL     1      19.170   7.791   4.186  0.00  0.00    -0.240 NA
ATOM     20  C   UNL     1      13.217  10.021   2.950  0.00  0.00    +0.216 C 
ATOM     21  C   UNL     1      14.924   8.211   3.399  0.00  0.00    +0.126 C 
ATOM     22  C   UNL     1      15.467  10.608   3.775  0.00  0.00    +0.126 C 
ATOM     23  C   UNL     1      16.444   8.063   3.355  0.00  0.00    +0.125 C 
ATOM     24  C   UNL     1      16.395  10.074   4.864  0.00  0.00    +0.125 C 
ATOM     26  C   UNL     1      18.302   8.484   4.957  0.00  0.00    +0.121 A 
ATOM     28  C   UNL     1      18.555   8.855   6.268  0.00  0.00    +0.043 A 
ATOM     31  C   UNL     1      19.776   8.490   6.823  0.00  0.00    +0.005 A 
ATOM     32  C   UNL     1      20.347   7.455   4.760  0.00  0.00    +0.113 A 
ATOM     33  C   UNL     1      20.695   7.777   6.061  0.00  0.00    +0.020 A 
ENDBRANCH  15  20
ENDBRANCH  11  15
BRANCH   9  16
ATOM     16  C   UNL     1      10.492   4.742   4.167  0.00  0.00    +0.112 C 
BRANCH  16   4
ATOM      2  O   UNL     1      10.305   3.862   1.440  0.00  0.00    -0.270 OA
ATOM      4  N   UNL     1      11.570   4.606   3.238  0.00  0.00    -0.311 N 
ATOM     25  C   UNL     1      11.390   4.171   1.925  0.00  0.00    +0.244 C 
ATOM     36  H   UNL     1      12.484   4.928   3.539  0.00  0.00    +0.149 HD
BRANCH  25  27
ATOM      7  N   UNL     1      14.924   3.856  -0.470  0.00  0.00    -0.263 NA
ATOM     27  C   UNL     1      12.616   4.060   1.093  0.00  0.00    +0.040 A 
ATOM     29  C   UNL     1      13.846   3.810   1.693  0.00  0.00    +0.033 A 
ATOM     30  C   UNL     1      12.539   4.208  -0.287  0.00  0.00    +0.033 A 
ATOM     34  C   UNL     1      14.960   3.719   0.874  0.00  0.00    +0.111 A 
ATOM     35  C   UNL     1      13.712   4.098  -1.018  0.00  0.00    +0.111 A 
ENDBRANCH  25  27
ENDBRANCH  16   4
ENDBRANCH   9  16
TORSDOF 6
ENDMDL
MODEL 8
REMARK VINA RESULT:      -6.6      2.565      8.070
REMARK  Name = 38028932
REMARK  9 active torsions:
REMARK  status: ('A' for Active; 'I' for Inactive)
REMARK    1  A    between atoms: N_4  and  C_16
REMARK    2  A    between atoms: C_8  and  C_12
REMARK    3  A    between atoms: C_9  and  C_16
REMARK    4  A    between atoms: C_11  and  C_15
REMARK    5  A    between atoms: C_12  and  C_17
REMARK    6  A    between atoms: C_12  and  C_18
REMARK    7  A    between atoms: C_13  and  C_19
REMARK    8  A    between atoms: C_15  and  C_20
REMARK    9  A    between atoms: C_25  and  C_27
REMARK                            x       y       z     vdW  Elec       q    Type
REMARK                         _______ _______ _______ _____ _____    ______ ____
ROOT
ATOM      8  C   UNL     1      -3.603 -10.614  11.219  0.00  0.00    +0.000 C 
ATOM      9  C   UNL     1      -3.756  -9.734   9.953  0.00  0.00    +0.032 C 
ATOM     10  C   UNL     1      -3.211 -12.048  10.832  0.00  0.00    +0.012 C 
ATOM     11  C   UNL     1      -4.249 -12.706   9.903  0.00  0.00    +0.023 C 
ATOM     13  C   UNL     1      -4.652 -11.785   8.770  0.00  0.00    -0.073 C 
ATOM     14  C   UNL     1      -4.413 -10.463   8.803  0.00  0.00    -0.022 C 
ATOM     19  C   UNL     1      -5.299 -12.428   7.574  0.00  0.00    +0.039 C 
ENDROOT
BRANCH   8  12
ATOM     12  C   UNL     1      -2.569 -10.037  12.190  0.00  0.00    -0.013 C 
ATOM     17  C   UNL     1      -1.279  -9.695  11.453  0.00  0.00    +0.007 C 
ATOM     18  C   UNL     1      -2.298 -11.020  13.325  0.00  0.00    +0.007 C 
ENDBRANCH   8  12
BRANCH  11  15
ATOM     15  C   UNL     1      -5.475 -13.176  10.691  0.00  0.00    +0.103 C 
BRANCH  15  20
ATOM      1  O   UNL     1      -4.503 -15.169  11.542  0.00  0.00    -0.276 OA
ATOM      3  N   UNL     1      -5.308 -13.650  13.107  0.00  0.00    -0.298 N 
ATOM      5  N   UNL     1      -5.604 -12.733  15.837  0.00  0.00    -0.312 N 
ATOM      6  N   UNL     1      -6.944 -11.976  17.627  0.00  0.00    -0.240 NA
ATOM     20  C   UNL     1      -5.046 -14.095  11.810  0.00  0.00    +0.216 C 
ATOM     21  C   UNL     1      -5.944 -12.369  13.424  0.00  0.00    +0.126 C 
ATOM     22  C   UNL     1      -4.927 -14.485  14.243  0.00  0.00    +0.126 C 
ATOM     23  C   UNL     1      -6.580 -12.351  14.813  0.00  0.00    +0.125 C 
ATOM     24  C   UNL     1      -4.523 -13.648  15.456  0.00  0.00    +0.125 C 
ATOM     26  C   UNL     1      -5.716 -12.272  17.146  0.00  0.00    +0.121 A 
ATOM     28  C   UNL     1      -4.546 -12.144  17.876  0.00  0.00    +0.043 A 
ATOM     31  C   UNL     1      -4.642 -11.683  19.184  0.00  0.00    +0.005 A 
ATOM     32  C   UNL     1      -6.998 -11.531  18.903  0.00  0.00    +0.113 A 
ATOM     33  C   UNL     1      -5.888 -11.369  19.715  0.00  0.00    +0.020 A 
ENDBRANCH  15  20
ENDBRANCH  11  15
BRANCH   9  16
ATOM     16  C   UNL     1      -4.539  -8.453  10.259  0.00  0.00    +0.112 C 
BRANCH  16   4
ATOM      2  O   UNL     1      -7.397  -8.734  10.314  0.00  0.00    -0.270 OA
ATOM      4  N   UNL     1      -5.447  -8.148   9.198  0.00  0.00    -0.311 N 
ATOM     25  C   UNL     1      -6.828  -8.314   9.309  0.00  0.00    +0.244 C 
ATOM     36  H   UNL     1      -5.060  -7.712   8.368  0.00  0.00    +0.149 HD
BRANCH  25  27
ATOM      7  N   UNL     1      -9.140  -7.336   5.842  0.00  0.00    -0.263 NA
ATOM     27  C   UNL     1      -7.632  -7.976   8.107  0.00  0.00    +0.040 A 
ATOM     29  C   UNL     1      -7.486  -8.717   6.939  0.00  0.00    +0.033 A 
ATOM     30  C   UNL     1      -8.530  -6.915   8.144  0.00  0.00    +0.033 A 
ATOM     34  C   UNL     1      -8.257  -8.359   5.844  0.00  0.00    +0.111 A 
ATOM     35  C   UNL     1      -9.255  -6.638   6.995  0.00  0.00    +0.111 A 
ENDBRANCH  25  27
ENDBRANCH  16   4
ENDBRANCH   9  16
TORSDOF 6
ENDMDL
MODEL 9
REMARK VINA RESULT:      -6.6     25.758     28.948
REMARK  Name = 38028932
REMARK  9 active torsions:
REMARK  status: ('A' for Active; 'I' for Inactive)
REMARK    1  A    between atoms: N_4  and  C_16
REMARK    2  A    between atoms: C_8  and  C_12
REMARK    3  A    between atoms: C_9  and  C_16
REMARK    4  A    between atoms: C_11  and  C_15
REMARK    5  A    between atoms: C_12  and  C_17
REMARK    6  A    between atoms: C_12  and  C_18
REMARK    7  A    between atoms: C_13  and  C_19
REMARK    8  A    between atoms: C_15  and  C_20
REMARK    9  A    between atoms: C_25  and  C_27
REMARK                            x       y       z     vdW  Elec       q    Type
REMARK                         _______ _______ _______ _____ _____    ______ ____
ROOT
ATOM      8  C   UNL     1      10.430   7.248   6.310  0.00  0.00    +0.000 C 
ATOM      9  C   UNL     1       9.527   7.834   5.195  0.00  0.00    +0.032 C 
ATOM     10  C   UNL     1      11.179   8.372   7.040  0.00  0.00    +0.012 C 
ATOM     11  C   UNL     1      12.058   9.203   6.087  0.00  0.00    +0.023 C 
ATOM     13  C   UNL     1      11.310   9.594   4.829  0.00  0.00    -0.073 C 
ATOM     14  C   UNL     1      10.174   8.981   4.453  0.00  0.00    -0.022 C 
ATOM     19  C   UNL     1      11.874  10.740   4.035  0.00  0.00    +0.039 C 
ENDROOT
BRANCH   8  12
ATOM     12  C   UNL     1       9.625   6.420   7.316  0.00  0.00    -0.013 C 
ATOM     17  C   UNL     1       8.678   7.317   8.106  0.00  0.00    +0.007 C 
ATOM     18  C   UNL     1      10.561   5.665   8.254  0.00  0.00    +0.007 C 
ENDBRANCH   8  12
BRANCH  11  15
ATOM     15  C   UNL     1      13.355   8.462   5.746  0.00  0.00    +0.103 C 
BRANCH  15  20
ATOM      1  O   UNL     1      14.395  10.226   6.948  0.00  0.00    -0.276 OA
ATOM      3  N   UNL     1      15.768   8.948   5.575  0.00  0.00    -0.298 N 
ATOM      5  N   UNL     1      18.387   8.180   4.610  0.00  0.00    -0.312 N 
ATOM      6  N   UNL     1      19.896   7.765   2.842  0.00  0.00    -0.240 NA
ATOM     20  C   UNL     1      14.545   9.296   6.152  0.00  0.00    +0.216 C 
ATOM     21  C   UNL     1      15.947   7.837   4.638  0.00  0.00    +0.126 C 
ATOM     22  C   UNL     1      16.966   9.712   5.914  0.00  0.00    +0.126 C 
ATOM     23  C   UNL     1      17.199   7.987   3.774  0.00  0.00    +0.125 C 
ATOM     24  C   UNL     1      18.219   8.839   5.910  0.00  0.00    +0.125 C 
ATOM     26  C   UNL     1      19.648   7.784   4.171  0.00  0.00    +0.121 A 
ATOM     28  C   UNL     1      20.575   7.431   5.139  0.00  0.00    +0.043 A 
ATOM     31  C   UNL     1      21.838   7.032   4.715  0.00  0.00    +0.005 A 
ATOM     32  C   UNL     1      21.135   7.372   2.469  0.00  0.00    +0.113 A 
ATOM     33  C   UNL     1      22.131   7.000   3.357  0.00  0.00    +0.020 A 
ENDBRANCH  15  20
ENDBRANCH  11  15
BRANCH   9  16
ATOM     16  C   UNL     1       9.108   6.751   4.195  0.00  0.00    +0.112 C 
BRANCH  16   4
ATOM      2  O   UNL     1      10.034   6.498   1.488  0.00  0.00    -0.270 OA
ATOM      4  N   UNL     1      10.244   6.007   3.747  0.00  0.00    -0.311 N 
ATOM     25  C   UNL     1      10.625   5.938   2.407  0.00  0.00    +0.244 C 
ATOM     36  H   UNL     1      10.834   5.590   4.459  0.00  0.00    +0.149 HD
BRANCH  25  27
ATOM      7  N   UNL     1      14.052   3.529   1.523  0.00  0.00    -0.263 NA
ATOM     27  C   UNL     1      11.815   5.101   2.103  0.00  0.00    +0.040 A 
ATOM     29  C   UNL     1      13.067   5.692   1.966  0.00  0.00    +0.033 A 
ATOM     30  C   UNL     1      11.680   3.726   1.950  0.00  0.00    +0.033 A 
ATOM     34  C   UNL     1      14.143   4.869   1.678  0.00  0.00    +0.111 A 
ATOM     35  C   UNL     1      12.820   2.990   1.663  0.00  0.00    +0.111 A 
ENDBRANCH  25  27
ENDBRANCH  16   4
ENDBRANCH   9  16
TORSDOF 6
ENDMDL
MODEL 10
REMARK VINA RESULT:      -6.6     27.973     30.949
REMARK  Name = 38028932
REMARK  9 active torsions:
REMARK  status: ('A' for Active; 'I' for Inactive)
REMARK    1  A    between atoms: N_4  and  C_16
REMARK    2  A    between atoms: C_8  and  C_12
REMARK    3  A    between atoms: C_9  and  C_16
REMARK    4  A    between atoms: C_11  and  C_15
REMARK    5  A    between atoms: C_12  and  C_17
REMARK    6  A    between atoms: C_12  and  C_18
REMARK    7  A    between atoms: C_13  and  C_19
REMARK    8  A    between atoms: C_15  and  C_20
REMARK    9  A    between atoms: C_25  and  C_27
REMARK                            x       y       z     vdW  Elec       q    Type
REMARK                         _______ _______ _______ _____ _____    ______ ____
ROOT
ATOM      8  C   UNL     1      15.615   8.072  20.930  0.00  0.00    +0.000 C 
ATOM      9  C   UNL     1      14.374   7.923  21.845  0.00  0.00    +0.032 C 
ATOM     10  C   UNL     1      16.570   9.137  21.491  0.00  0.00    +0.012 C 
ATOM     11  C   UNL     1      15.893  10.514  21.623  0.00  0.00    +0.023 C 
ATOM     13  C   UNL     1      14.532  10.412  22.282  0.00  0.00    -0.073 C 
ATOM     14  C   UNL     1      13.874   9.244  22.384  0.00  0.00    -0.022 C 
ATOM     19  C   UNL     1      13.965  11.677  22.862  0.00  0.00    +0.039 C 
ENDROOT
BRANCH   8  12
ATOM     12  C   UNL     1      16.360   6.744  20.762  0.00  0.00    -0.013 C 
ATOM     17  C   UNL     1      17.805   6.882  21.227  0.00  0.00    +0.007 C 
ATOM     18  C   UNL     1      16.301   6.282  19.309  0.00  0.00    +0.007 C 
ENDBRANCH   8  12
BRANCH  11  15
ATOM     15  C   UNL     1      15.794  11.214  20.264  0.00  0.00    +0.103 C 
BRANCH  15  20
ATOM      1  O   UNL     1      17.897  12.126  20.883  0.00  0.00    -0.276 OA
ATOM      3  N   UNL     1      17.214  12.475  18.689  0.00  0.00    -0.298 N 
ATOM      5  N   UNL     1      17.724  13.366  15.982  0.00  0.00    -0.312 N 
ATOM      6  N   UNL     1      17.126  14.624  14.075  0.00  0.00    -0.240 NA
ATOM     20  C   UNL     1      17.066  11.976  19.984  0.00  0.00    +0.216 C 
ATOM     21  C   UNL     1      16.231  12.286  17.619  0.00  0.00    +0.126 C 
ATOM     22  C   UNL     1      18.417  13.227  18.341  0.00  0.00    +0.126 C 
ATOM     23  C   UNL     1      16.356  13.329  16.509  0.00  0.00    +0.125 C 
ATOM     24  C   UNL     1      18.823  13.012  16.885  0.00  0.00    +0.125 C 
ATOM     26  C   UNL     1      17.978  13.761  14.671  0.00  0.00    +0.121 A 
ATOM     28  C   UNL     1      19.103  13.233  14.057  0.00  0.00    +0.043 A 
ATOM     31  C   UNL     1      19.370  13.617  12.748  0.00  0.00    +0.005 A 
ATOM     32  C   UNL     1      17.419  14.974  12.802  0.00  0.00    +0.113 A 
ATOM     33  C   UNL     1      18.517  14.504  12.102  0.00  0.00    +0.020 A 
ENDBRANCH  15  20
ENDBRANCH  11  15
BRANCH   9  16
ATOM     16  C   UNL     1      13.232   7.204  21.118  0.00  0.00    +0.112 C 
BRANCH  16   4
ATOM      2  O   UNL     1      10.836   8.167  19.861  0.00  0.00    -0.270 OA
ATOM      4  N   UNL     1      13.105   7.683  19.777  0.00  0.00    -0.311 N 
ATOM     25  C   UNL     1      11.897   8.135  19.244  0.00  0.00    +0.244 C 
ATOM     36  H   UNL     1      13.957   7.771  19.233  0.00  0.00    +0.149 HD
BRANCH  25  27
ATOM      7  N   UNL     1      11.981   9.413  15.159  0.00  0.00    -0.263 NA
ATOM     27  C   UNL     1      11.926   8.577  17.825  0.00  0.00    +0.040 A 
ATOM     29  C   UNL     1      13.124   8.981  17.245  0.00  0.00    +0.033 A 
ATOM     30  C   UNL     1      10.756   8.591  17.075  0.00  0.00    +0.033 A 
ATOM     34  C   UNL     1      13.098   9.386  15.920  0.00  0.00    +0.111 A 
ATOM     35  C   UNL     1      10.836   9.014  15.757  0.00  0.00    +0.111 A 
ENDBRANCH  25  27
ENDBRANCH  16   4
ENDBRANCH   9  16
TORSDOF 6
ENDMDL
