MODEL 1
REMARK VINA RESULT:      -7.5      0.000      0.000
REMARK  Name = 71693937
REMARK  8 active torsions:
REMARK  status: ('A' for Active; 'I' for Inactive)
REMARK    1  A    between atoms: O_4  and  C_11
REMARK    2  A    between atoms: O_5  and  C_13
REMARK    3  A    between atoms: O_7  and  C_27
REMARK    4  A    between atoms: O_7  and  C_28
REMARK    5  A    between atoms: N_8  and  C_10
REMARK    6  A    between atoms: C_9  and  C_14
REMARK    7  A    between atoms: C_17  and  C_21
REMARK    8  A    between atoms: C_20  and  C_22
REMARK                            x       y       z     vdW  Elec       q    Type
REMARK                         _______ _______ _______ _____ _____    ______ ____
ROOT
ATOM      9  C   UNL     1      13.914   9.116  19.175  0.00  0.00    +0.044 C 
ATOM     10  C   UNL     1      12.743   8.882  20.155  0.00  0.00    +0.112 C 
ATOM     11  C   UNL     1      11.508   8.945  19.257  0.00  0.00    +0.164 C 
ATOM     12  C   UNL     1      13.380   8.714  17.775  0.00  0.00    +0.044 C 
ATOM     13  C   UNL     1      11.956   8.208  18.000  0.00  0.00    +0.145 C 
ENDROOT
BRANCH   9  14
ATOM     14  C   UNL     1      15.185   8.403  19.587  0.00  0.00    -0.042 A 
ATOM     15  C   UNL     1      15.418   7.095  19.164  0.00  0.00    +0.004 A 
ATOM     16  C   UNL     1      16.122   9.056  20.387  0.00  0.00    +0.004 A 
ATOM     18  C   UNL     1      16.588   6.438  19.542  0.00  0.00    +0.012 A 
ATOM     19  C   UNL     1      17.293   8.398  20.764  0.00  0.00    +0.012 A 
ATOM     20  C   UNL     1      17.527   7.090  20.342  0.00  0.00    +0.055 A 
BRANCH  20  22
ATOM      1  F   UNL     1      18.887   6.188  22.090  0.00  0.00    -0.166 F 
ATOM      2  F   UNL     1      19.918   7.058  20.392  0.00  0.00    -0.166 F 
ATOM      3  F   UNL     1      18.893   5.151  20.179  0.00  0.00    -0.166 F 
ATOM     22  C   UNL     1      18.780   6.389  20.744  0.00  0.00    +0.417 C 
ENDBRANCH  20  22
ENDBRANCH   9  14
BRANCH  10   8
ATOM      6  O   UNL     1      11.361   8.683  22.664  0.00  0.00    -0.270 OA
ATOM      8  N   UNL     1      12.702   9.877  21.197  0.00  0.00    -0.305 N 
ATOM     17  C   UNL     1      12.003   9.691  22.382  0.00  0.00    +0.244 C 
ATOM     29  H   UNL     1      13.193  10.747  21.020  0.00  0.00    +0.149 HD
BRANCH  17  21
ATOM     21  C   UNL     1      12.038  10.822  23.344  0.00  0.00    +0.037 A 
ATOM     23  C   UNL     1      10.969  11.031  24.214  0.00  0.00    +0.016 A 
ATOM     24  C   UNL     1      13.141  11.676  23.375  0.00  0.00    +0.016 A 
ATOM     25  C   UNL     1      11.001  12.095  25.115  0.00  0.00    +0.046 A 
ATOM     26  C   UNL     1      13.173  12.740  24.278  0.00  0.00    +0.046 A 
ATOM     27  C   UNL     1      12.103  12.949  25.147  0.00  0.00    +0.120 A 
BRANCH  27   7
ATOM      7  O   UNL     1      12.135  13.986  26.028  0.00  0.00    -0.495 OA
ATOM     28  C   UNL     1      13.318  14.138  26.811  0.00  0.00    +0.277 C 
ENDBRANCH  27   7
ENDBRANCH  17  21
ENDBRANCH  10   8
BRANCH  11   4
ATOM      4  O   UNL     1      10.385   8.317  19.844  0.00  0.00    -0.387 OA
ATOM     30  H   UNL     1       9.796   8.038  19.123  0.00  0.00    +0.210 HD
ENDBRANCH  11   4
BRANCH  13   5
ATOM      5  O   UNL     1      12.002   6.802  18.222  0.00  0.00    -0.389 OA
ATOM     31  H   UNL     1      12.415   6.656  19.089  0.00  0.00    +0.210 HD
ENDBRANCH  13   5
TORSDOF 7
ENDMDL
MODEL 2
REMARK VINA RESULT:      -6.8     15.455     19.671
REMARK  Name = 71693937
REMARK  8 active torsions:
REMARK  status: ('A' for Active; 'I' for Inactive)
REMARK    1  A    between atoms: O_4  and  C_11
REMARK    2  A    between atoms: O_5  and  C_13
REMARK    3  A    between atoms: O_7  and  C_27
REMARK    4  A    between atoms: O_7  and  C_28
REMARK    5  A    between atoms: N_8  and  C_10
REMARK    6  A    between atoms: C_9  and  C_14
REMARK    7  A    between atoms: C_17  and  C_21
REMARK    8  A    between atoms: C_20  and  C_22
REMARK                            x       y       z     vdW  Elec       q    Type
REMARK                         _______ _______ _______ _____ _____    ______ ____
ROOT
ATOM      9  C   UNL     1       8.380   7.646   4.160  0.00  0.00    +0.044 C 
ATOM     10  C   UNL     1       9.653   8.055   3.386  0.00  0.00    +0.112 C 
ATOM     11  C   UNL     1       9.228   9.324   2.648  0.00  0.00    +0.164 C 
ATOM     12  C   UNL     1       7.543   8.943   4.311  0.00  0.00    +0.044 C 
ATOM     13  C   UNL     1       8.378  10.056   3.679  0.00  0.00    +0.145 C 
ENDROOT
BRANCH   9  14
ATOM     14  C   UNL     1       8.682   6.943   5.467  0.00  0.00    -0.042 A 
ATOM     15  C   UNL     1       8.497   7.612   6.677  0.00  0.00    +0.004 A 
ATOM     16  C   UNL     1       9.142   5.627   5.461  0.00  0.00    +0.004 A 
ATOM     18  C   UNL     1       8.773   6.965   7.881  0.00  0.00    +0.012 A 
ATOM     19  C   UNL     1       9.418   4.979   6.665  0.00  0.00    +0.012 A 
ATOM     20  C   UNL     1       9.234   5.648   7.875  0.00  0.00    +0.055 A 
BRANCH  20  22
ATOM      1  F   UNL     1       9.757   3.616   9.023  0.00  0.00    -0.166 F 
ATOM      2  F   UNL     1       8.515   5.048  10.076  0.00  0.00    -0.166 F 
ATOM      3  F   UNL     1      10.632   5.453   9.788  0.00  0.00    -0.166 F 
ATOM     22  C   UNL     1       9.526   4.954   9.163  0.00  0.00    +0.417 C 
ENDBRANCH  20  22
ENDBRANCH   9  14
BRANCH  10   8
ATOM      6  O   UNL     1      12.052   6.490   3.585  0.00  0.00    -0.270 OA
ATOM      8  N   UNL     1      10.087   7.024   2.476  0.00  0.00    -0.305 N 
ATOM     17  C   UNL     1      11.268   6.318   2.656  0.00  0.00    +0.244 C 
ATOM     29  H   UNL     1       9.497   6.844   1.671  0.00  0.00    +0.149 HD
BRANCH  17  21
ATOM     21  C   UNL     1      11.587   5.305   1.616  0.00  0.00    +0.037 A 
ATOM     23  C   UNL     1      10.740   5.142   0.520  0.00  0.00    +0.016 A 
ATOM     24  C   UNL     1      12.732   4.517   1.738  0.00  0.00    +0.016 A 
ATOM     25  C   UNL     1      11.038   4.190  -0.455  0.00  0.00    +0.046 A 
ATOM     26  C   UNL     1      13.029   3.565   0.761  0.00  0.00    +0.046 A 
ATOM     27  C   UNL     1      12.182   3.402  -0.334  0.00  0.00    +0.120 A 
BRANCH  27   7
ATOM      7  O   UNL     1      12.473   2.474  -1.286  0.00  0.00    -0.495 OA
ATOM     28  C   UNL     1      11.645   2.453  -2.448  0.00  0.00    +0.277 C 
ENDBRANCH  27   7
ENDBRANCH  17  21
ENDBRANCH  10   8
BRANCH  11   4
ATOM      4  O   UNL     1      10.337  10.110   2.250  0.00  0.00    -0.387 OA
ATOM     30  H   UNL     1      10.905   9.551   1.694  0.00  0.00    +0.210 HD
ENDBRANCH  11   4
BRANCH  13   5
ATOM      5  O   UNL     1       9.192  10.644   4.689  0.00  0.00    -0.389 OA
ATOM     31  H   UNL     1       8.970  11.589   4.729  0.00  0.00    +0.210 HD
ENDBRANCH  13   5
TORSDOF 7
ENDMDL
MODEL 3
REMARK VINA RESULT:      -6.7      3.526      6.363
REMARK  Name = 71693937
REMARK  8 active torsions:
REMARK  status: ('A' for Active; 'I' for Inactive)
REMARK    1  A    between atoms: O_4  and  C_11
REMARK    2  A    between atoms: O_5  and  C_13
REMARK    3  A    between atoms: O_7  and  C_27
REMARK    4  A    between atoms: O_7  and  C_28
REMARK    5  A    between atoms: N_8  and  C_10
REMARK    6  A    between atoms: C_9  and  C_14
REMARK    7  A    between atoms: C_17  and  C_21
REMARK    8  A    between atoms: C_20  and  C_22
REMARK                            x       y       z     vdW  Elec       q    Type
REMARK                         _______ _______ _______ _____ _____    ______ ____
ROOT
ATOM      9  C   UNL     1      14.544   7.457  19.542  0.00  0.00    +0.044 C 
ATOM     10  C   UNL     1      14.342   8.987  19.612  0.00  0.00    +0.112 C 
ATOM     11  C   UNL     1      12.895   9.134  20.081  0.00  0.00    +0.164 C 
ATOM     12  C   UNL     1      13.485   6.847  20.496  0.00  0.00    +0.044 C 
ATOM     13  C   UNL     1      12.756   8.033  21.125  0.00  0.00    +0.145 C 
ENDROOT
BRANCH   9  14
ATOM     14  C   UNL     1      15.967   7.032  19.836  0.00  0.00    -0.042 A 
ATOM     15  C   UNL     1      16.642   7.567  20.934  0.00  0.00    +0.004 A 
ATOM     16  C   UNL     1      16.602   6.103  19.012  0.00  0.00    +0.004 A 
ATOM     18  C   UNL     1      17.952   7.175  21.206  0.00  0.00    +0.012 A 
ATOM     19  C   UNL     1      17.913   5.711  19.285  0.00  0.00    +0.012 A 
ATOM     20  C   UNL     1      18.588   6.246  20.381  0.00  0.00    +0.055 A 
BRANCH  20  22
ATOM      1  F   UNL     1      20.932   6.663  20.156  0.00  0.00    -0.166 F 
ATOM      2  F   UNL     1      20.301   4.589  20.183  0.00  0.00    -0.166 F 
ATOM      3  F   UNL     1      20.248   5.763  22.013  0.00  0.00    -0.166 F 
ATOM     22  C   UNL     1      19.988   5.824  20.674  0.00  0.00    +0.417 C 
ENDBRANCH  20  22
ENDBRANCH   9  14
BRANCH  10   8
ATOM      6  O   UNL     1      15.099  11.720  19.162  0.00  0.00    -0.270 OA
ATOM      8  N   UNL     1      14.562   9.620  18.336  0.00  0.00    -0.305 N 
ATOM     17  C   UNL     1      14.927  10.955  18.217  0.00  0.00    +0.244 C 
ATOM     29  H   UNL     1      14.415   9.052  17.510  0.00  0.00    +0.149 HD
BRANCH  17  21
ATOM     21  C   UNL     1      15.090  11.464  16.831  0.00  0.00    +0.037 A 
ATOM     23  C   UNL     1      14.201  11.067  15.834  0.00  0.00    +0.016 A 
ATOM     24  C   UNL     1      16.134  12.339  16.528  0.00  0.00    +0.016 A 
ATOM     25  C   UNL     1      14.355  11.545  14.532  0.00  0.00    +0.046 A 
ATOM     26  C   UNL     1      16.287  12.817  15.226  0.00  0.00    +0.046 A 
ATOM     27  C   UNL     1      15.398  12.419  14.229  0.00  0.00    +0.120 A 
BRANCH  27   7
ATOM      7  O   UNL     1      15.548  12.885  12.958  0.00  0.00    -0.495 OA
ATOM     28  C   UNL     1      14.499  12.600  12.034  0.00  0.00    +0.277 C 
ENDBRANCH  27   7
ENDBRANCH  17  21
ENDBRANCH  10   8
BRANCH  11   4
ATOM      4  O   UNL     1      12.641  10.407  20.644  0.00  0.00    -0.387 OA
ATOM     30  H   UNL     1      13.385  10.985  20.406  0.00  0.00    +0.210 HD
ENDBRANCH  11   4
BRANCH  13   5
ATOM      5  O   UNL     1      13.421   8.388  22.333  0.00  0.00    -0.389 OA
ATOM     31  H   UNL     1      14.186   8.938  22.095  0.00  0.00    +0.210 HD
ENDBRANCH  13   5
TORSDOF 7
ENDMDL
MODEL 4
REMARK VINA RESULT:      -6.5     27.639     29.387
REMARK  Name = 71693937
REMARK  8 active torsions:
REMARK  status: ('A' for Active; 'I' for Inactive)
REMARK    1  A    between atoms: O_4  and  C_11
REMARK    2  A    between atoms: O_5  and  C_13
REMARK    3  A    between atoms: O_7  and  C_27
REMARK    4  A    between atoms: O_7  and  C_28
REMARK    5  A    between atoms: N_8  and  C_10
REMARK    6  A    between atoms: C_9  and  C_14
REMARK    7  A    between atoms: C_17  and  C_21
REMARK    8  A    between atoms: C_20  and  C_22
REMARK                            x       y       z     vdW  Elec       q    Type
REMARK                         _______ _______ _______ _____ _____    ______ ____
ROOT
ATOM      9  C   UNL     1      -2.967 -10.725  14.723  0.00  0.00    +0.044 C 
ATOM     10  C   UNL     1      -3.531 -11.476  13.496  0.00  0.00    +0.112 C 
ATOM     11  C   UNL     1      -2.283 -12.046  12.822  0.00  0.00    +0.164 C 
ATOM     12  C   UNL     1      -1.589 -11.372  15.017  0.00  0.00    +0.044 C 
ATOM     13  C   UNL     1      -1.432 -12.503  14.001  0.00  0.00    +0.145 C 
ENDROOT
BRANCH   9  14
ATOM     14  C   UNL     1      -3.917 -10.717  15.902  0.00  0.00    -0.042 A 
ATOM     15  C   UNL     1      -5.152 -10.077  15.798  0.00  0.00    +0.004 A 
ATOM     16  C   UNL     1      -3.556 -11.350  17.091  0.00  0.00    +0.004 A 
ATOM     18  C   UNL     1      -6.027 -10.070  16.883  0.00  0.00    +0.012 A 
ATOM     19  C   UNL     1      -4.432 -11.343  18.177  0.00  0.00    +0.012 A 
ATOM     20  C   UNL     1      -5.668 -10.703  18.073  0.00  0.00    +0.055 A 
BRANCH  20  22
ATOM      1  F   UNL     1      -6.702 -11.907  19.862  0.00  0.00    -0.166 F 
ATOM      2  F   UNL     1      -7.887 -10.367  18.900  0.00  0.00    -0.166 F 
ATOM      3  F   UNL     1      -6.236  -9.811  20.202  0.00  0.00    -0.166 F 
ATOM     22  C   UNL     1      -6.605 -10.699  19.233  0.00  0.00    +0.417 C 
ENDBRANCH  20  22
ENDBRANCH   9  14
BRANCH  10   8
ATOM      6  O   UNL     1      -5.613 -12.233  11.669  0.00  0.00    -0.270 OA
ATOM      8  N   UNL     1      -4.265 -10.601  12.617  0.00  0.00    -0.305 N 
ATOM     17  C   UNL     1      -5.260 -11.061  11.764  0.00  0.00    +0.244 C 
ATOM     29  H   UNL     1      -4.009  -9.620  12.626  0.00  0.00    +0.149 HD
BRANCH  17  21
ATOM     21  C   UNL     1      -5.904 -10.036  10.902  0.00  0.00    +0.037 A 
ATOM     23  C   UNL     1      -5.118  -9.159  10.156  0.00  0.00    +0.016 A 
ATOM     24  C   UNL     1      -7.295  -9.952  10.841  0.00  0.00    +0.016 A 
ATOM     25  C   UNL     1      -5.723  -8.196   9.348  0.00  0.00    +0.046 A 
ATOM     26  C   UNL     1      -7.900  -8.988  10.033  0.00  0.00    +0.046 A 
ATOM     27  C   UNL     1      -7.113  -8.111   9.287  0.00  0.00    +0.120 A 
BRANCH  27   7
ATOM      7  O   UNL     1      -7.704  -7.171   8.498  0.00  0.00    -0.495 OA
ATOM     28  C   UNL     1      -9.119  -7.028   8.607  0.00  0.00    +0.277 C 
ENDBRANCH  27   7
ENDBRANCH  17  21
ENDBRANCH  10   8
BRANCH  11   4
ATOM      4  O   UNL     1      -2.586 -13.128  11.961  0.00  0.00    -0.387 OA
ATOM     30  H   UNL     1      -3.028 -13.810  12.494  0.00  0.00    +0.210 HD
ENDBRANCH  11   4
BRANCH  13   5
ATOM      5  O   UNL     1      -1.948 -13.702  14.570  0.00  0.00    -0.389 OA
ATOM     31  H   UNL     1      -2.104 -13.533  15.515  0.00  0.00    +0.210 HD
ENDBRANCH  13   5
TORSDOF 7
ENDMDL
MODEL 5
REMARK VINA RESULT:      -6.4     27.311     29.693
REMARK  Name = 71693937
REMARK  8 active torsions:
REMARK  status: ('A' for Active; 'I' for Inactive)
REMARK    1  A    between atoms: O_4  and  C_11
REMARK    2  A    between atoms: O_5  and  C_13
REMARK    3  A    between atoms: O_7  and  C_27
REMARK    4  A    between atoms: O_7  and  C_28
REMARK    5  A    between atoms: N_8  and  C_10
REMARK    6  A    between atoms: C_9  and  C_14
REMARK    7  A    between atoms: C_17  and  C_21
REMARK    8  A    between atoms: C_20  and  C_22
REMARK                            x       y       z     vdW  Elec       q    Type
REMARK                         _______ _______ _______ _____ _____    ______ ____
ROOT
ATOM      9  C   UNL     1      -7.717 -11.523  17.388  0.00  0.00    +0.044 C 
ATOM     10  C   UNL     1      -8.205 -10.398  18.327  0.00  0.00    +0.112 C 
ATOM     11  C   UNL     1      -9.135 -11.124  19.299  0.00  0.00    +0.164 C 
ATOM     12  C   UNL     1      -7.887 -12.842  18.185  0.00  0.00    +0.044 C 
ATOM     13  C   UNL     1      -8.403 -12.434  19.564  0.00  0.00    +0.145 C 
ENDROOT
BRANCH   9  14
ATOM     14  C   UNL     1      -6.318 -11.289  16.859  0.00  0.00    -0.042 A 
ATOM     15  C   UNL     1      -5.218 -11.460  17.699  0.00  0.00    +0.004 A 
ATOM     16  C   UNL     1      -6.129 -10.904  15.532  0.00  0.00    +0.004 A 
ATOM     18  C   UNL     1      -3.929 -11.246  17.213  0.00  0.00    +0.012 A 
ATOM     19  C   UNL     1      -4.839 -10.690  15.045  0.00  0.00    +0.012 A 
ATOM     20  C   UNL     1      -3.739 -10.861  15.885  0.00  0.00    +0.055 A 
BRANCH  20  22
ATOM      1  F   UNL     1      -2.331 -10.054  14.128  0.00  0.00    -0.166 F 
ATOM      2  F   UNL     1      -1.629 -11.781  15.235  0.00  0.00    -0.166 F 
ATOM      3  F   UNL     1      -1.622  -9.817  16.170  0.00  0.00    -0.166 F 
ATOM     22  C   UNL     1      -2.360 -10.635  15.363  0.00  0.00    +0.417 C 
ENDBRANCH  20  22
ENDBRANCH   9  14
BRANCH  10   8
ATOM      6  O   UNL     1     -10.710 -10.624  16.942  0.00  0.00    -0.270 OA
ATOM      8  N   UNL     1      -8.890  -9.352  17.609  0.00  0.00    -0.305 N 
ATOM     17  C   UNL     1     -10.103  -9.557  16.967  0.00  0.00    +0.244 C 
ATOM     29  H   UNL     1      -8.433  -8.448  17.568  0.00  0.00    +0.149 HD
BRANCH  17  21
ATOM     21  C   UNL     1     -10.666  -8.384  16.248  0.00  0.00    +0.037 A 
ATOM     23  C   UNL     1     -10.737  -7.145  16.884  0.00  0.00    +0.016 A 
ATOM     24  C   UNL     1     -11.125  -8.524  14.938  0.00  0.00    +0.016 A 
ATOM     25  C   UNL     1     -11.267  -6.045  16.210  0.00  0.00    +0.046 A 
ATOM     26  C   UNL     1     -11.654  -7.423  14.264  0.00  0.00    +0.046 A 
ATOM     27  C   UNL     1     -11.726  -6.184  14.901  0.00  0.00    +0.120 A 
BRANCH  27   7
ATOM      7  O   UNL     1     -12.242  -5.110  14.243  0.00  0.00    -0.495 OA
ATOM     28  C   UNL     1     -12.509  -5.268  12.850  0.00  0.00    +0.277 C 
ENDBRANCH  27   7
ENDBRANCH  17  21
ENDBRANCH  10   8
BRANCH  11   4
ATOM      4  O   UNL     1      -9.330 -10.397  20.498  0.00  0.00    -0.387 OA
ATOM     30  H   UNL     1      -8.965  -9.507  20.362  0.00  0.00    +0.210 HD
ENDBRANCH  11   4
BRANCH  13   5
ATOM      5  O   UNL     1      -7.288 -12.232  20.427  0.00  0.00    -0.389 OA
ATOM     31  H   UNL     1      -6.501 -12.578  19.973  0.00  0.00    +0.210 HD
ENDBRANCH  13   5
TORSDOF 7
ENDMDL
MODEL 6
REMARK VINA RESULT:      -6.4     28.461     30.798
REMARK  Name = 71693937
REMARK  8 active torsions:
REMARK  status: ('A' for Active; 'I' for Inactive)
REMARK    1  A    between atoms: O_4  and  C_11
REMARK    2  A    between atoms: O_5  and  C_13
REMARK    3  A    between atoms: O_7  and  C_27
REMARK    4  A    between atoms: O_7  and  C_28
REMARK    5  A    between atoms: N_8  and  C_10
REMARK    6  A    between atoms: C_9  and  C_14
REMARK    7  A    between atoms: C_17  and  C_21
REMARK    8  A    between atoms: C_20  and  C_22
REMARK                            x       y       z     vdW  Elec       q    Type
REMARK                         _______ _______ _______ _____ _____    ______ ____
ROOT
ATOM      9  C   UNL     1      -8.832  -8.630   8.199  0.00  0.00    +0.044 C 
ATOM     10  C   UNL     1      -7.310  -8.585   8.464  0.00  0.00    +0.112 C 
ATOM     11  C   UNL     1      -6.728  -9.456   7.352  0.00  0.00    +0.164 C 
ATOM     12  C   UNL     1      -8.988  -8.988   6.698  0.00  0.00    +0.044 C 
ATOM     13  C   UNL     1      -7.569  -9.075   6.138  0.00  0.00    +0.145 C 
ENDROOT
BRANCH   9  14
ATOM     14  C   UNL     1      -9.545  -7.361   8.615  0.00  0.00    -0.042 A 
ATOM     15  C   UNL     1     -10.739  -7.436   9.331  0.00  0.00    +0.004 A 
ATOM     16  C   UNL     1      -9.005  -6.118   8.285  0.00  0.00    +0.004 A 
ATOM     18  C   UNL     1     -11.396  -6.268   9.715  0.00  0.00    +0.012 A 
ATOM     19  C   UNL     1      -9.662  -4.949   8.670  0.00  0.00    +0.012 A 
ATOM     20  C   UNL     1     -10.857  -5.023   9.385  0.00  0.00    +0.055 A 
BRANCH  20  22
ATOM      1  F   UNL     1     -10.891  -2.633   9.453  0.00  0.00    -0.166 F 
ATOM      2  F   UNL     1     -11.751  -3.676  11.148  0.00  0.00    -0.166 F 
ATOM      3  F   UNL     1     -12.798  -3.657   9.241  0.00  0.00    -0.166 F 
ATOM     22  C   UNL     1     -11.557  -3.773   9.800  0.00  0.00    +0.417 C 
ENDBRANCH  20  22
ENDBRANCH   9  14
BRANCH  10   8
ATOM      6  O   UNL     1      -4.896  -8.073   9.931  0.00  0.00    -0.270 OA
ATOM      8  N   UNL     1      -6.975  -9.088   9.773  0.00  0.00    -0.305 N 
ATOM     17  C   UNL     1      -5.777  -8.785  10.405  0.00  0.00    +0.244 C 
ATOM     29  H   UNL     1      -7.648  -9.703  10.215  0.00  0.00    +0.149 HD
BRANCH  17  21
ATOM     21  C   UNL     1      -5.570  -9.403  11.741  0.00  0.00    +0.037 A 
ATOM     23  C   UNL     1      -6.578  -9.337  12.702  0.00  0.00    +0.016 A 
ATOM     24  C   UNL     1      -4.368 -10.048  12.032  0.00  0.00    +0.016 A 
ATOM     25  C   UNL     1      -6.384  -9.916  13.956  0.00  0.00    +0.046 A 
ATOM     26  C   UNL     1      -4.174 -10.628  13.287  0.00  0.00    +0.046 A 
ATOM     27  C   UNL     1      -5.182 -10.560  14.248  0.00  0.00    +0.120 A 
BRANCH  27   7
ATOM      7  O   UNL     1      -4.993 -11.126  15.472  0.00  0.00    -0.495 OA
ATOM     28  C   UNL     1      -3.734 -10.901  16.104  0.00  0.00    +0.277 C 
ENDBRANCH  27   7
ENDBRANCH  17  21
ENDBRANCH  10   8
BRANCH  11   4
ATOM      4  O   UNL     1      -5.356  -9.192   7.126  0.00  0.00    -0.387 OA
ATOM     30  H   UNL     1      -4.911  -9.203   7.990  0.00  0.00    +0.210 HD
ENDBRANCH  11   4
BRANCH  13   5
ATOM      5  O   UNL     1      -7.195  -7.794   5.640  0.00  0.00    -0.389 OA
ATOM     31  H   UNL     1      -7.437  -7.766   4.699  0.00  0.00    +0.210 HD
ENDBRANCH  13   5
TORSDOF 7
ENDMDL
MODEL 7
REMARK VINA RESULT:      -6.3     15.862     17.778
REMARK  Name = 71693937
REMARK  8 active torsions:
REMARK  status: ('A' for Active; 'I' for Inactive)
REMARK    1  A    between atoms: O_4  and  C_11
REMARK    2  A    between atoms: O_5  and  C_13
REMARK    3  A    between atoms: O_7  and  C_27
REMARK    4  A    between atoms: O_7  and  C_28
REMARK    5  A    between atoms: N_8  and  C_10
REMARK    6  A    between atoms: C_9  and  C_14
REMARK    7  A    between atoms: C_17  and  C_21
REMARK    8  A    between atoms: C_20  and  C_22
REMARK                            x       y       z     vdW  Elec       q    Type
REMARK                         _______ _______ _______ _____ _____    ______ ____
ROOT
ATOM      9  C   UNL     1      10.313   6.188   4.942  0.00  0.00    +0.044 C 
ATOM     10  C   UNL     1      11.431   6.149   6.008  0.00  0.00    +0.112 C 
ATOM     11  C   UNL     1      10.666   5.972   7.320  0.00  0.00    +0.164 C 
ATOM     12  C   UNL     1       9.098   5.463   5.578  0.00  0.00    +0.044 C 
ATOM     13  C   UNL     1       9.569   4.981   6.949  0.00  0.00    +0.145 C 
ENDROOT
BRANCH   9  14
ATOM     14  C   UNL     1      10.747   5.623   3.606  0.00  0.00    -0.042 A 
ATOM     15  C   UNL     1      10.937   4.249   3.459  0.00  0.00    +0.004 A 
ATOM     16  C   UNL     1      10.955   6.477   2.523  0.00  0.00    +0.004 A 
ATOM     18  C   UNL     1      11.336   3.729   2.228  0.00  0.00    +0.012 A 
ATOM     19  C   UNL     1      11.354   5.956   1.292  0.00  0.00    +0.012 A 
ATOM     20  C   UNL     1      11.544   4.582   1.144  0.00  0.00    +0.055 A 
BRANCH  20  22
ATOM      1  F   UNL     1      10.924   3.633  -0.962  0.00  0.00    -0.166 F 
ATOM      2  F   UNL     1      12.769   2.925  -0.070  0.00  0.00    -0.166 F 
ATOM      3  F   UNL     1      12.673   4.924  -0.921  0.00  0.00    -0.166 F 
ATOM     22  C   UNL     1      11.967   4.025  -0.173  0.00  0.00    +0.417 C 
ENDBRANCH  20  22
ENDBRANCH   9  14
BRANCH  10   8
ATOM      6  O   UNL     1      14.055   6.479   7.126  0.00  0.00    -0.270 OA
ATOM      8  N   UNL     1      12.222   7.354   6.006  0.00  0.00    -0.305 N 
ATOM     17  C   UNL     1      13.488   7.418   6.574  0.00  0.00    +0.244 C 
ATOM     29  H   UNL     1      11.805   8.177   5.585  0.00  0.00    +0.149 HD
BRANCH  17  21
ATOM     21  C   UNL     1      14.163   8.739   6.512  0.00  0.00    +0.037 A 
ATOM     23  C   UNL     1      15.512   8.817   6.165  0.00  0.00    +0.016 A 
ATOM     24  C   UNL     1      13.449   9.902   6.800  0.00  0.00    +0.016 A 
ATOM     25  C   UNL     1      16.147  10.058   6.109  0.00  0.00    +0.046 A 
ATOM     26  C   UNL     1      14.084  11.143   6.743  0.00  0.00    +0.046 A 
ATOM     27  C   UNL     1      15.433  11.220   6.398  0.00  0.00    +0.120 A 
BRANCH  27   7
ATOM      7  O   UNL     1      16.052  12.431   6.341  0.00  0.00    -0.495 OA
ATOM     28  C   UNL     1      15.861  13.312   7.448  0.00  0.00    +0.277 C 
ENDBRANCH  27   7
ENDBRANCH  17  21
ENDBRANCH  10   8
BRANCH  11   4
ATOM      4  O   UNL     1      11.487   5.462   8.354  0.00  0.00    -0.387 OA
ATOM     30  H   UNL     1      12.375   5.839   8.235  0.00  0.00    +0.210 HD
ENDBRANCH  11   4
BRANCH  13   5
ATOM      5  O   UNL     1      10.094   3.664   6.814  0.00  0.00    -0.389 OA
ATOM     31  H   UNL     1       9.516   3.181   6.200  0.00  0.00    +0.210 HD
ENDBRANCH  13   5
TORSDOF 7
ENDMDL
MODEL 8
REMARK VINA RESULT:      -6.3     14.307     16.873
REMARK  Name = 71693937
REMARK  8 active torsions:
REMARK  status: ('A' for Active; 'I' for Inactive)
REMARK    1  A    between atoms: O_4  and  C_11
REMARK    2  A    between atoms: O_5  and  C_13
REMARK    3  A    between atoms: O_7  and  C_27
REMARK    4  A    between atoms: O_7  and  C_28
REMARK    5  A    between atoms: N_8  and  C_10
REMARK    6  A    between atoms: C_9  and  C_14
REMARK    7  A    between atoms: C_17  and  C_21
REMARK    8  A    between atoms: C_20  and  C_22
REMARK                            x       y       z     vdW  Elec       q    Type
REMARK                         _______ _______ _______ _____ _____    ______ ____
ROOT
ATOM      9  C   UNL     1       9.726   7.439   4.747  0.00  0.00    +0.044 C 
ATOM     10  C   UNL     1      10.450   8.799   4.855  0.00  0.00    +0.112 C 
ATOM     11  C   UNL     1       9.817   9.629   3.739  0.00  0.00    +0.164 C 
ATOM     12  C   UNL     1       8.380   7.732   4.036  0.00  0.00    +0.044 C 
ATOM     13  C   UNL     1       8.344   9.243   3.814  0.00  0.00    +0.145 C 
ENDROOT
BRANCH   9  14
ATOM     14  C   UNL     1       9.587   6.734   6.080  0.00  0.00    -0.042 A 
ATOM     15  C   UNL     1       9.941   5.390   6.198  0.00  0.00    +0.004 A 
ATOM     16  C   UNL     1       9.107   7.429   7.190  0.00  0.00    +0.004 A 
ATOM     18  C   UNL     1       9.813   4.740   7.425  0.00  0.00    +0.012 A 
ATOM     19  C   UNL     1       8.980   6.779   8.418  0.00  0.00    +0.012 A 
ATOM     20  C   UNL     1       9.333   5.435   8.536  0.00  0.00    +0.055 A 
BRANCH  20  22
ATOM      1  F   UNL     1       8.088   5.109  10.552  0.00  0.00    -0.166 F 
ATOM      2  F   UNL     1      10.247   4.968  10.696  0.00  0.00    -0.166 F 
ATOM      3  F   UNL     1       9.119   3.385   9.721  0.00  0.00    -0.166 F 
ATOM     22  C   UNL     1       9.200   4.742   9.849  0.00  0.00    +0.417 C 
ENDBRANCH  20  22
ENDBRANCH   9  14
BRANCH  10   8
ATOM      6  O   UNL     1      12.421   8.662   6.939  0.00  0.00    -0.270 OA
ATOM      8  N   UNL     1      11.876   8.668   4.685  0.00  0.00    -0.305 N 
ATOM     17  C   UNL     1      12.754   8.610   5.759  0.00  0.00    +0.244 C 
ATOM     29  H   UNL     1      12.224   8.643   3.733  0.00  0.00    +0.149 HD
BRANCH  17  21
ATOM     21  C   UNL     1      14.196   8.501   5.416  0.00  0.00    +0.037 A 
ATOM     23  C   UNL     1      14.599   7.699   4.348  0.00  0.00    +0.016 A 
ATOM     24  C   UNL     1      15.145   9.199   6.162  0.00  0.00    +0.016 A 
ATOM     25  C   UNL     1      15.953   7.595   4.027  0.00  0.00    +0.046 A 
ATOM     26  C   UNL     1      16.499   9.096   5.840  0.00  0.00    +0.046 A 
ATOM     27  C   UNL     1      16.902   8.293   4.774  0.00  0.00    +0.120 A 
BRANCH  27   7
ATOM      7  O   UNL     1      18.223   8.193   4.459  0.00  0.00    -0.495 OA
ATOM     28  C   UNL     1      19.161   8.549   5.474  0.00  0.00    +0.277 C 
ENDBRANCH  27   7
ENDBRANCH  17  21
ENDBRANCH  10   8
BRANCH  11   4
ATOM      4  O   UNL     1       9.991  11.020   3.940  0.00  0.00    -0.387 OA
ATOM     30  H   UNL     1      10.942  11.180   4.056  0.00  0.00    +0.210 HD
ENDBRANCH  11   4
BRANCH  13   5
ATOM      5  O   UNL     1       7.713   9.854   4.935  0.00  0.00    -0.389 OA
ATOM     31  H   UNL     1       6.777   9.984   4.708  0.00  0.00    +0.210 HD
ENDBRANCH  13   5
TORSDOF 7
ENDMDL
MODEL 9
REMARK VINA RESULT:      -6.3     20.263     21.643
REMARK  Name = 71693937
REMARK  8 active torsions:
REMARK  status: ('A' for Active; 'I' for Inactive)
REMARK    1  A    between atoms: O_4  and  C_11
REMARK    2  A    between atoms: O_5  and  C_13
REMARK    3  A    between atoms: O_7  and  C_27
REMARK    4  A    between atoms: O_7  and  C_28
REMARK    5  A    between atoms: N_8  and  C_10
REMARK    6  A    between atoms: C_9  and  C_14
REMARK    7  A    between atoms: C_17  and  C_21
REMARK    8  A    between atoms: C_20  and  C_22
REMARK                            x       y       z     vdW  Elec       q    Type
REMARK                         _______ _______ _______ _____ _____    ______ ____
ROOT
ATOM      9  C   UNL     1       9.871  -6.807  33.691  0.00  0.00    +0.044 C 
ATOM     10  C   UNL     1       8.512  -6.882  32.960  0.00  0.00    +0.112 C 
ATOM     11  C   UNL     1       7.546  -6.211  33.935  0.00  0.00    +0.164 C 
ATOM     12  C   UNL     1       9.746  -5.634  34.697  0.00  0.00    +0.044 C 
ATOM     13  C   UNL     1       8.357  -5.038  34.473  0.00  0.00    +0.145 C 
ENDROOT
BRANCH   9  14
ATOM     14  C   UNL     1      11.048  -6.695  32.745  0.00  0.00    -0.042 A 
ATOM     15  C   UNL     1      11.403  -7.778  31.942  0.00  0.00    +0.004 A 
ATOM     16  C   UNL     1      11.776  -5.506  32.675  0.00  0.00    +0.004 A 
ATOM     18  C   UNL     1      12.487  -7.675  31.070  0.00  0.00    +0.012 A 
ATOM     19  C   UNL     1      12.859  -5.403  31.803  0.00  0.00    +0.012 A 
ATOM     20  C   UNL     1      13.215  -6.486  31.000  0.00  0.00    +0.055 A 
BRANCH  20  22
ATOM      1  F   UNL     1      15.399  -7.222  30.362  0.00  0.00    -0.166 F 
ATOM      2  F   UNL     1      14.933  -5.129  30.037  0.00  0.00    -0.166 F 
ATOM      3  F   UNL     1      14.030  -6.652  28.772  0.00  0.00    -0.166 F 
ATOM     22  C   UNL     1      14.371  -6.374  30.065  0.00  0.00    +0.417 C 
ENDBRANCH  20  22
ENDBRANCH   9  14
BRANCH  10   8
ATOM      6  O   UNL     1       6.709  -7.755  30.903  0.00  0.00    -0.270 OA
ATOM      8  N   UNL     1       8.128  -8.241  32.671  0.00  0.00    -0.305 N 
ATOM     17  C   UNL     1       7.244  -8.568  31.651  0.00  0.00    +0.244 C 
ATOM     29  H   UNL     1       8.516  -8.965  33.267  0.00  0.00    +0.149 HD
BRANCH  17  21
ATOM     21  C   UNL     1       6.930 -10.012  31.499  0.00  0.00    +0.037 A 
ATOM     23  C   UNL     1       6.935 -10.597  30.233  0.00  0.00    +0.016 A 
ATOM     24  C   UNL     1       6.628 -10.782  32.623  0.00  0.00    +0.016 A 
ATOM     25  C   UNL     1       6.638 -11.952  30.090  0.00  0.00    +0.046 A 
ATOM     26  C   UNL     1       6.332 -12.138  32.480  0.00  0.00    +0.046 A 
ATOM     27  C   UNL     1       6.336 -12.722  31.213  0.00  0.00    +0.120 A 
BRANCH  27   7
ATOM      7  O   UNL     1       6.048 -14.045  31.074  0.00  0.00    -0.495 OA
ATOM     28  C   UNL     1       4.952 -14.385  30.225  0.00  0.00    +0.277 C 
ENDBRANCH  27   7
ENDBRANCH  17  21
ENDBRANCH  10   8
BRANCH  11   4
ATOM      4  O   UNL     1       6.364  -5.765  33.297  0.00  0.00    -0.387 OA
ATOM     30  H   UNL     1       5.707  -5.588  33.991  0.00  0.00    +0.210 HD
ENDBRANCH  11   4
BRANCH  13   5
ATOM      5  O   UNL     1       8.457  -3.999  33.504  0.00  0.00    -0.389 OA
ATOM     31  H   UNL     1       9.400  -3.875  33.306  0.00  0.00    +0.210 HD
ENDBRANCH  13   5
TORSDOF 7
ENDMDL
MODEL 10
REMARK VINA RESULT:      -6.1     14.961     18.773
REMARK  Name = 71693937
REMARK  8 active torsions:
REMARK  status: ('A' for Active; 'I' for Inactive)
REMARK    1  A    between atoms: O_4  and  C_11
REMARK    2  A    between atoms: O_5  and  C_13
REMARK    3  A    between atoms: O_7  and  C_27
REMARK    4  A    between atoms: O_7  and  C_28
REMARK    5  A    between atoms: N_8  and  C_10
REMARK    6  A    between atoms: C_9  and  C_14
REMARK    7  A    between atoms: C_17  and  C_21
REMARK    8  A    between atoms: C_20  and  C_22
REMARK                            x       y       z     vdW  Elec       q    Type
REMARK                         _______ _______ _______ _____ _____    ______ ____
ROOT
ATOM      9  C   UNL     1      11.716   6.173   6.659  0.00  0.00    +0.044 C 
ATOM     10  C   UNL     1      10.665   6.215   5.528  0.00  0.00    +0.112 C 
ATOM     11  C   UNL     1       9.448   5.528   6.146  0.00  0.00    +0.164 C 
ATOM     12  C   UNL     1      10.912   6.032   7.978  0.00  0.00    +0.044 C 
ATOM     13  C   UNL     1       9.439   6.060   7.575  0.00  0.00    +0.145 C 
ENDROOT
BRANCH   9  14
ATOM     14  C   UNL     1      12.667   7.351   6.631  0.00  0.00    -0.042 A 
ATOM     15  C   UNL     1      12.187   8.639   6.870  0.00  0.00    +0.004 A 
ATOM     16  C   UNL     1      14.021   7.148   6.368  0.00  0.00    +0.004 A 
ATOM     18  C   UNL     1      13.062   9.724   6.845  0.00  0.00    +0.012 A 
ATOM     19  C   UNL     1      14.896   8.234   6.343  0.00  0.00    +0.012 A 
ATOM     20  C   UNL     1      14.417   9.522   6.581  0.00  0.00    +0.055 A 
BRANCH  20  22
ATOM      1  F   UNL     1      16.668  10.323   6.469  0.00  0.00    -0.166 F 
ATOM      2  F   UNL     1      15.276  11.471   7.670  0.00  0.00    -0.166 F 
ATOM      3  F   UNL     1      15.130  11.517   5.501  0.00  0.00    -0.166 F 
ATOM     22  C   UNL     1      15.354  10.683   6.558  0.00  0.00    +0.417 C 
ENDBRANCH  20  22
ENDBRANCH   9  14
BRANCH  10   8
ATOM      6  O   UNL     1       9.679   6.585   2.856  0.00  0.00    -0.270 OA
ATOM      8  N   UNL     1      11.120   5.537   4.341  0.00  0.00    -0.305 N 
ATOM     17  C   UNL     1      10.580   5.783   3.085  0.00  0.00    +0.244 C 
ATOM     29  H   UNL     1      11.849   4.842   4.460  0.00  0.00    +0.149 HD
BRANCH  17  21
ATOM     21  C   UNL     1      11.142   4.983   1.966  0.00  0.00    +0.037 A 
ATOM     23  C   UNL     1      12.273   4.194   2.173  0.00  0.00    +0.016 A 
ATOM     24  C   UNL     1      10.537   5.022   0.709  0.00  0.00    +0.016 A 
ATOM     25  C   UNL     1      12.801   3.444   1.122  0.00  0.00    +0.046 A 
ATOM     26  C   UNL     1      11.065   4.271  -0.341  0.00  0.00    +0.046 A 
ATOM     27  C   UNL     1      12.197   3.483  -0.135  0.00  0.00    +0.120 A 
BRANCH  27   7
ATOM      7  O   UNL     1      12.712   2.750  -1.160  0.00  0.00    -0.495 OA
ATOM     28  C   UNL     1      11.830   2.426  -2.234  0.00  0.00    +0.277 C 
ENDBRANCH  27   7
ENDBRANCH  17  21
ENDBRANCH  10   8
BRANCH  11   4
ATOM      4  O   UNL     1       8.247   5.854   5.472  0.00  0.00    -0.387 OA
ATOM     30  H   UNL     1       7.648   5.094   5.559  0.00  0.00    +0.210 HD
ENDBRANCH  11   4
BRANCH  13   5
ATOM      5  O   UNL     1       8.981   7.408   7.615  0.00  0.00    -0.389 OA
ATOM     31  H   UNL     1       8.817   7.632   8.546  0.00  0.00    +0.210 HD
ENDBRANCH  13   5
TORSDOF 7
ENDMDL
