MODEL 1
REMARK VINA RESULT:      -7.4      0.000      0.000
REMARK  Name = 45783844
REMARK  8 active torsions:
REMARK  status: ('A' for Active; 'I' for Inactive)
REMARK    1  A    between atoms: O_6  and  C_26
REMARK    2  A    between atoms: O_8  and  C_31
REMARK    3  A    between atoms: O_8  and  C_32
REMARK    4  A    between atoms: C_14  and  C_19
REMARK    5  A    between atoms: C_20  and  C_21
REMARK    6  A    between atoms: C_21  and  C_23
REMARK    7  A    between atoms: C_23  and  C_26
REMARK    8  A    between atoms: C_24  and  C_25
REMARK                            x       y       z     vdW  Elec       q    Type
REMARK                         _______ _______ _______ _____ _____    ______ ____
ROOT
ATOM      5  O   UNL     1       8.043   7.140   6.885  0.00  0.00    -0.276 OA
ATOM      9  N   UNL     1      10.334   7.433   6.571  0.00  0.00    -0.284 N 
ATOM     10  N   UNL     1      13.774   8.847   6.876  0.00  0.00    -0.347 N 
ATOM     11  N   UNL     1      13.152  10.150   5.171  0.00  0.00    -0.240 NA
ATOM     14  C   UNL     1      10.172   7.788   5.120  0.00  0.00    +0.171 C 
ATOM     15  C   UNL     1      10.857   9.149   4.787  0.00  0.00    +0.089 C 
ATOM     16  C   UNL     1      11.717   7.360   7.119  0.00  0.00    +0.163 C 
ATOM     17  C   UNL     1      12.520   8.445   6.523  0.00  0.00    +0.056 A 
ATOM     18  C   UNL     1      12.163   9.258   5.473  0.00  0.00    +0.066 A 
ATOM     20  C   UNL     1       9.198   7.088   7.316  0.00  0.00    +0.217 C 
ATOM     22  C   UNL     1      14.111   9.876   6.034  0.00  0.00    +0.197 A 
ATOM     33  H   UNL     1      14.348   8.461   7.613  0.00  0.00    +0.167 HD
ENDROOT
BRANCH  14  19
ATOM      4  O   UNL     1      10.345   5.367   4.756  0.00  0.00    -0.336 OA
ATOM     12  N   UNL     1      11.036   6.597   3.017  0.00  0.00    -0.190 NA
ATOM     13  N   UNL     1      10.753   4.456   3.773  0.00  0.00    -0.056 NA
ATOM     19  C   UNL     1      10.544   6.603   4.231  0.00  0.00    +0.249 A 
ATOM     24  C   UNL     1      11.147   5.258   2.779  0.00  0.00    +0.202 A 
BRANCH  24  25
ATOM     25  C   UNL     1      11.655   4.755   1.535  0.00  0.00    +0.023 A 
ATOM     27  C   UNL     1      12.552   3.688   1.528  0.00  0.00    +0.015 A 
ATOM     28  C   UNL     1      11.250   5.334   0.332  0.00  0.00    +0.015 A 
ATOM     29  C   UNL     1      13.047   3.200   0.318  0.00  0.00    +0.046 A 
ATOM     30  C   UNL     1      11.744   4.846  -0.877  0.00  0.00    +0.046 A 
ATOM     31  C   UNL     1      12.643   3.779  -0.885  0.00  0.00    +0.130 A 
BRANCH  31   8
ATOM      8  O   UNL     1      13.123   3.304  -2.066  0.00  0.00    -0.406 OA
BRANCH   8  32
ATOM      1  F   UNL     1      12.934   2.114  -3.975  0.00  0.00    -0.133 F 
ATOM      2  F   UNL     1      12.106   1.257  -2.144  0.00  0.00    -0.133 F 
ATOM      3  F   UNL     1      11.118   2.977  -3.119  0.00  0.00    -0.133 F 
ATOM     32  C   UNL     1      12.305   2.411  -2.814  0.00  0.00    +0.575 C 
ENDBRANCH   8  32
ENDBRANCH  31   8
ENDBRANCH  24  25
ENDBRANCH  14  19
BRANCH  20  21
ATOM     21  C   UNL     1       9.435   6.629   8.734  0.00  0.00    +0.107 C 
BRANCH  21  23
ATOM     23  C   UNL     1       9.080   5.161   8.864  0.00  0.00    +0.129 C 
BRANCH  23  26
ATOM      7  O   UNL     1      10.315   4.386  10.790  0.00  0.00    -0.251 OA
ATOM     26  C   UNL     1       9.240   4.686  10.287  0.00  0.00    +0.305 C 
BRANCH  26   6
ATOM      6  O   UNL     1       8.059   4.601  10.946  0.00  0.00    -0.481 OA
ATOM     34  H   UNL     1       8.155   4.809  11.899  0.00  0.00    +0.295 HD
ENDBRANCH  26   6
ENDBRANCH  23  26
ENDBRANCH  21  23
ENDBRANCH  20  21
TORSDOF 8
ENDMDL
MODEL 2
REMARK VINA RESULT:      -7.2      4.813      6.624
REMARK  Name = 45783844
REMARK  8 active torsions:
REMARK  status: ('A' for Active; 'I' for Inactive)
REMARK    1  A    between atoms: O_6  and  C_26
REMARK    2  A    between atoms: O_8  and  C_31
REMARK    3  A    between atoms: O_8  and  C_32
REMARK    4  A    between atoms: C_14  and  C_19
REMARK    5  A    between atoms: C_20  and  C_21
REMARK    6  A    between atoms: C_21  and  C_23
REMARK    7  A    between atoms: C_23  and  C_26
REMARK    8  A    between atoms: C_24  and  C_25
REMARK                            x       y       z     vdW  Elec       q    Type
REMARK                         _______ _______ _______ _____ _____    ______ ____
ROOT
ATOM      5  O   UNL     1      11.043   7.124   8.035  0.00  0.00    -0.276 OA
ATOM      9  N   UNL     1      10.592   6.188   5.949  0.00  0.00    -0.284 N 
ATOM     10  N   UNL     1      10.868   3.989   2.946  0.00  0.00    -0.347 N 
ATOM     11  N   UNL     1      12.238   5.579   2.180  0.00  0.00    -0.240 NA
ATOM     14  C   UNL     1      10.928   7.457   5.216  0.00  0.00    +0.171 C 
ATOM     15  C   UNL     1      11.993   7.207   4.105  0.00  0.00    +0.089 C 
ATOM     16  C   UNL     1      10.110   5.029   5.147  0.00  0.00    +0.163 C 
ATOM     17  C   UNL     1      10.867   4.982   3.881  0.00  0.00    +0.056 A 
ATOM     18  C   UNL     1      11.712   5.945   3.386  0.00  0.00    +0.066 A 
ATOM     20  C   UNL     1      10.648   6.178   7.349  0.00  0.00    +0.217 C 
ATOM     22  C   UNL     1      11.709   4.395   1.941  0.00  0.00    +0.197 A 
ATOM     33  H   UNL     1      10.349   3.123   2.981  0.00  0.00    +0.167 HD
ENDROOT
BRANCH  14  19
ATOM      4  O   UNL     1       8.920   8.751   5.780  0.00  0.00    -0.336 OA
ATOM     12  N   UNL     1       9.154   8.346   3.589  0.00  0.00    -0.190 NA
ATOM     13  N   UNL     1       7.818   9.349   5.154  0.00  0.00    -0.056 NA
ATOM     19  C   UNL     1       9.655   8.184   4.788  0.00  0.00    +0.249 A 
ATOM     24  C   UNL     1       8.028   9.066   3.864  0.00  0.00    +0.202 A 
BRANCH  24  25
ATOM     25  C   UNL     1       7.133   9.490   2.826  0.00  0.00    +0.023 A 
ATOM     27  C   UNL     1       7.535   9.433   1.492  0.00  0.00    +0.015 A 
ATOM     28  C   UNL     1       5.861   9.962   3.152  0.00  0.00    +0.015 A 
ATOM     29  C   UNL     1       6.665   9.848   0.483  0.00  0.00    +0.046 A 
ATOM     30  C   UNL     1       4.992  10.376   2.143  0.00  0.00    +0.046 A 
ATOM     31  C   UNL     1       5.393  10.319   0.809  0.00  0.00    +0.130 A 
BRANCH  31   8
ATOM      8  O   UNL     1       4.543  10.723  -0.174  0.00  0.00    -0.406 OA
BRANCH   8  32
ATOM      1  F   UNL     1       4.012   8.539  -0.384  0.00  0.00    -0.133 F 
ATOM      2  F   UNL     1       2.390   9.963  -0.039  0.00  0.00    -0.133 F 
ATOM      3  F   UNL     1       3.424   9.898  -1.992  0.00  0.00    -0.133 F 
ATOM     32  C   UNL     1       3.580   9.792  -0.655  0.00  0.00    +0.575 C 
ENDBRANCH   8  32
ENDBRANCH  31   8
ENDBRANCH  24  25
ENDBRANCH  14  19
BRANCH  20  21
ATOM     21  C   UNL     1      10.189   4.914   8.033  0.00  0.00    +0.107 C 
BRANCH  21  23
ATOM     23  C   UNL     1       8.977   5.208   8.895  0.00  0.00    +0.129 C 
BRANCH  23  26
ATOM      7  O   UNL     1      10.285   4.454  10.782  0.00  0.00    -0.251 OA
ATOM     26  C   UNL     1       9.191   4.742  10.314  0.00  0.00    +0.305 C 
BRANCH  26   6
ATOM      6  O   UNL     1       8.033   4.651  11.014  0.00  0.00    -0.481 OA
ATOM     34  H   UNL     1       7.250   4.621  10.424  0.00  0.00    +0.295 HD
ENDBRANCH  26   6
ENDBRANCH  23  26
ENDBRANCH  21  23
ENDBRANCH  20  21
TORSDOF 8
ENDMDL
MODEL 3
REMARK VINA RESULT:      -7.0     23.050     25.272
REMARK  Name = 45783844
REMARK  8 active torsions:
REMARK  status: ('A' for Active; 'I' for Inactive)
REMARK    1  A    between atoms: O_6  and  C_26
REMARK    2  A    between atoms: O_8  and  C_31
REMARK    3  A    between atoms: O_8  and  C_32
REMARK    4  A    between atoms: C_14  and  C_19
REMARK    5  A    between atoms: C_20  and  C_21
REMARK    6  A    between atoms: C_21  and  C_23
REMARK    7  A    between atoms: C_23  and  C_26
REMARK    8  A    between atoms: C_24  and  C_25
REMARK                            x       y       z     vdW  Elec       q    Type
REMARK                         _______ _______ _______ _____ _____    ______ ____
ROOT
ATOM      5  O   UNL     1      -3.249 -10.202  16.569  0.00  0.00    -0.276 OA
ATOM      9  N   UNL     1      -3.502 -11.994  15.099  0.00  0.00    -0.284 N 
ATOM     10  N   UNL     1      -3.607 -15.491  13.801  0.00  0.00    -0.347 N 
ATOM     11  N   UNL     1      -1.438 -15.166  13.376  0.00  0.00    -0.240 NA
ATOM     14  C   UNL     1      -2.328 -11.575  14.258  0.00  0.00    +0.171 C 
ATOM     15  C   UNL     1      -1.305 -12.739  14.090  0.00  0.00    +0.089 C 
ATOM     16  C   UNL     1      -4.279 -13.187  14.663  0.00  0.00    +0.163 C 
ATOM     17  C   UNL     1      -3.339 -14.197  14.137  0.00  0.00    +0.056 A 
ATOM     18  C   UNL     1      -2.004 -14.022  13.864  0.00  0.00    +0.066 A 
ATOM     20  C   UNL     1      -3.875 -11.195  16.188  0.00  0.00    +0.217 C 
ATOM     22  C   UNL     1      -2.431 -16.033  13.348  0.00  0.00    +0.197 A 
ATOM     33  H   UNL     1      -4.499 -15.962  13.867  0.00  0.00    +0.167 HD
ENDROOT
BRANCH  14  19
ATOM      4  O   UNL     1      -1.834 -10.492  12.111  0.00  0.00    -0.336 OA
ATOM     12  N   UNL     1      -4.021 -10.633  12.575  0.00  0.00    -0.190 NA
ATOM     13  N   UNL     1      -2.500  -9.904  11.028  0.00  0.00    -0.056 NA
ATOM     19  C   UNL     1      -2.802 -10.894  12.975  0.00  0.00    +0.249 A 
ATOM     24  C   UNL     1      -3.785 -10.025  11.376  0.00  0.00    +0.202 A 
BRANCH  24  25
ATOM     25  C   UNL     1      -4.857  -9.553  10.548  0.00  0.00    +0.023 A 
ATOM     27  C   UNL     1      -6.067  -9.167  11.124  0.00  0.00    +0.015 A 
ATOM     28  C   UNL     1      -4.690  -9.481   9.165  0.00  0.00    +0.015 A 
ATOM     29  C   UNL     1      -7.110  -8.709  10.318  0.00  0.00    +0.046 A 
ATOM     30  C   UNL     1      -5.732  -9.024   8.359  0.00  0.00    +0.046 A 
ATOM     31  C   UNL     1      -6.942  -8.638   8.935  0.00  0.00    +0.130 A 
BRANCH  31   8
ATOM      8  O   UNL     1      -7.957  -8.191   8.147  0.00  0.00    -0.406 OA
BRANCH   8  32
ATOM      1  F   UNL     1      -8.679  -6.458   6.893  0.00  0.00    -0.133 F 
ATOM      2  F   UNL     1      -9.178  -6.465   9.020  0.00  0.00    -0.133 F 
ATOM      3  F   UNL     1      -7.104  -6.078   8.360  0.00  0.00    -0.133 F 
ATOM     32  C   UNL     1      -8.225  -6.793   8.123  0.00  0.00    +0.575 C 
ENDBRANCH   8  32
ENDBRANCH  31   8
ENDBRANCH  24  25
ENDBRANCH  14  19
BRANCH  20  21
ATOM     21  C   UNL     1      -5.128 -11.601  16.924  0.00  0.00    +0.107 C 
BRANCH  21  23
ATOM     23  C   UNL     1      -4.952 -11.359  18.409  0.00  0.00    +0.129 C 
BRANCH  23  26
ATOM      7  O   UNL     1      -3.291 -12.228  19.934  0.00  0.00    -0.251 OA
ATOM     26  C   UNL     1      -4.101 -12.434  19.040  0.00  0.00    +0.305 C 
BRANCH  26   6
ATOM      6  O   UNL     1      -4.311 -13.656  18.491  0.00  0.00    -0.481 OA
ATOM     34  H   UNL     1      -5.143 -14.064  18.814  0.00  0.00    +0.295 HD
ENDBRANCH  26   6
ENDBRANCH  23  26
ENDBRANCH  21  23
ENDBRANCH  20  21
TORSDOF 8
ENDMDL
MODEL 4
REMARK VINA RESULT:      -7.0      4.949      7.806
REMARK  Name = 45783844
REMARK  8 active torsions:
REMARK  status: ('A' for Active; 'I' for Inactive)
REMARK    1  A    between atoms: O_6  and  C_26
REMARK    2  A    between atoms: O_8  and  C_31
REMARK    3  A    between atoms: O_8  and  C_32
REMARK    4  A    between atoms: C_14  and  C_19
REMARK    5  A    between atoms: C_20  and  C_21
REMARK    6  A    between atoms: C_21  and  C_23
REMARK    7  A    between atoms: C_23  and  C_26
REMARK    8  A    between atoms: C_24  and  C_25
REMARK                            x       y       z     vdW  Elec       q    Type
REMARK                         _______ _______ _______ _____ _____    ______ ____
ROOT
ATOM      5  O   UNL     1       9.177   7.653   3.468  0.00  0.00    -0.276 OA
ATOM      9  N   UNL     1       9.972   6.499   5.331  0.00  0.00    -0.284 N 
ATOM     10  N   UNL     1      10.167   4.024   8.116  0.00  0.00    -0.347 N 
ATOM     11  N   UNL     1       9.056   5.574   9.279  0.00  0.00    -0.240 NA
ATOM     14  C   UNL     1       9.852   7.699   6.227  0.00  0.00    +0.171 C 
ATOM     15  C   UNL     1       9.010   7.376   7.500  0.00  0.00    +0.089 C 
ATOM     16  C   UNL     1      10.539   5.251   5.912  0.00  0.00    +0.163 C 
ATOM     17  C   UNL     1      10.039   5.103   7.293  0.00  0.00    +0.056 A 
ATOM     18  C   UNL     1       9.358   6.040   8.031  0.00  0.00    +0.066 A 
ATOM     20  C   UNL     1       9.647   6.631   3.974  0.00  0.00    +0.217 C 
ATOM     22  C   UNL     1       9.558   4.355   9.300  0.00  0.00    +0.197 A 
ATOM     33  H   UNL     1      10.623   3.148   7.900  0.00  0.00    +0.167 HD
ENDROOT
BRANCH  14  19
ATOM      4  O   UNL     1      11.297   9.259   7.454  0.00  0.00    -0.336 OA
ATOM     12  N   UNL     1      12.351   8.127   5.834  0.00  0.00    -0.190 NA
ATOM     13  N   UNL     1      12.628   9.696   7.476  0.00  0.00    -0.056 NA
ATOM     19  C   UNL     1      11.220   8.337   6.460  0.00  0.00    +0.249 A 
ATOM     24  C   UNL     1      13.185   8.984   6.492  0.00  0.00    +0.202 A 
BRANCH  24  25
ATOM     25  C   UNL     1      14.572   9.101   6.143  0.00  0.00    +0.023 A 
ATOM     27  C   UNL     1      15.196   8.091   5.413  0.00  0.00    +0.015 A 
ATOM     28  C   UNL     1      15.296  10.227   6.536  0.00  0.00    +0.015 A 
ATOM     29  C   UNL     1      16.545   8.205   5.076  0.00  0.00    +0.046 A 
ATOM     30  C   UNL     1      16.644  10.341   6.199  0.00  0.00    +0.046 A 
ATOM     31  C   UNL     1      17.269   9.331   5.470  0.00  0.00    +0.130 A 
BRANCH  31   8
ATOM      8  O   UNL     1      18.585   9.444   5.140  0.00  0.00    -0.406 OA
BRANCH   8  32
ATOM      1  F   UNL     1      20.692   9.240   5.922  0.00  0.00    -0.133 F 
ATOM      2  F   UNL     1      19.088   8.240   7.018  0.00  0.00    -0.133 F 
ATOM      3  F   UNL     1      19.744   7.474   5.052  0.00  0.00    -0.133 F 
ATOM     32  C   UNL     1      19.517   8.584   5.785  0.00  0.00    +0.575 C 
ENDBRANCH   8  32
ENDBRANCH  31   8
ENDBRANCH  24  25
ENDBRANCH  14  19
BRANCH  20  21
ATOM     21  C   UNL     1       9.898   5.426   3.100  0.00  0.00    +0.107 C 
BRANCH  21  23
ATOM     23  C   UNL     1      10.916   5.770   2.032  0.00  0.00    +0.129 C 
BRANCH  23  26
ATOM      7  O   UNL     1      12.882   4.366   1.985  0.00  0.00    -0.251 OA
ATOM     26  C   UNL     1      12.304   5.343   2.443  0.00  0.00    +0.305 C 
BRANCH  26   6
ATOM      6  O   UNL     1      12.837   6.146   3.396  0.00  0.00    -0.481 OA
ATOM     34  H   UNL     1      12.588   5.857   4.300  0.00  0.00    +0.295 HD
ENDBRANCH  26   6
ENDBRANCH  23  26
ENDBRANCH  21  23
ENDBRANCH  20  21
TORSDOF 8
ENDMDL
MODEL 5
REMARK VINA RESULT:      -6.7     35.446     37.660
REMARK  Name = 45783844
REMARK  8 active torsions:
REMARK  status: ('A' for Active; 'I' for Inactive)
REMARK    1  A    between atoms: O_6  and  C_26
REMARK    2  A    between atoms: O_8  and  C_31
REMARK    3  A    between atoms: O_8  and  C_32
REMARK    4  A    between atoms: C_14  and  C_19
REMARK    5  A    between atoms: C_20  and  C_21
REMARK    6  A    between atoms: C_21  and  C_23
REMARK    7  A    between atoms: C_23  and  C_26
REMARK    8  A    between atoms: C_24  and  C_25
REMARK                            x       y       z     vdW  Elec       q    Type
REMARK                         _______ _______ _______ _____ _____    ______ ____
ROOT
ATOM      5  O   UNL     1     -11.104  10.073  35.478  0.00  0.00    -0.276 OA
ATOM      9  N   UNL     1     -11.477   9.572  33.232  0.00  0.00    -0.284 N 
ATOM     10  N   UNL     1     -11.663   9.961  29.526  0.00  0.00    -0.347 N 
ATOM     11  N   UNL     1     -13.730  10.708  29.928  0.00  0.00    -0.240 NA
ATOM     14  C   UNL     1     -12.960   9.430  33.426  0.00  0.00    +0.171 C 
ATOM     15  C   UNL     1     -13.752  10.334  32.433  0.00  0.00    +0.089 C 
ATOM     16  C   UNL     1     -10.924   9.304  31.876  0.00  0.00    +0.163 C 
ATOM     17  C   UNL     1     -11.862   9.836  30.869  0.00  0.00    +0.056 A 
ATOM     18  C   UNL     1     -13.137  10.298  31.088  0.00  0.00    +0.066 A 
ATOM     20  C   UNL     1     -10.670   9.847  34.345  0.00  0.00    +0.217 C 
ATOM     22  C   UNL     1     -12.816  10.491  29.003  0.00  0.00    +0.197 A 
ATOM     33  H   UNL     1     -10.830   9.710  29.011  0.00  0.00    +0.167 HD
ENDROOT
BRANCH  14  19
ATOM      4  O   UNL     1     -13.480   7.400  34.704  0.00  0.00    -0.336 OA
ATOM     12  N   UNL     1     -13.605   7.132  32.484  0.00  0.00    -0.190 NA
ATOM     13  N   UNL     1     -13.846   6.064  34.494  0.00  0.00    -0.056 NA
ATOM     19  C   UNL     1     -13.359   7.956  33.471  0.00  0.00    +0.249 A 
ATOM     24  C   UNL     1     -13.899   5.984  33.160  0.00  0.00    +0.202 A 
BRANCH  24  25
ATOM     25  C   UNL     1     -14.245   4.773  32.473  0.00  0.00    +0.023 A 
ATOM     27  C   UNL     1     -13.241   3.924  32.007  0.00  0.00    +0.015 A 
ATOM     28  C   UNL     1     -15.585   4.445  32.270  0.00  0.00    +0.015 A 
ATOM     29  C   UNL     1     -13.578   2.748  31.336  0.00  0.00    +0.046 A 
ATOM     30  C   UNL     1     -15.922   3.269  31.600  0.00  0.00    +0.046 A 
ATOM     31  C   UNL     1     -14.919   2.420  31.133  0.00  0.00    +0.130 A 
BRANCH  31   8
ATOM      8  O   UNL     1     -15.249   1.273  30.481  0.00  0.00    -0.406 OA
BRANCH   8  32
ATOM      1  F   UNL     1     -13.850  -0.486  30.697  0.00  0.00    -0.133 F 
ATOM      2  F   UNL     1     -14.914   0.205  32.476  0.00  0.00    -0.133 F 
ATOM      3  F   UNL     1     -15.998  -0.855  30.867  0.00  0.00    -0.133 F 
ATOM     32  C   UNL     1     -15.018   0.033  31.141  0.00  0.00    +0.575 C 
ENDBRANCH   8  32
ENDBRANCH  31   8
ENDBRANCH  24  25
ENDBRANCH  14  19
BRANCH  20  21
ATOM     21  C   UNL     1      -9.180   9.863  34.111  0.00  0.00    +0.107 C 
BRANCH  21  23
ATOM     23  C   UNL     1      -8.656  11.280  34.230  0.00  0.00    +0.129 C 
BRANCH  23  26
ATOM      7  O   UNL     1      -9.429  12.528  32.311  0.00  0.00    -0.251 OA
ATOM     26  C   UNL     1      -8.523  11.927  32.873  0.00  0.00    +0.305 C 
BRANCH  26   6
ATOM      6  O   UNL     1      -7.294  11.752  32.329  0.00  0.00    -0.481 OA
ATOM     34  H   UNL     1      -6.683  12.483  32.561  0.00  0.00    +0.295 HD
ENDBRANCH  26   6
ENDBRANCH  23  26
ENDBRANCH  21  23
ENDBRANCH  20  21
TORSDOF 8
ENDMDL
MODEL 6
REMARK VINA RESULT:      -6.7     27.621     32.087
REMARK  Name = 45783844
REMARK  8 active torsions:
REMARK  status: ('A' for Active; 'I' for Inactive)
REMARK    1  A    between atoms: O_6  and  C_26
REMARK    2  A    between atoms: O_8  and  C_31
REMARK    3  A    between atoms: O_8  and  C_32
REMARK    4  A    between atoms: C_14  and  C_19
REMARK    5  A    between atoms: C_20  and  C_21
REMARK    6  A    between atoms: C_21  and  C_23
REMARK    7  A    between atoms: C_23  and  C_26
REMARK    8  A    between atoms: C_24  and  C_25
REMARK                            x       y       z     vdW  Elec       q    Type
REMARK                         _______ _______ _______ _____ _____    ______ ____
ROOT
ATOM      5  O   UNL     1     -11.924  10.908  18.783  0.00  0.00    -0.276 OA
ATOM      9  N   UNL     1     -12.109   9.114  20.259  0.00  0.00    -0.284 N 
ATOM     10  N   UNL     1     -12.619   5.643  21.530  0.00  0.00    -0.347 N 
ATOM     11  N   UNL     1     -14.773   6.230  21.629  0.00  0.00    -0.240 NA
ATOM     14  C   UNL     1     -13.336   9.679  20.919  0.00  0.00    +0.171 C 
ATOM     15  C   UNL     1     -14.505   8.648  20.923  0.00  0.00    +0.089 C 
ATOM     16  C   UNL     1     -11.555   7.840  20.796  0.00  0.00    +0.163 C 
ATOM     17  C   UNL     1     -12.677   6.956  21.168  0.00  0.00    +0.056 A 
ATOM     18  C   UNL     1     -14.007   7.292  21.240  0.00  0.00    +0.066 A 
ATOM     20  C   UNL     1     -11.485   9.851  19.244  0.00  0.00    +0.217 C 
ATOM     22  C   UNL     1     -13.907   5.250  21.797  0.00  0.00    +0.197 A 
ATOM     33  H   UNL     1     -11.791   5.067  21.592  0.00  0.00    +0.167 HD
ENDROOT
BRANCH  14  19
ATOM      4  O   UNL     1     -12.804  11.658  22.271  0.00  0.00    -0.336 OA
ATOM     12  N   UNL     1     -12.816   9.742  23.432  0.00  0.00    -0.190 NA
ATOM     13  N   UNL     1     -12.490  12.001  23.593  0.00  0.00    -0.056 NA
ATOM     19  C   UNL     1     -12.980  10.311  22.264  0.00  0.00    +0.249 A 
ATOM     24  C   UNL     1     -12.516  10.818  24.215  0.00  0.00    +0.202 A 
BRANCH  24  25
ATOM     25  C   UNL     1     -12.250  10.677  25.618  0.00  0.00    +0.023 A 
ATOM     27  C   UNL     1     -10.951  10.434  26.061  0.00  0.00    +0.015 A 
ATOM     28  C   UNL     1     -13.293  10.782  26.538  0.00  0.00    +0.015 A 
ATOM     29  C   UNL     1     -10.693  10.295  27.425  0.00  0.00    +0.046 A 
ATOM     30  C   UNL     1     -13.036  10.643  27.902  0.00  0.00    +0.046 A 
ATOM     31  C   UNL     1     -11.736  10.400  28.346  0.00  0.00    +0.130 A 
BRANCH  31   8
ATOM      8  O   UNL     1     -11.487  10.266  29.677  0.00  0.00    -0.406 OA
BRANCH   8  32
ATOM      1  F   UNL     1     -12.481  11.783  31.020  0.00  0.00    -0.133 F 
ATOM      2  F   UNL     1     -10.405  11.245  31.438  0.00  0.00    -0.133 F 
ATOM      3  F   UNL     1     -10.906  12.480  29.674  0.00  0.00    -0.133 F 
ATOM     32  C   UNL     1     -11.301  11.447  30.449  0.00  0.00    +0.575 C 
ENDBRANCH   8  32
ENDBRANCH  31   8
ENDBRANCH  24  25
ENDBRANCH  14  19
BRANCH  20  21
ATOM     21  C   UNL     1     -10.194   9.291  18.700  0.00  0.00    +0.107 C 
BRANCH  21  23
ATOM     23  C   UNL     1     -10.081   9.604  17.222  0.00  0.00    +0.129 C 
BRANCH  23  26
ATOM      7  O   UNL     1     -10.987   8.528  15.257  0.00  0.00    -0.251 OA
ATOM     26  C   UNL     1     -10.511   8.428  16.380  0.00  0.00    +0.305 C 
BRANCH  26   6
ATOM      6  O   UNL     1     -10.337   7.242  17.013  0.00  0.00    -0.481 OA
ATOM     34  H   UNL     1      -9.630   6.705  16.595  0.00  0.00    +0.295 HD
ENDBRANCH  26   6
ENDBRANCH  23  26
ENDBRANCH  21  23
ENDBRANCH  20  21
TORSDOF 8
ENDMDL
MODEL 7
REMARK VINA RESULT:      -6.7     23.607     25.190
REMARK  Name = 45783844
REMARK  8 active torsions:
REMARK  status: ('A' for Active; 'I' for Inactive)
REMARK    1  A    between atoms: O_6  and  C_26
REMARK    2  A    between atoms: O_8  and  C_31
REMARK    3  A    between atoms: O_8  and  C_32
REMARK    4  A    between atoms: C_14  and  C_19
REMARK    5  A    between atoms: C_20  and  C_21
REMARK    6  A    between atoms: C_21  and  C_23
REMARK    7  A    between atoms: C_23  and  C_26
REMARK    8  A    between atoms: C_24  and  C_25
REMARK                            x       y       z     vdW  Elec       q    Type
REMARK                         _______ _______ _______ _____ _____    ______ ____
ROOT
ATOM      5  O   UNL     1      -4.951  -9.654  16.881  0.00  0.00    -0.276 OA
ATOM      9  N   UNL     1      -4.395 -11.467  15.526  0.00  0.00    -0.284 N 
ATOM     10  N   UNL     1      -2.814 -14.646  14.377  0.00  0.00    -0.347 N 
ATOM     11  N   UNL     1      -1.185 -13.311  13.633  0.00  0.00    -0.240 NA
ATOM     14  C   UNL     1      -3.704 -10.600  14.510  0.00  0.00    +0.171 C 
ATOM     15  C   UNL     1      -2.251 -11.093  14.237  0.00  0.00    +0.089 C 
ATOM     16  C   UNL     1      -4.484 -12.927  15.248  0.00  0.00    +0.163 C 
ATOM     17  C   UNL     1      -3.220 -13.369  14.627  0.00  0.00    +0.056 A 
ATOM     18  C   UNL     1      -2.205 -12.570  14.158  0.00  0.00    +0.066 A 
ATOM     20  C   UNL     1      -5.010 -10.860  16.629  0.00  0.00    +0.217 C 
ATOM     22  C   UNL     1      -1.583 -14.559  13.779  0.00  0.00    +0.197 A 
ATOM     33  H   UNL     1      -3.321 -15.495  14.588  0.00  0.00    +0.167 HD
ENDROOT
BRANCH  14  19
ATOM      4  O   UNL     1      -5.918 -10.201  13.526  0.00  0.00    -0.336 OA
ATOM     12  N   UNL     1      -4.270 -10.367  12.018  0.00  0.00    -0.190 NA
ATOM     13  N   UNL     1      -6.520 -10.035  12.272  0.00  0.00    -0.056 NA
ATOM     19  C   UNL     1      -4.594 -10.391  13.287  0.00  0.00    +0.249 A 
ATOM     24  C   UNL     1      -5.484 -10.146  11.435  0.00  0.00    +0.202 A 
BRANCH  24  25
ATOM     25  C   UNL     1      -5.627 -10.039  10.011  0.00  0.00    +0.023 A 
ATOM     27  C   UNL     1      -4.585 -10.436   9.174  0.00  0.00    +0.015 A 
ATOM     28  C   UNL     1      -6.808  -9.537   9.466  0.00  0.00    +0.015 A 
ATOM     29  C   UNL     1      -4.724 -10.330   7.789  0.00  0.00    +0.046 A 
ATOM     30  C   UNL     1      -6.947  -9.431   8.083  0.00  0.00    +0.046 A 
ATOM     31  C   UNL     1      -5.906  -9.827   7.244  0.00  0.00    +0.130 A 
BRANCH  31   8
ATOM      8  O   UNL     1      -6.043  -9.724   5.894  0.00  0.00    -0.406 OA
BRANCH   8  32
ATOM      1  F   UNL     1      -6.785 -10.667   3.982  0.00  0.00    -0.133 F 
ATOM      2  F   UNL     1      -4.888 -11.372   4.807  0.00  0.00    -0.133 F 
ATOM      3  F   UNL     1      -6.797 -11.882   5.798  0.00  0.00    -0.133 F 
ATOM     32  C   UNL     1      -6.120 -10.923   5.132  0.00  0.00    +0.575 C 
ENDBRANCH   8  32
ENDBRANCH  31   8
ENDBRANCH  24  25
ENDBRANCH  14  19
BRANCH  20  21
ATOM     21  C   UNL     1      -5.786 -11.767  17.552  0.00  0.00    +0.107 C 
BRANCH  21  23
ATOM     23  C   UNL     1      -5.280 -11.611  18.971  0.00  0.00    +0.129 C 
BRANCH  23  26
ATOM      7  O   UNL     1      -3.148 -12.196  19.947  0.00  0.00    -0.251 OA
ATOM     26  C   UNL     1      -4.089 -12.502  19.226  0.00  0.00    +0.305 C 
BRANCH  26   6
ATOM      6  O   UNL     1      -4.159 -13.675  18.549  0.00  0.00    -0.481 OA
ATOM     34  H   UNL     1      -4.796 -13.630  17.805  0.00  0.00    +0.295 HD
ENDBRANCH  26   6
ENDBRANCH  23  26
ENDBRANCH  21  23
ENDBRANCH  20  21
TORSDOF 8
ENDMDL
MODEL 8
REMARK VINA RESULT:      -6.7     31.965     35.448
REMARK  Name = 45783844
REMARK  8 active torsions:
REMARK  status: ('A' for Active; 'I' for Inactive)
REMARK    1  A    between atoms: O_6  and  C_26
REMARK    2  A    between atoms: O_8  and  C_31
REMARK    3  A    between atoms: O_8  and  C_32
REMARK    4  A    between atoms: C_14  and  C_19
REMARK    5  A    between atoms: C_20  and  C_21
REMARK    6  A    between atoms: C_21  and  C_23
REMARK    7  A    between atoms: C_23  and  C_26
REMARK    8  A    between atoms: C_24  and  C_25
REMARK                            x       y       z     vdW  Elec       q    Type
REMARK                         _______ _______ _______ _____ _____    ______ ____
ROOT
ATOM      5  O   UNL     1      -1.715  15.031  34.447  0.00  0.00    -0.276 OA
ATOM      9  N   UNL     1      -3.374  13.734  33.447  0.00  0.00    -0.284 N 
ATOM     10  N   UNL     1      -6.156  12.722  31.177  0.00  0.00    -0.347 N 
ATOM     11  N   UNL     1      -7.473  13.567  32.771  0.00  0.00    -0.240 NA
ATOM     14  C   UNL     1      -4.198  13.676  34.703  0.00  0.00    +0.171 C 
ATOM     15  C   UNL     1      -5.662  14.148  34.444  0.00  0.00    +0.089 C 
ATOM     16  C   UNL     1      -3.862  12.982  32.259  0.00  0.00    +0.163 C 
ATOM     17  C   UNL     1      -5.332  13.104  32.193  0.00  0.00    +0.056 A 
ATOM     18  C   UNL     1      -6.164  13.616  33.159  0.00  0.00    +0.066 A 
ATOM     20  C   UNL     1      -2.142  14.401  33.476  0.00  0.00    +0.217 C 
ATOM     22  C   UNL     1      -7.436  13.021  31.572  0.00  0.00    +0.197 A 
ATOM     33  H   UNL     1      -5.883  12.297  30.301  0.00  0.00    +0.167 HD
ENDROOT
BRANCH  14  19
ATOM      4  O   UNL     1      -5.169  11.719  35.823  0.00  0.00    -0.336 OA
ATOM     12  N   UNL     1      -2.937  11.648  35.642  0.00  0.00    -0.190 NA
ATOM     13  N   UNL     1      -4.768  10.513  36.415  0.00  0.00    -0.056 NA
ATOM     19  C   UNL     1      -4.031  12.324  35.394  0.00  0.00    +0.249 A 
ATOM     24  C   UNL     1      -3.440  10.545  36.269  0.00  0.00    +0.202 A 
BRANCH  24  25
ATOM     25  C   UNL     1      -2.587   9.490  36.737  0.00  0.00    +0.023 A 
ATOM     27  C   UNL     1      -1.202   9.652  36.718  0.00  0.00    +0.015 A 
ATOM     28  C   UNL     1      -3.144   8.302  37.209  0.00  0.00    +0.015 A 
ATOM     29  C   UNL     1      -0.373   8.625  37.170  0.00  0.00    +0.046 A 
ATOM     30  C   UNL     1      -2.315   7.275  37.661  0.00  0.00    +0.046 A 
ATOM     31  C   UNL     1      -0.930   7.437  37.642  0.00  0.00    +0.130 A 
BRANCH  31   8
ATOM      8  O   UNL     1      -0.123   6.435  38.086  0.00  0.00    -0.406 OA
BRANCH   8  32
ATOM      1  F   UNL     1       0.947   5.513  39.847  0.00  0.00    -0.133 F 
ATOM      2  F   UNL     1      -0.522   7.082  40.243  0.00  0.00    -0.133 F 
ATOM      3  F   UNL     1      -1.179   5.074  39.592  0.00  0.00    -0.133 F 
ATOM     32  C   UNL     1      -0.237   6.030  39.445  0.00  0.00    +0.575 C 
ENDBRANCH   8  32
ENDBRANCH  31   8
ENDBRANCH  24  25
ENDBRANCH  14  19
BRANCH  20  21
ATOM     21  C   UNL     1      -1.306  14.328  32.222  0.00  0.00    +0.107 C 
BRANCH  21  23
ATOM     23  C   UNL     1       0.093  13.856  32.564  0.00  0.00    +0.129 C 
BRANCH  23  26
ATOM      7  O   UNL     1       1.642  14.752  30.940  0.00  0.00    -0.251 OA
ATOM     26  C   UNL     1       0.968  13.810  31.336  0.00  0.00    +0.305 C 
BRANCH  26   6
ATOM      6  O   UNL     1       0.912  12.615  30.699  0.00  0.00    -0.481 OA
ATOM     34  H   UNL     1       0.915  11.863  31.329  0.00  0.00    +0.295 HD
ENDBRANCH  26   6
ENDBRANCH  23  26
ENDBRANCH  21  23
ENDBRANCH  20  21
TORSDOF 8
ENDMDL
MODEL 9
REMARK VINA RESULT:      -6.6     24.244     27.509
REMARK  Name = 45783844
REMARK  8 active torsions:
REMARK  status: ('A' for Active; 'I' for Inactive)
REMARK    1  A    between atoms: O_6  and  C_26
REMARK    2  A    between atoms: O_8  and  C_31
REMARK    3  A    between atoms: O_8  and  C_32
REMARK    4  A    between atoms: C_14  and  C_19
REMARK    5  A    between atoms: C_20  and  C_21
REMARK    6  A    between atoms: C_21  and  C_23
REMARK    7  A    between atoms: C_23  and  C_26
REMARK    8  A    between atoms: C_24  and  C_25
REMARK                            x       y       z     vdW  Elec       q    Type
REMARK                         _______ _______ _______ _____ _____    ______ ____
ROOT
ATOM      5  O   UNL     1      -1.183 -14.681  13.079  0.00  0.00    -0.276 OA
ATOM      9  N   UNL     1      -2.763 -13.052  12.545  0.00  0.00    -0.284 N 
ATOM     10  N   UNL     1      -4.957 -10.807  10.528  0.00  0.00    -0.347 N 
ATOM     11  N   UNL     1      -3.216  -9.408  10.595  0.00  0.00    -0.240 NA
ATOM     14  C   UNL     1      -1.933 -11.941  13.126  0.00  0.00    +0.171 C 
ATOM     15  C   UNL     1      -1.714 -10.795  12.091  0.00  0.00    +0.089 C 
ATOM     16  C   UNL     1      -4.105 -12.706  12.001  0.00  0.00    +0.163 C 
ATOM     17  C   UNL     1      -4.014 -11.404  11.311  0.00  0.00    +0.056 A 
ATOM     18  C   UNL     1      -2.959 -10.525  11.339  0.00  0.00    +0.066 A 
ATOM     20  C   UNL     1      -2.290 -14.368  12.633  0.00  0.00    +0.217 C 
ATOM     22  C   UNL     1      -4.430  -9.608  10.120  0.00  0.00    +0.197 A 
ATOM     33  H   UNL     1      -5.869 -11.173  10.293  0.00  0.00    +0.167 HD
ENDROOT
BRANCH  14  19
ATOM      4  O   UNL     1      -1.582 -10.933  15.336  0.00  0.00    -0.336 OA
ATOM     12  N   UNL     1      -3.671 -11.666  14.993  0.00  0.00    -0.190 NA
ATOM     13  N   UNL     1      -2.292 -10.651  16.511  0.00  0.00    -0.056 NA
ATOM     19  C   UNL     1      -2.467 -11.529  14.496  0.00  0.00    +0.249 A 
ATOM     24  C   UNL     1      -3.514 -11.113  16.231  0.00  0.00    +0.202 A 
BRANCH  24  25
ATOM     25  C   UNL     1      -4.601 -11.036  17.164  0.00  0.00    +0.023 A 
ATOM     27  C   UNL     1      -5.644 -10.136  16.948  0.00  0.00    +0.015 A 
ATOM     28  C   UNL     1      -4.614 -11.861  18.289  0.00  0.00    +0.015 A 
ATOM     29  C   UNL     1      -6.700 -10.060  17.857  0.00  0.00    +0.046 A 
ATOM     30  C   UNL     1      -5.669 -11.785  19.197  0.00  0.00    +0.046 A 
ATOM     31  C   UNL     1      -6.712 -10.885  18.982  0.00  0.00    +0.130 A 
BRANCH  31   8
ATOM      8  O   UNL     1      -7.742 -10.813  19.869  0.00  0.00    -0.406 OA
BRANCH   8  32
ATOM      1  F   UNL     1      -9.742 -11.672  20.464  0.00  0.00    -0.133 F 
ATOM      2  F   UNL     1      -9.710 -10.094  18.952  0.00  0.00    -0.133 F 
ATOM      3  F   UNL     1      -8.984 -12.125  18.465  0.00  0.00    -0.133 F 
ATOM     32  C   UNL     1      -9.043 -11.171  19.419  0.00  0.00    +0.575 C 
ENDBRANCH   8  32
ENDBRANCH  31   8
ENDBRANCH  24  25
ENDBRANCH  14  19
BRANCH  20  21
ATOM     21  C   UNL     1      -3.217 -15.452  12.139  0.00  0.00    +0.107 C 
BRANCH  21  23
ATOM     23  C   UNL     1      -2.434 -16.727  11.899  0.00  0.00    +0.129 C 
BRANCH  23  26
ATOM      7  O   UNL     1      -2.418 -17.072   9.507  0.00  0.00    -0.251 OA
ATOM     26  C   UNL     1      -1.819 -16.737  10.521  0.00  0.00    +0.305 C 
BRANCH  26   6
ATOM      6  O   UNL     1      -0.518 -16.357  10.528  0.00  0.00    -0.481 OA
ATOM     34  H   UNL     1      -0.421 -15.382  10.498  0.00  0.00    +0.295 HD
ENDBRANCH  26   6
ENDBRANCH  23  26
ENDBRANCH  21  23
ENDBRANCH  20  21
TORSDOF 8
ENDMDL
MODEL 10
REMARK VINA RESULT:      -6.5     31.464     35.532
REMARK  Name = 45783844
REMARK  8 active torsions:
REMARK  status: ('A' for Active; 'I' for Inactive)
REMARK    1  A    between atoms: O_6  and  C_26
REMARK    2  A    between atoms: O_8  and  C_31
REMARK    3  A    between atoms: O_8  and  C_32
REMARK    4  A    between atoms: C_14  and  C_19
REMARK    5  A    between atoms: C_20  and  C_21
REMARK    6  A    between atoms: C_21  and  C_23
REMARK    7  A    between atoms: C_23  and  C_26
REMARK    8  A    between atoms: C_24  and  C_25
REMARK                            x       y       z     vdW  Elec       q    Type
REMARK                         _______ _______ _______ _____ _____    ______ ____
ROOT
ATOM      5  O   UNL     1       0.514  15.407  34.488  0.00  0.00    -0.276 OA
ATOM      9  N   UNL     1      -1.407  14.218  33.911  0.00  0.00    -0.284 N 
ATOM     10  N   UNL     1      -4.819  13.468  32.600  0.00  0.00    -0.347 N 
ATOM     11  N   UNL     1      -5.486  13.966  34.674  0.00  0.00    -0.240 NA
ATOM     14  C   UNL     1      -1.743  13.907  35.343  0.00  0.00    +0.171 C 
ATOM     15  C   UNL     1      -3.198  14.344  35.693  0.00  0.00    +0.089 C 
ATOM     16  C   UNL     1      -2.288  13.654  32.852  0.00  0.00    +0.163 C 
ATOM     17  C   UNL     1      -3.687  13.714  33.320  0.00  0.00    +0.056 A 
ATOM     18  C   UNL     1      -4.123  14.013  34.588  0.00  0.00    +0.066 A 
ATOM     20  C   UNL     1      -0.233  14.930  33.629  0.00  0.00    +0.217 C 
ATOM     22  C   UNL     1      -5.876  13.633  33.459  0.00  0.00    +0.197 A 
ATOM     33  H   UNL     1      -4.873  13.212  31.624  0.00  0.00    +0.167 HD
ENDROOT
BRANCH  14  19
ATOM      4  O   UNL     1      -0.281  11.958  35.041  0.00  0.00    -0.336 OA
ATOM     12  N   UNL     1      -1.932  11.634  36.519  0.00  0.00    -0.190 NA
ATOM     13  N   UNL     1      -0.131  10.647  35.510  0.00  0.00    -0.056 NA
ATOM     19  C   UNL     1      -1.362  12.468  35.685  0.00  0.00    +0.249 A 
ATOM     24  C   UNL     1      -1.142  10.531  36.377  0.00  0.00    +0.202 A 
BRANCH  24  25
ATOM     25  C   UNL     1      -1.388   9.328  37.120  0.00  0.00    +0.023 A 
ATOM     27  C   UNL     1      -0.486   8.267  37.049  0.00  0.00    +0.015 A 
ATOM     28  C   UNL     1      -2.531   9.220  37.912  0.00  0.00    +0.015 A 
ATOM     29  C   UNL     1      -0.727   7.097  37.769  0.00  0.00    +0.046 A 
ATOM     30  C   UNL     1      -2.772   8.050  38.632  0.00  0.00    +0.046 A 
ATOM     31  C   UNL     1      -1.871   6.989  38.561  0.00  0.00    +0.130 A 
BRANCH  31   8
ATOM      8  O   UNL     1      -2.107   5.849  39.265  0.00  0.00    -0.406 OA
BRANCH   8  32
ATOM      1  F   UNL     1      -0.266   4.755  39.981  0.00  0.00    -0.133 F 
ATOM      2  F   UNL     1      -0.726   6.692  40.882  0.00  0.00    -0.133 F 
ATOM      3  F   UNL     1      -1.960   4.920  41.351  0.00  0.00    -0.133 F 
ATOM     32  C   UNL     1      -1.274   5.564  40.383  0.00  0.00    +0.575 C 
ENDBRANCH   8  32
ENDBRANCH  31   8
ENDBRANCH  24  25
ENDBRANCH  14  19
BRANCH  20  21
ATOM     21  C   UNL     1       0.112  15.111  32.172  0.00  0.00    +0.107 C 
BRANCH  21  23
ATOM     23  C   UNL     1       1.485  14.532  31.893  0.00  0.00    +0.129 C 
BRANCH  23  26
ATOM      7  O   UNL     1       2.166  14.137  29.609  0.00  0.00    -0.251 OA
ATOM     26  C   UNL     1       1.507  13.790  30.580  0.00  0.00    +0.305 C 
BRANCH  26   6
ATOM      6  O   UNL     1       0.697  12.703  30.581  0.00  0.00    -0.481 OA
ATOM     34  H   UNL     1      -0.175  12.897  30.986  0.00  0.00    +0.295 HD
ENDBRANCH  26   6
ENDBRANCH  23  26
ENDBRANCH  21  23
ENDBRANCH  20  21
TORSDOF 8
ENDMDL
