MODEL 1
REMARK VINA RESULT:      -7.5      0.000      0.000
REMARK  Name = 11939954
REMARK  9 active torsions:
REMARK  status: ('A' for Active; 'I' for Inactive)
REMARK    1  A    between atoms: N_5  and  C_13
REMARK    2  A    between atoms: N_6  and  C_14
REMARK    3  A    between atoms: N_7  and  C_20
REMARK    4  A    between atoms: N_10  and  C_33
REMARK    5  A    between atoms: N_10  and  C_35
REMARK    6  A    between atoms: N_10  and  C_36
REMARK    7  A    between atoms: C_19  and  C_23
REMARK    8  A    between atoms: C_30  and  C_34
REMARK    9  A    between atoms: C_34  and  C_37
REMARK                            x       y       z     vdW  Elec       q    Type
REMARK                         _______ _______ _______ _____ _____    ______ ____
ROOT
ATOM      1  O   UNL     1      22.449   8.276  21.914  0.00  0.00    -0.370 OA
ATOM      2  O   UNL     1      21.489   6.333  24.158  0.00  0.00    -0.370 OA
ATOM     11  C   UNL     1      21.904   6.134  22.796  0.00  0.00    +0.171 C 
ATOM     12  C   UNL     1      21.386   7.312  21.993  0.00  0.00    +0.171 C 
ATOM     13  C   UNL     1      23.406   6.243  22.685  0.00  0.00    +0.130 C 
ATOM     14  C   UNL     1      20.246   7.853  22.825  0.00  0.00    +0.131 C 
ATOM     15  C   UNL     1      23.621   7.739  22.543  0.00  0.00    +0.185 C 
ATOM     16  C   UNL     1      20.692   7.523  24.239  0.00  0.00    +0.185 C 
ENDROOT
BRANCH  13   5
ATOM      5  N   UNL     1      23.866   5.555  21.498  0.00  0.00    -0.306 N 
ATOM      8  N   UNL     1      23.812   3.491  22.559  0.00  0.00    -0.214 NA
ATOM      9  N   UNL     1      24.496   3.697  20.257  0.00  0.00    -0.223 NA
ATOM     17  C   UNL     1      24.067   4.189  21.436  0.00  0.00    +0.216 A 
ATOM     19  C   UNL     1      24.019   2.161  22.463  0.00  0.00    +0.076 A 
ATOM     21  C   UNL     1      24.682   2.361  20.231  0.00  0.00    +0.116 A 
ATOM     22  C   UNL     1      24.456   1.535  21.313  0.00  0.00    +0.048 A 
ATOM     38  H   UNL     1      24.004   6.080  20.641  0.00  0.00    +0.149 HD
BRANCH  19  23
ATOM     23  C   UNL     1      23.747   1.410  23.665  0.00  0.00    +0.001 A 
ATOM     26  C   UNL     1      22.612   1.696  24.423  0.00  0.00    +0.012 A 
ATOM     27  C   UNL     1      24.618   0.397  24.067  0.00  0.00    +0.012 A 
ATOM     31  C   UNL     1      22.348   0.969  25.584  0.00  0.00    +0.024 A 
ATOM     32  C   UNL     1      24.354  -0.330  25.227  0.00  0.00    +0.024 A 
ATOM     33  C   UNL     1      23.219  -0.044  25.986  0.00  0.00    +0.029 A 
BRANCH  33  10
ATOM     10  N   UNL     1      22.953  -0.779  27.160  0.00  0.00    -0.336 N 
ATOM     35  C   UNL     1      21.659  -0.685  27.806  0.00  0.00    +0.129 C 
ATOM     36  C   UNL     1      23.964  -1.647  27.728  0.00  0.00    +0.129 C 
ENDBRANCH  33  10
ENDBRANCH  19  23
ENDBRANCH  13   5
BRANCH  14   6
ATOM      3  O   UNL     1      18.128   8.891  21.200  0.00  0.00    -0.252 OA
ATOM      6  N   UNL     1      19.004   7.193  22.501  0.00  0.00    -0.292 N 
ATOM      7  N   UNL     1      16.930   6.904  21.557  0.00  0.00    -0.269 N 
ATOM     18  C   UNL     1      18.017   7.772  21.696  0.00  0.00    +0.304 C 
ATOM     39  H   UNL     1      18.867   6.238  22.819  0.00  0.00    +0.151 HD
ATOM     40  H   UNL     1      16.996   6.010  22.037  0.00  0.00    +0.156 HD
BRANCH   7  20
ATOM     20  C   UNL     1      15.738   7.116  20.828  0.00  0.00    +0.035 A 
ATOM     24  C   UNL     1      14.574   7.505  21.490  0.00  0.00    +0.024 A 
ATOM     25  C   UNL     1      15.725   6.937  19.444  0.00  0.00    +0.024 A 
ATOM     28  C   UNL     1      13.398   7.716  20.770  0.00  0.00    +0.013 A 
ATOM     29  C   UNL     1      14.549   7.147  18.724  0.00  0.00    +0.013 A 
ATOM     30  C   UNL     1      13.386   7.537  19.387  0.00  0.00    +0.017 A 
BRANCH  30  34
ATOM      4  O   UNL     1      11.977   7.227  17.521  0.00  0.00    -0.292 OA
ATOM     34  C   UNL     1      12.160   7.755  18.636  0.00  0.00    +0.160 C 
ATOM     37  C   UNL     1      11.060   8.647  19.202  0.00  0.00    +0.091 C 
ENDBRANCH  30  34
ENDBRANCH   7  20
ENDBRANCH  14   6
TORSDOF 6
ENDMDL
MODEL 2
REMARK VINA RESULT:      -7.4     28.480     33.028
REMARK  Name = 11939954
REMARK  9 active torsions:
REMARK  status: ('A' for Active; 'I' for Inactive)
REMARK    1  A    between atoms: N_5  and  C_13
REMARK    2  A    between atoms: N_6  and  C_14
REMARK    3  A    between atoms: N_7  and  C_20
REMARK    4  A    between atoms: N_10  and  C_33
REMARK    5  A    between atoms: N_10  and  C_35
REMARK    6  A    between atoms: N_10  and  C_36
REMARK    7  A    between atoms: C_19  and  C_23
REMARK    8  A    between atoms: C_30  and  C_34
REMARK    9  A    between atoms: C_34  and  C_37
REMARK                            x       y       z     vdW  Elec       q    Type
REMARK                         _______ _______ _______ _____ _____    ______ ____
ROOT
ATOM      1  O   UNL     1      -4.708  -8.785  10.097  0.00  0.00    -0.370 OA
ATOM      2  O   UNL     1      -5.854 -11.685  10.198  0.00  0.00    -0.370 OA
ATOM     11  C   UNL     1      -4.566 -11.125  10.503  0.00  0.00    +0.171 C 
ATOM     12  C   UNL     1      -4.304 -10.025   9.493  0.00  0.00    +0.171 C 
ATOM     13  C   UNL     1      -4.609 -10.406  11.831  0.00  0.00    +0.130 C 
ATOM     14  C   UNL     1      -5.211 -10.366   8.334  0.00  0.00    +0.131 C 
ATOM     15  C   UNL     1      -5.126  -9.032  11.448  0.00  0.00    +0.185 C 
ATOM     16  C   UNL     1      -6.378 -11.048   9.024  0.00  0.00    +0.185 C 
ENDROOT
BRANCH  13   5
ATOM      5  N   UNL     1      -3.275 -10.304  12.382  0.00  0.00    -0.306 N 
ATOM      8  N   UNL     1      -4.040 -10.656  14.546  0.00  0.00    -0.214 NA
ATOM      9  N   UNL     1      -1.699 -10.311  14.088  0.00  0.00    -0.223 NA
ATOM     17  C   UNL     1      -2.993 -10.429  13.730  0.00  0.00    +0.216 A 
ATOM     19  C   UNL     1      -3.729 -10.772  15.854  0.00  0.00    +0.076 A 
ATOM     21  C   UNL     1      -1.460 -10.438  15.409  0.00  0.00    +0.116 A 
ATOM     22  C   UNL     1      -2.444 -10.672  16.348  0.00  0.00    +0.048 A 
ATOM     38  H   UNL     1      -2.485 -10.187  11.757  0.00  0.00    +0.149 HD
BRANCH  19  23
ATOM     23  C   UNL     1      -4.849 -11.015  16.730  0.00  0.00    +0.001 A 
ATOM     26  C   UNL     1      -4.637 -11.207  18.096  0.00  0.00    +0.012 A 
ATOM     27  C   UNL     1      -6.144 -11.057  16.213  0.00  0.00    +0.012 A 
ATOM     31  C   UNL     1      -5.719 -11.439  18.943  0.00  0.00    +0.024 A 
ATOM     32  C   UNL     1      -7.227 -11.290  17.060  0.00  0.00    +0.024 A 
ATOM     33  C   UNL     1      -7.014 -11.481  18.426  0.00  0.00    +0.029 A 
BRANCH  33  10
ATOM     10  N   UNL     1      -8.110 -11.718  19.283  0.00  0.00    -0.336 N 
ATOM     35  C   UNL     1      -9.199 -10.765  19.360  0.00  0.00    +0.129 C 
ATOM     36  C   UNL     1      -8.166 -12.922  20.087  0.00  0.00    +0.129 C 
ENDBRANCH  33  10
ENDBRANCH  19  23
ENDBRANCH  13   5
BRANCH  14   6
ATOM      3  O   UNL     1      -5.653 -10.522   5.508  0.00  0.00    -0.252 OA
ATOM      6  N   UNL     1      -4.558 -11.257   7.406  0.00  0.00    -0.292 N 
ATOM      7  N   UNL     1      -4.053 -12.235   5.389  0.00  0.00    -0.269 N 
ATOM     18  C   UNL     1      -4.833 -11.270   6.033  0.00  0.00    +0.304 C 
ATOM     39  H   UNL     1      -3.818 -11.861   7.754  0.00  0.00    +0.151 HD
ATOM     40  H   UNL     1      -3.421 -12.775   5.973  0.00  0.00    +0.156 HD
BRANCH   7  20
ATOM     20  C   UNL     1      -4.034 -12.558   4.013  0.00  0.00    +0.035 A 
ATOM     24  C   UNL     1      -2.823 -12.602   3.322  0.00  0.00    +0.024 A 
ATOM     25  C   UNL     1      -5.227 -12.835   3.345  0.00  0.00    +0.024 A 
ATOM     28  C   UNL     1      -2.804 -12.923   1.965  0.00  0.00    +0.013 A 
ATOM     29  C   UNL     1      -5.209 -13.155   1.987  0.00  0.00    +0.013 A 
ATOM     30  C   UNL     1      -3.997 -13.200   1.298  0.00  0.00    +0.017 A 
BRANCH  30  34
ATOM      4  O   UNL     1      -4.996 -13.962  -0.699  0.00  0.00    -0.292 OA
ATOM     34  C   UNL     1      -3.979 -13.533  -0.117  0.00  0.00    +0.160 C 
ATOM     37  C   UNL     1      -2.700 -13.364  -0.931  0.00  0.00    +0.091 C 
ENDBRANCH  30  34
ENDBRANCH   7  20
ENDBRANCH  14   6
TORSDOF 6
ENDMDL
MODEL 3
REMARK VINA RESULT:      -7.3     23.826     29.290
REMARK  Name = 11939954
REMARK  9 active torsions:
REMARK  status: ('A' for Active; 'I' for Inactive)
REMARK    1  A    between atoms: N_5  and  C_13
REMARK    2  A    between atoms: N_6  and  C_14
REMARK    3  A    between atoms: N_7  and  C_20
REMARK    4  A    between atoms: N_10  and  C_33
REMARK    5  A    between atoms: N_10  and  C_35
REMARK    6  A    between atoms: N_10  and  C_36
REMARK    7  A    between atoms: C_19  and  C_23
REMARK    8  A    between atoms: C_30  and  C_34
REMARK    9  A    between atoms: C_34  and  C_37
REMARK                            x       y       z     vdW  Elec       q    Type
REMARK                         _______ _______ _______ _____ _____    ______ ____
ROOT
ATOM      1  O   UNL     1       6.995   7.552  -5.538  0.00  0.00    -0.370 OA
ATOM      2  O   UNL     1       5.867   6.422  -2.858  0.00  0.00    -0.370 OA
ATOM     11  C   UNL     1       7.002   6.078  -3.671  0.00  0.00    +0.171 C 
ATOM     12  C   UNL     1       6.582   6.240  -5.119  0.00  0.00    +0.171 C 
ATOM     13  C   UNL     1       8.105   7.093  -3.488  0.00  0.00    +0.130 C 
ATOM     14  C   UNL     1       5.074   6.152  -5.078  0.00  0.00    +0.131 C 
ATOM     15  C   UNL     1       7.719   8.183  -4.472  0.00  0.00    +0.185 C 
ATOM     16  C   UNL     1       4.753   6.725  -3.709  0.00  0.00    +0.185 C 
ENDROOT
BRANCH  13   5
ATOM      5  N   UNL     1       9.378   6.514  -3.857  0.00  0.00    -0.306 N 
ATOM      8  N   UNL     1       9.967   6.162  -1.639  0.00  0.00    -0.214 NA
ATOM      9  N   UNL     1      11.441   5.535  -3.439  0.00  0.00    -0.223 NA
ATOM     17  C   UNL     1      10.302   6.050  -2.938  0.00  0.00    +0.216 A 
ATOM     19  C   UNL     1      10.891   5.701  -0.770  0.00  0.00    +0.076 A 
ATOM     21  C   UNL     1      12.320   5.094  -2.515  0.00  0.00    +0.116 A 
ATOM     22  C   UNL     1      12.097   5.151  -1.155  0.00  0.00    +0.048 A 
ATOM     38  H   UNL     1       9.601   6.384  -4.838  0.00  0.00    +0.149 HD
BRANCH  19  23
ATOM     23  C   UNL     1      10.535   5.819   0.623  0.00  0.00    +0.001 A 
ATOM     26  C   UNL     1      10.838   4.787   1.510  0.00  0.00    +0.012 A 
ATOM     27  C   UNL     1       9.890   6.968   1.083  0.00  0.00    +0.012 A 
ATOM     31  C   UNL     1      10.495   4.902   2.857  0.00  0.00    +0.024 A 
ATOM     32  C   UNL     1       9.548   7.083   2.430  0.00  0.00    +0.024 A 
ATOM     33  C   UNL     1       9.850   6.050   3.317  0.00  0.00    +0.029 A 
BRANCH  33  10
ATOM     10  N   UNL     1       9.503   6.167   4.680  0.00  0.00    -0.336 N 
ATOM     35  C   UNL     1      10.378   5.638   5.707  0.00  0.00    +0.129 C 
ATOM     36  C   UNL     1       8.275   6.828   5.071  0.00  0.00    +0.129 C 
ENDBRANCH  33  10
ENDBRANCH  19  23
ENDBRANCH  13   5
BRANCH  14   6
ATOM      3  O   UNL     1       2.473   5.257  -5.877  0.00  0.00    -0.252 OA
ATOM      6  N   UNL     1       4.629   4.784  -5.191  0.00  0.00    -0.292 N 
ATOM      7  N   UNL     1       3.194   3.039  -5.606  0.00  0.00    -0.269 N 
ATOM     18  C   UNL     1       3.335   4.430  -5.590  0.00  0.00    +0.304 C 
ATOM     39  H   UNL     1       5.305   4.041  -5.034  0.00  0.00    +0.151 HD
ATOM     40  H   UNL     1       4.008   2.495  -5.337  0.00  0.00    +0.156 HD
BRANCH   7  20
ATOM     20  C   UNL     1       2.047   2.288  -5.951  0.00  0.00    +0.035 A 
ATOM     24  C   UNL     1       1.464   2.441  -7.209  0.00  0.00    +0.024 A 
ATOM     25  C   UNL     1       1.498   1.391  -5.034  0.00  0.00    +0.024 A 
ATOM     28  C   UNL     1       0.334   1.698  -7.550  0.00  0.00    +0.013 A 
ATOM     29  C   UNL     1       0.368   0.649  -5.375  0.00  0.00    +0.013 A 
ATOM     30  C   UNL     1      -0.214   0.802  -6.633  0.00  0.00    +0.017 A 
BRANCH  30  34
ATOM      4  O   UNL     1      -2.275   0.491  -7.738  0.00  0.00    -0.292 OA
ATOM     34  C   UNL     1      -1.393   0.028  -6.987  0.00  0.00    +0.160 C 
ATOM     37  C   UNL     1      -1.579  -1.383  -6.440  0.00  0.00    +0.091 C 
ENDBRANCH  30  34
ENDBRANCH   7  20
ENDBRANCH  14   6
TORSDOF 6
ENDMDL
MODEL 4
REMARK VINA RESULT:      -7.2     30.449     35.371
REMARK  Name = 11939954
REMARK  9 active torsions:
REMARK  status: ('A' for Active; 'I' for Inactive)
REMARK    1  A    between atoms: N_5  and  C_13
REMARK    2  A    between atoms: N_6  and  C_14
REMARK    3  A    between atoms: N_7  and  C_20
REMARK    4  A    between atoms: N_10  and  C_33
REMARK    5  A    between atoms: N_10  and  C_35
REMARK    6  A    between atoms: N_10  and  C_36
REMARK    7  A    between atoms: C_19  and  C_23
REMARK    8  A    between atoms: C_30  and  C_34
REMARK    9  A    between atoms: C_34  and  C_37
REMARK                            x       y       z     vdW  Elec       q    Type
REMARK                         _______ _______ _______ _____ _____    ______ ____
ROOT
ATOM      1  O   UNL     1      -4.326 -14.684   2.950  0.00  0.00    -0.370 OA
ATOM      2  O   UNL     1      -1.553 -13.571   3.847  0.00  0.00    -0.370 OA
ATOM     11  C   UNL     1      -2.796 -12.944   3.491  0.00  0.00    +0.171 C 
ATOM     12  C   UNL     1      -3.401 -13.754   2.362  0.00  0.00    +0.171 C 
ATOM     13  C   UNL     1      -3.792 -13.079   4.619  0.00  0.00    +0.130 C 
ATOM     14  C   UNL     1      -2.224 -14.490   1.765  0.00  0.00    +0.131 C 
ATOM     15  C   UNL     1      -4.398 -14.447   4.364  0.00  0.00    +0.185 C 
ATOM     16  C   UNL     1      -1.316 -14.679   2.967  0.00  0.00    +0.185 C 
ENDROOT
BRANCH  13   5
ATOM      5  N   UNL     1      -4.806 -12.053   4.510  0.00  0.00    -0.306 N 
ATOM      8  N   UNL     1      -4.560 -11.440   6.735  0.00  0.00    -0.214 NA
ATOM      9  N   UNL     1      -6.145 -10.328   5.300  0.00  0.00    -0.223 NA
ATOM     17  C   UNL     1      -5.187 -11.239   5.560  0.00  0.00    +0.216 A 
ATOM     19  C   UNL     1      -4.955 -10.629   7.738  0.00  0.00    +0.076 A 
ATOM     21  C   UNL     1      -6.492  -9.552   6.347  0.00  0.00    +0.116 A 
ATOM     22  C   UNL     1      -5.925  -9.657   7.600  0.00  0.00    +0.048 A 
ATOM     38  H   UNL     1      -5.236 -11.872   3.609  0.00  0.00    +0.149 HD
BRANCH  19  23
ATOM     23  C   UNL     1      -4.285 -10.841   8.998  0.00  0.00    +0.001 A 
ATOM     26  C   UNL     1      -3.723  -9.762   9.680  0.00  0.00    +0.012 A 
ATOM     27  C   UNL     1      -4.202 -12.126   9.536  0.00  0.00    +0.012 A 
ATOM     31  C   UNL     1      -3.078  -9.968  10.899  0.00  0.00    +0.024 A 
ATOM     32  C   UNL     1      -3.556 -12.332  10.755  0.00  0.00    +0.024 A 
ATOM     33  C   UNL     1      -2.994 -11.253  11.437  0.00  0.00    +0.029 A 
BRANCH  33  10
ATOM     10  N   UNL     1      -2.340 -11.461  12.669  0.00  0.00    -0.336 N 
ATOM     35  C   UNL     1      -1.777 -12.757  12.991  0.00  0.00    +0.129 C 
ATOM     36  C   UNL     1      -2.212 -10.378  13.624  0.00  0.00    +0.129 C 
ENDBRANCH  33  10
ENDBRANCH  19  23
ENDBRANCH  13   5
BRANCH  14   6
ATOM      3  O   UNL     1      -1.073 -15.458  -0.674  0.00  0.00    -0.252 OA
ATOM      6  N   UNL     1      -1.581 -13.702   0.741  0.00  0.00    -0.292 N 
ATOM      7  N   UNL     1      -0.485 -13.254  -1.227  0.00  0.00    -0.269 N 
ATOM     18  C   UNL     1      -1.042 -14.255  -0.426  0.00  0.00    +0.304 C 
ATOM     39  H   UNL     1      -1.574 -12.691   0.843  0.00  0.00    +0.151 HD
ATOM     40  H   UNL     1      -0.541 -12.302  -0.873  0.00  0.00    +0.156 HD
BRANCH   7  20
ATOM     20  C   UNL     1       0.154 -13.400  -2.480  0.00  0.00    +0.035 A 
ATOM     24  C   UNL     1       1.546 -13.354  -2.563  0.00  0.00    +0.024 A 
ATOM     25  C   UNL     1      -0.607 -13.591  -3.633  0.00  0.00    +0.024 A 
ATOM     28  C   UNL     1       2.176 -13.501  -3.799  0.00  0.00    +0.013 A 
ATOM     29  C   UNL     1       0.023 -13.737  -4.869  0.00  0.00    +0.013 A 
ATOM     30  C   UNL     1       1.414 -13.692  -4.952  0.00  0.00    +0.017 A 
BRANCH  30  34
ATOM      4  O   UNL     1       1.440 -14.205  -7.254  0.00  0.00    -0.292 OA
ATOM     34  C   UNL     1       2.071 -13.843  -6.240  0.00  0.00    +0.160 C 
ATOM     37  C   UNL     1       3.563 -13.560  -6.381  0.00  0.00    +0.091 C 
ENDBRANCH  30  34
ENDBRANCH   7  20
ENDBRANCH  14   6
TORSDOF 6
ENDMDL
MODEL 5
REMARK VINA RESULT:      -7.2     11.026     15.939
REMARK  Name = 11939954
REMARK  9 active torsions:
REMARK  status: ('A' for Active; 'I' for Inactive)
REMARK    1  A    between atoms: N_5  and  C_13
REMARK    2  A    between atoms: N_6  and  C_14
REMARK    3  A    between atoms: N_7  and  C_20
REMARK    4  A    between atoms: N_10  and  C_33
REMARK    5  A    between atoms: N_10  and  C_35
REMARK    6  A    between atoms: N_10  and  C_36
REMARK    7  A    between atoms: C_19  and  C_23
REMARK    8  A    between atoms: C_30  and  C_34
REMARK    9  A    between atoms: C_34  and  C_37
REMARK                            x       y       z     vdW  Elec       q    Type
REMARK                         _______ _______ _______ _____ _____    ______ ____
ROOT
ATOM      1  O   UNL     1      10.656  14.060  10.614  0.00  0.00    -0.370 OA
ATOM      2  O   UNL     1       9.686  11.987  12.734  0.00  0.00    -0.370 OA
ATOM     11  C   UNL     1      10.937  12.188  12.055  0.00  0.00    +0.171 C 
ATOM     12  C   UNL     1      10.614  12.623  10.639  0.00  0.00    +0.171 C 
ATOM     13  C   UNL     1      11.671  13.368  12.647  0.00  0.00    +0.130 C 
ATOM     14  C   UNL     1       9.202  12.135  10.416  0.00  0.00    +0.131 C 
ATOM     15  C   UNL     1      11.067  14.543  11.901  0.00  0.00    +0.185 C 
ATOM     16  C   UNL     1       8.609  12.207  11.812  0.00  0.00    +0.185 C 
ENDROOT
BRANCH  13   5
ATOM      5  N   UNL     1      13.086  13.265  12.360  0.00  0.00    -0.306 N 
ATOM      8  N   UNL     1      13.436  11.804  14.130  0.00  0.00    -0.214 NA
ATOM      9  N   UNL     1      15.250  12.496  12.702  0.00  0.00    -0.223 NA
ATOM     17  C   UNL     1      13.962  12.488  13.096  0.00  0.00    +0.216 A 
ATOM     19  C   UNL     1      14.318  11.057  14.826  0.00  0.00    +0.076 A 
ATOM     21  C   UNL     1      16.076  11.728  13.442  0.00  0.00    +0.116 A 
ATOM     22  C   UNL     1      15.662  10.979  14.524  0.00  0.00    +0.048 A 
ATOM     38  H   UNL     1      13.465  13.741  11.548  0.00  0.00    +0.149 HD
BRANCH  19  23
ATOM     23  C   UNL     1      13.758  10.323  15.935  0.00  0.00    +0.001 A 
ATOM     26  C   UNL     1      14.361  10.389  17.191  0.00  0.00    +0.012 A 
ATOM     27  C   UNL     1      12.612   9.548  15.751  0.00  0.00    +0.012 A 
ATOM     31  C   UNL     1      13.818   9.681  18.263  0.00  0.00    +0.024 A 
ATOM     32  C   UNL     1      12.069   8.840  16.823  0.00  0.00    +0.024 A 
ATOM     33  C   UNL     1      12.672   8.907  18.079  0.00  0.00    +0.029 A 
BRANCH  33  10
ATOM     10  N   UNL     1      12.124   8.189  19.163  0.00  0.00    -0.336 N 
ATOM     35  C   UNL     1      12.604   6.860  19.481  0.00  0.00    +0.129 C 
ATOM     36  C   UNL     1      11.083   8.778  19.981  0.00  0.00    +0.129 C 
ENDBRANCH  33  10
ENDBRANCH  19  23
ENDBRANCH  13   5
BRANCH  14   6
ATOM      3  O   UNL     1       9.585  11.316   7.698  0.00  0.00    -0.252 OA
ATOM      6  N   UNL     1       9.191  10.782   9.913  0.00  0.00    -0.292 N 
ATOM      7  N   UNL     1       9.323   9.083   8.373  0.00  0.00    -0.269 N 
ATOM     18  C   UNL     1       9.387  10.466   8.563  0.00  0.00    +0.304 C 
ATOM     39  H   UNL     1       9.100  10.020  10.578  0.00  0.00    +0.151 HD
ATOM     40  H   UNL     1       9.149   8.516   9.199  0.00  0.00    +0.156 HD
BRANCH   7  20
ATOM     20  C   UNL     1       9.469   8.365   7.164  0.00  0.00    +0.035 A 
ATOM     24  C   UNL     1       8.355   7.784   6.558  0.00  0.00    +0.024 A 
ATOM     25  C   UNL     1      10.727   8.240   6.574  0.00  0.00    +0.024 A 
ATOM     28  C   UNL     1       8.499   7.078   5.363  0.00  0.00    +0.013 A 
ATOM     29  C   UNL     1      10.871   7.534   5.380  0.00  0.00    +0.013 A 
ATOM     30  C   UNL     1       9.757   6.953   4.775  0.00  0.00    +0.017 A 
BRANCH  30  34
ATOM      4  O   UNL     1       9.601   6.722   2.432  0.00  0.00    -0.292 OA
ATOM     34  C   UNL     1       9.908   6.216   3.530  0.00  0.00    +0.160 C 
ATOM     37  C   UNL     1      10.451   4.791   3.541  0.00  0.00    +0.091 C 
ENDBRANCH  30  34
ENDBRANCH   7  20
ENDBRANCH  14   6
TORSDOF 6
ENDMDL
MODEL 6
REMARK VINA RESULT:      -6.9     18.890     26.334
REMARK  Name = 11939954
REMARK  9 active torsions:
REMARK  status: ('A' for Active; 'I' for Inactive)
REMARK    1  A    between atoms: N_5  and  C_13
REMARK    2  A    between atoms: N_6  and  C_14
REMARK    3  A    between atoms: N_7  and  C_20
REMARK    4  A    between atoms: N_10  and  C_33
REMARK    5  A    between atoms: N_10  and  C_35
REMARK    6  A    between atoms: N_10  and  C_36
REMARK    7  A    between atoms: C_19  and  C_23
REMARK    8  A    between atoms: C_30  and  C_34
REMARK    9  A    between atoms: C_34  and  C_37
REMARK                            x       y       z     vdW  Elec       q    Type
REMARK                         _______ _______ _______ _____ _____    ______ ____
ROOT
ATOM      1  O   UNL     1       5.724  13.412   3.796  0.00  0.00    -0.370 OA
ATOM      2  O   UNL     1       3.728  11.275   2.711  0.00  0.00    -0.370 OA
ATOM     11  C   UNL     1       4.108  11.683   4.036  0.00  0.00    +0.171 C 
ATOM     12  C   UNL     1       5.592  11.996   4.001  0.00  0.00    +0.171 C 
ATOM     13  C   UNL     1       3.460  13.002   4.384  0.00  0.00    +0.130 C 
ATOM     14  C   UNL     1       6.100  11.241   2.795  0.00  0.00    +0.131 C 
ATOM     15  C   UNL     1       4.421  14.013   3.786  0.00  0.00    +0.185 C 
ATOM     16  C   UNL     1       4.893  11.251   1.873  0.00  0.00    +0.185 C 
ENDROOT
BRANCH  13   5
ATOM      5  N   UNL     1       3.396  13.159   5.820  0.00  0.00    -0.306 N 
ATOM      8  N   UNL     1       1.312  12.142   5.934  0.00  0.00    -0.214 NA
ATOM      9  N   UNL     1       2.421  12.948   7.917  0.00  0.00    -0.223 NA
ATOM     17  C   UNL     1       2.330  12.731   6.590  0.00  0.00    +0.216 A 
ATOM     19  C   UNL     1       0.289  11.737   6.716  0.00  0.00    +0.076 A 
ATOM     21  C   UNL     1       1.364  12.519   8.637  0.00  0.00    +0.116 A 
ATOM     22  C   UNL     1       0.261  11.900   8.086  0.00  0.00    +0.048 A 
ATOM     38  H   UNL     1       4.189  13.555   6.314  0.00  0.00    +0.149 HD
BRANCH  19  23
ATOM     23  C   UNL     1      -0.803  11.105   6.016  0.00  0.00    +0.001 A 
ATOM     26  C   UNL     1      -1.181   9.804   6.345  0.00  0.00    +0.012 A 
ATOM     27  C   UNL     1      -1.482  11.797   5.013  0.00  0.00    +0.012 A 
ATOM     31  C   UNL     1      -2.239   9.194   5.670  0.00  0.00    +0.024 A 
ATOM     32  C   UNL     1      -2.540  11.188   4.338  0.00  0.00    +0.024 A 
ATOM     33  C   UNL     1      -2.918   9.886   4.666  0.00  0.00    +0.029 A 
BRANCH  33  10
ATOM     10  N   UNL     1      -3.987   9.269   3.983  0.00  0.00    -0.336 N 
ATOM     35  C   UNL     1      -4.647   8.109   4.549  0.00  0.00    +0.129 C 
ATOM     36  C   UNL     1      -4.448   9.794   2.714  0.00  0.00    +0.129 C 
ENDBRANCH  33  10
ENDBRANCH  19  23
ENDBRANCH  13   5
BRANCH  14   6
ATOM      3  O   UNL     1       7.586  10.424   5.104  0.00  0.00    -0.252 OA
ATOM      6  N   UNL     1       6.478   9.893   3.146  0.00  0.00    -0.292 N 
ATOM      7  N   UNL     1       7.427   8.199   4.373  0.00  0.00    -0.269 N 
ATOM     18  C   UNL     1       7.208   9.577   4.297  0.00  0.00    +0.304 C 
ATOM     39  H   UNL     1       6.145   9.130   2.562  0.00  0.00    +0.151 HD
ATOM     40  H   UNL     1       7.048   7.634   3.618  0.00  0.00    +0.156 HD
BRANCH   7  20
ATOM     20  C   UNL     1       8.119   7.483   5.377  0.00  0.00    +0.035 A 
ATOM     24  C   UNL     1       8.714   6.258   5.077  0.00  0.00    +0.024 A 
ATOM     25  C   UNL     1       8.209   8.004   6.668  0.00  0.00    +0.024 A 
ATOM     28  C   UNL     1       9.399   5.554   6.068  0.00  0.00    +0.013 A 
ATOM     29  C   UNL     1       8.893   7.299   7.659  0.00  0.00    +0.013 A 
ATOM     30  C   UNL     1       9.488   6.074   7.358  0.00  0.00    +0.017 A 
BRANCH  30  34
ATOM      4  O   UNL     1      11.416   5.525   8.602  0.00  0.00    -0.292 OA
ATOM     34  C   UNL     1      10.200   5.340   8.392  0.00  0.00    +0.160 C 
ATOM     37  C   UNL     1       9.468   4.314   9.249  0.00  0.00    +0.091 C 
ENDBRANCH  30  34
ENDBRANCH   7  20
ENDBRANCH  14   6
TORSDOF 6
ENDMDL
MODEL 7
REMARK VINA RESULT:      -6.9     17.477     22.756
REMARK  Name = 11939954
REMARK  9 active torsions:
REMARK  status: ('A' for Active; 'I' for Inactive)
REMARK    1  A    between atoms: N_5  and  C_13
REMARK    2  A    between atoms: N_6  and  C_14
REMARK    3  A    between atoms: N_7  and  C_20
REMARK    4  A    between atoms: N_10  and  C_33
REMARK    5  A    between atoms: N_10  and  C_35
REMARK    6  A    between atoms: N_10  and  C_36
REMARK    7  A    between atoms: C_19  and  C_23
REMARK    8  A    between atoms: C_30  and  C_34
REMARK    9  A    between atoms: C_34  and  C_37
REMARK                            x       y       z     vdW  Elec       q    Type
REMARK                         _______ _______ _______ _____ _____    ______ ____
ROOT
ATOM      1  O   UNL     1      10.459   4.853   4.850  0.00  0.00    -0.370 OA
ATOM      2  O   UNL     1       9.663   7.218   2.977  0.00  0.00    -0.370 OA
ATOM     11  C   UNL     1      10.926   6.719   3.449  0.00  0.00    +0.171 C 
ATOM     12  C   UNL     1      10.723   6.266   4.882  0.00  0.00    +0.171 C 
ATOM     13  C   UNL     1      11.298   5.454   2.710  0.00  0.00    +0.130 C 
ATOM     14  C   UNL     1       9.495   7.020   5.336  0.00  0.00    +0.131 C 
ATOM     15  C   UNL     1      10.568   4.382   3.499  0.00  0.00    +0.185 C 
ATOM     16  C   UNL     1       8.707   7.165   4.046  0.00  0.00    +0.185 C 
ENDROOT
BRANCH  13   5
ATOM      5  N   UNL     1      12.727   5.243   2.780  0.00  0.00    -0.306 N 
ATOM      8  N   UNL     1      12.831   4.570   0.561  0.00  0.00    -0.214 NA
ATOM      9  N   UNL     1      14.809   4.657   1.935  0.00  0.00    -0.223 NA
ATOM     17  C   UNL     1      13.489   4.804   1.712  0.00  0.00    +0.216 A 
ATOM     19  C   UNL     1      13.604   4.143  -0.460  0.00  0.00    +0.076 A 
ATOM     21  C   UNL     1      15.521   4.228   0.872  0.00  0.00    +0.116 A 
ATOM     22  C   UNL     1      14.967   3.953  -0.361  0.00  0.00    +0.048 A 
ATOM     38  H   UNL     1      13.224   5.472   3.634  0.00  0.00    +0.149 HD
BRANCH  19  23
ATOM     23  C   UNL     1      12.903   3.891  -1.696  0.00  0.00    +0.001 A 
ATOM     26  C   UNL     1      13.300   4.536  -2.867  0.00  0.00    +0.012 A 
ATOM     27  C   UNL     1      11.829   3.000  -1.719  0.00  0.00    +0.012 A 
ATOM     31  C   UNL     1      12.623   4.290  -4.061  0.00  0.00    +0.024 A 
ATOM     32  C   UNL     1      11.152   2.755  -2.914  0.00  0.00    +0.024 A 
ATOM     33  C   UNL     1      11.549   3.400  -4.085  0.00  0.00    +0.029 A 
BRANCH  33  10
ATOM     10  N   UNL     1      10.864   3.152  -5.293  0.00  0.00    -0.336 N 
ATOM     35  C   UNL     1      11.599   2.829  -6.500  0.00  0.00    +0.129 C 
ATOM     36  C   UNL     1       9.417   3.205  -5.341  0.00  0.00    +0.129 C 
ENDBRANCH  33  10
ENDBRANCH  19  23
ENDBRANCH  13   5
BRANCH  14   6
ATOM      3  O   UNL     1       9.328   7.821   8.081  0.00  0.00    -0.252 OA
ATOM      6  N   UNL     1       9.846   8.309   5.882  0.00  0.00    -0.292 N 
ATOM      7  N   UNL     1      10.145   9.936   7.475  0.00  0.00    -0.269 N 
ATOM     18  C   UNL     1       9.735   8.621   7.242  0.00  0.00    +0.304 C 
ATOM     39  H   UNL     1      10.254   9.002   5.260  0.00  0.00    +0.151 HD
ATOM     40  H   UNL     1      10.453  10.468   6.666  0.00  0.00    +0.156 HD
BRANCH   7  20
ATOM     20  C   UNL     1      10.183  10.628   8.707  0.00  0.00    +0.035 A 
ATOM     24  C   UNL     1      11.399  11.085   9.214  0.00  0.00    +0.024 A 
ATOM     25  C   UNL     1       9.003  10.856   9.416  0.00  0.00    +0.024 A 
ATOM     28  C   UNL     1      11.436  11.770  10.429  0.00  0.00    +0.013 A 
ATOM     29  C   UNL     1       9.040  11.540  10.631  0.00  0.00    +0.013 A 
ATOM     30  C   UNL     1      10.256  11.996  11.138  0.00  0.00    +0.017 A 
BRANCH  30  34
ATOM      4  O   UNL     1      11.302  13.353  12.760  0.00  0.00    -0.292 OA
ATOM     34  C   UNL     1      10.294  12.709  12.405  0.00  0.00    +0.160 C 
ATOM     37  C   UNL     1       9.089  12.682  13.338  0.00  0.00    +0.091 C 
ENDBRANCH  30  34
ENDBRANCH   7  20
ENDBRANCH  14   6
TORSDOF 6
ENDMDL
MODEL 8
REMARK VINA RESULT:      -6.8     28.567     32.902
REMARK  Name = 11939954
REMARK  9 active torsions:
REMARK  status: ('A' for Active; 'I' for Inactive)
REMARK    1  A    between atoms: N_5  and  C_13
REMARK    2  A    between atoms: N_6  and  C_14
REMARK    3  A    between atoms: N_7  and  C_20
REMARK    4  A    between atoms: N_10  and  C_33
REMARK    5  A    between atoms: N_10  and  C_35
REMARK    6  A    between atoms: N_10  and  C_36
REMARK    7  A    between atoms: C_19  and  C_23
REMARK    8  A    between atoms: C_30  and  C_34
REMARK    9  A    between atoms: C_34  and  C_37
REMARK                            x       y       z     vdW  Elec       q    Type
REMARK                         _______ _______ _______ _____ _____    ______ ____
ROOT
ATOM      1  O   UNL     1      -4.586  -9.982   9.733  0.00  0.00    -0.370 OA
ATOM      2  O   UNL     1      -5.618 -12.805  10.568  0.00  0.00    -0.370 OA
ATOM     11  C   UNL     1      -4.379 -12.107  10.782  0.00  0.00    +0.171 C 
ATOM     12  C   UNL     1      -4.088 -11.313   9.523  0.00  0.00    +0.171 C 
ATOM     13  C   UNL     1      -4.548 -11.055  11.852  0.00  0.00    +0.130 C 
ATOM     14  C   UNL     1      -4.893 -12.012   8.452  0.00  0.00    +0.131 C 
ATOM     15  C   UNL     1      -5.091  -9.872  11.072  0.00  0.00    +0.185 C 
ATOM     16  C   UNL     1      -6.080 -12.546   9.235  0.00  0.00    +0.185 C 
ENDROOT
BRANCH  13   5
ATOM      5  N   UNL     1      -3.263 -10.727  12.431  0.00  0.00    -0.306 N 
ATOM      8  N   UNL     1      -4.085 -10.911  14.594  0.00  0.00    -0.214 NA
ATOM      9  N   UNL     1      -1.782 -10.340  14.176  0.00  0.00    -0.223 NA
ATOM     17  C   UNL     1      -3.034 -10.656  13.793  0.00  0.00    +0.216 A 
ATOM     19  C   UNL     1      -3.826 -10.833  15.916  0.00  0.00    +0.076 A 
ATOM     21  C   UNL     1      -1.593 -10.280  15.510  0.00  0.00    +0.116 A 
ATOM     22  C   UNL     1      -2.587 -10.520  16.437  0.00  0.00    +0.048 A 
ATOM     38  H   UNL     1      -2.464 -10.589  11.823  0.00  0.00    +0.149 HD
BRANCH  19  23
ATOM     23  C   UNL     1      -4.951 -11.106  16.778  0.00  0.00    +0.001 A 
ATOM     26  C   UNL     1      -6.081 -11.745  16.268  0.00  0.00    +0.012 A 
ATOM     27  C   UNL     1      -4.907 -10.732  18.122  0.00  0.00    +0.012 A 
ATOM     31  C   UNL     1      -7.167 -12.010  17.102  0.00  0.00    +0.024 A 
ATOM     32  C   UNL     1      -5.993 -10.997  18.955  0.00  0.00    +0.024 A 
ATOM     33  C   UNL     1      -7.123 -11.636  18.446  0.00  0.00    +0.029 A 
BRANCH  33  10
ATOM     10  N   UNL     1      -8.222 -11.904  19.289  0.00  0.00    -0.336 N 
ATOM     35  C   UNL     1      -9.294 -10.938  19.424  0.00  0.00    +0.129 C 
ATOM     36  C   UNL     1      -8.300 -13.153  20.019  0.00  0.00    +0.129 C 
ENDBRANCH  33  10
ENDBRANCH  19  23
ENDBRANCH  13   5
BRANCH  14   6
ATOM      3  O   UNL     1      -3.538 -11.946   5.929  0.00  0.00    -0.252 OA
ATOM      6  N   UNL     1      -4.139 -13.085   7.849  0.00  0.00    -0.292 N 
ATOM      7  N   UNL     1      -2.854 -14.164   6.280  0.00  0.00    -0.269 N 
ATOM     18  C   UNL     1      -3.504 -12.970   6.607  0.00  0.00    +0.304 C 
ATOM     39  H   UNL     1      -4.009 -13.942   8.379  0.00  0.00    +0.151 HD
ATOM     40  H   UNL     1      -2.926 -14.922   6.954  0.00  0.00    +0.156 HD
BRANCH   7  20
ATOM     20  C   UNL     1      -2.104 -14.454   5.117  0.00  0.00    +0.035 A 
ATOM     24  C   UNL     1      -2.754 -14.657   3.900  0.00  0.00    +0.024 A 
ATOM     25  C   UNL     1      -0.713 -14.534   5.186  0.00  0.00    +0.024 A 
ATOM     28  C   UNL     1      -2.013 -14.941   2.752  0.00  0.00    +0.013 A 
ATOM     29  C   UNL     1       0.027 -14.818   4.039  0.00  0.00    +0.013 A 
ATOM     30  C   UNL     1      -0.623 -15.021   2.822  0.00  0.00    +0.017 A 
BRANCH  30  34
ATOM      4  O   UNL     1      -0.405 -15.625   0.552  0.00  0.00    -0.292 OA
ATOM     34  C   UNL     1       0.150 -15.318   1.626  0.00  0.00    +0.160 C 
ATOM     37  C   UNL     1       1.673 -15.262   1.662  0.00  0.00    +0.091 C 
ENDBRANCH  30  34
ENDBRANCH   7  20
ENDBRANCH  14   6
TORSDOF 6
ENDMDL
MODEL 9
REMARK VINA RESULT:      -6.7     23.116     29.742
REMARK  Name = 11939954
REMARK  9 active torsions:
REMARK  status: ('A' for Active; 'I' for Inactive)
REMARK    1  A    between atoms: N_5  and  C_13
REMARK    2  A    between atoms: N_6  and  C_14
REMARK    3  A    between atoms: N_7  and  C_20
REMARK    4  A    between atoms: N_10  and  C_33
REMARK    5  A    between atoms: N_10  and  C_35
REMARK    6  A    between atoms: N_10  and  C_36
REMARK    7  A    between atoms: C_19  and  C_23
REMARK    8  A    between atoms: C_30  and  C_34
REMARK    9  A    between atoms: C_34  and  C_37
REMARK                            x       y       z     vdW  Elec       q    Type
REMARK                         _______ _______ _______ _____ _____    ______ ____
ROOT
ATOM      1  O   UNL     1      10.000   6.688  -4.754  0.00  0.00    -0.370 OA
ATOM      2  O   UNL     1       8.302   4.086  -4.473  0.00  0.00    -0.370 OA
ATOM     11  C   UNL     1       8.039   5.469  -4.180  0.00  0.00    +0.171 C 
ATOM     12  C   UNL     1       9.327   6.067  -3.647  0.00  0.00    +0.171 C 
ATOM     13  C   UNL     1       7.777   6.234  -5.455  0.00  0.00    +0.130 C 
ATOM     14  C   UNL     1      10.112   4.873  -3.156  0.00  0.00    +0.131 C 
ATOM     15  C   UNL     1       9.176   6.589  -5.924  0.00  0.00    +0.185 C 
ATOM     16  C   UNL     1       9.649   3.772  -4.094  0.00  0.00    +0.185 C 
ENDROOT
BRANCH  13   5
ATOM      5  N   UNL     1       7.025   7.436  -5.166  0.00  0.00    -0.306 N 
ATOM      8  N   UNL     1       5.006   6.289  -5.176  0.00  0.00    -0.214 NA
ATOM      9  N   UNL     1       5.096   8.660  -4.756  0.00  0.00    -0.223 NA
ATOM     17  C   UNL     1       5.649   7.463  -5.027  0.00  0.00    +0.216 A 
ATOM     19  C   UNL     1       3.666   6.352  -5.034  0.00  0.00    +0.076 A 
ATOM     21  C   UNL     1       3.753   8.651  -4.627  0.00  0.00    +0.116 A 
ATOM     22  C   UNL     1       2.978   7.516  -4.756  0.00  0.00    +0.048 A 
ATOM     38  H   UNL     1       7.520   8.306  -5.002  0.00  0.00    +0.149 HD
BRANCH  19  23
ATOM     23  C   UNL     1       2.973   5.096  -5.194  0.00  0.00    +0.001 A 
ATOM     26  C   UNL     1       3.446   4.150  -6.103  0.00  0.00    +0.012 A 
ATOM     27  C   UNL     1       1.833   4.827  -4.437  0.00  0.00    +0.012 A 
ATOM     31  C   UNL     1       2.778   2.936  -6.256  0.00  0.00    +0.024 A 
ATOM     32  C   UNL     1       1.165   3.613  -4.589  0.00  0.00    +0.024 A 
ATOM     33  C   UNL     1       1.637   2.667  -5.498  0.00  0.00    +0.029 A 
BRANCH  33  10
ATOM     10  N   UNL     1       0.961   1.438  -5.653  0.00  0.00    -0.336 N 
ATOM     35  C   UNL     1       1.394   0.265  -4.920  0.00  0.00    +0.129 C 
ATOM     36  C   UNL     1      -0.182   1.336  -6.537  0.00  0.00    +0.129 C 
ENDBRANCH  33  10
ENDBRANCH  19  23
ENDBRANCH  13   5
BRANCH  14   6
ATOM      3  O   UNL     1      11.076   6.221  -0.820  0.00  0.00    -0.252 OA
ATOM      6  N   UNL     1       9.788   4.562  -1.785  0.00  0.00    -0.292 N 
ATOM      7  N   UNL     1       9.815   4.749   0.504  0.00  0.00    -0.269 N 
ATOM     18  C   UNL     1      10.303   5.274  -0.696  0.00  0.00    +0.304 C 
ATOM     39  H   UNL     1       9.103   3.834  -1.604  0.00  0.00    +0.151 HD
ATOM     40  H   UNL     1       9.183   3.957   0.432  0.00  0.00    +0.156 HD
BRANCH   7  20
ATOM     20  C   UNL     1      10.097   5.184   1.820  0.00  0.00    +0.035 A 
ATOM     24  C   UNL     1      10.611   4.287   2.757  0.00  0.00    +0.024 A 
ATOM     25  C   UNL     1       9.862   6.511   2.182  0.00  0.00    +0.024 A 
ATOM     28  C   UNL     1      10.890   4.717   4.054  0.00  0.00    +0.013 A 
ATOM     29  C   UNL     1      10.141   6.940   3.479  0.00  0.00    +0.013 A 
ATOM     30  C   UNL     1      10.655   6.044   4.415  0.00  0.00    +0.017 A 
BRANCH  30  34
ATOM      4  O   UNL     1      12.111   6.521   6.208  0.00  0.00    -0.292 OA
ATOM     34  C   UNL     1      10.944   6.492   5.767  0.00  0.00    +0.160 C 
ATOM     37  C   UNL     1       9.814   6.942   6.687  0.00  0.00    +0.091 C 
ENDBRANCH  30  34
ENDBRANCH   7  20
ENDBRANCH  14   6
TORSDOF 6
ENDMDL
MODEL 10
REMARK VINA RESULT:      -6.7     30.718     33.707
REMARK  Name = 11939954
REMARK  9 active torsions:
REMARK  status: ('A' for Active; 'I' for Inactive)
REMARK    1  A    between atoms: N_5  and  C_13
REMARK    2  A    between atoms: N_6  and  C_14
REMARK    3  A    between atoms: N_7  and  C_20
REMARK    4  A    between atoms: N_10  and  C_33
REMARK    5  A    between atoms: N_10  and  C_35
REMARK    6  A    between atoms: N_10  and  C_36
REMARK    7  A    between atoms: C_19  and  C_23
REMARK    8  A    between atoms: C_30  and  C_34
REMARK    9  A    between atoms: C_34  and  C_37
REMARK                            x       y       z     vdW  Elec       q    Type
REMARK                         _______ _______ _______ _____ _____    ______ ____
ROOT
ATOM      1  O   UNL     1      -4.328  -8.688  10.853  0.00  0.00    -0.370 OA
ATOM      2  O   UNL     1      -3.327 -11.643  10.823  0.00  0.00    -0.370 OA
ATOM     11  C   UNL     1      -4.532 -11.008  10.365  0.00  0.00    +0.171 C 
ATOM     12  C   UNL     1      -4.872  -9.917  11.363  0.00  0.00    +0.171 C 
ATOM     13  C   UNL     1      -4.276 -10.264   9.076  0.00  0.00    +0.130 C 
ATOM     14  C   UNL     1      -4.147 -10.331  12.622  0.00  0.00    +0.131 C 
ATOM     15  C   UNL     1      -3.746  -8.928   9.563  0.00  0.00    +0.185 C 
ATOM     16  C   UNL     1      -2.933 -11.060  12.073  0.00  0.00    +0.185 C 
ENDROOT
BRANCH  13   5
ATOM      5  N   UNL     1      -5.517 -10.078   8.356  0.00  0.00    -0.306 N 
ATOM      8  N   UNL     1      -4.711 -11.199   6.489  0.00  0.00    -0.214 NA
ATOM      9  N   UNL     1      -6.944 -10.293   6.537  0.00  0.00    -0.223 NA
ATOM     17  C   UNL     1      -5.733 -10.544   7.072  0.00  0.00    +0.216 A 
ATOM     19  C   UNL     1      -4.956 -11.639   5.237  0.00  0.00    +0.076 A 
ATOM     21  C   UNL     1      -7.120 -10.760   5.284  0.00  0.00    +0.116 A 
ATOM     22  C   UNL     1      -6.154 -11.447   4.578  0.00  0.00    +0.048 A 
ATOM     38  H   UNL     1      -6.300  -9.631   8.820  0.00  0.00    +0.149 HD
BRANCH  19  23
ATOM     23  C   UNL     1      -3.863 -12.342   4.610  0.00  0.00    +0.001 A 
ATOM     26  C   UNL     1      -3.796 -12.427   3.220  0.00  0.00    +0.012 A 
ATOM     27  C   UNL     1      -2.873 -12.934   5.395  0.00  0.00    +0.012 A 
ATOM     31  C   UNL     1      -2.738 -13.105   2.614  0.00  0.00    +0.024 A 
ATOM     32  C   UNL     1      -1.815 -13.611   4.789  0.00  0.00    +0.024 A 
ATOM     33  C   UNL     1      -1.747 -13.697   3.398  0.00  0.00    +0.029 A 
BRANCH  33  10
ATOM     10  N   UNL     1      -0.678 -14.383   2.785  0.00  0.00    -0.336 N 
ATOM     35  C   UNL     1       0.315 -15.065   3.592  0.00  0.00    +0.129 C 
ATOM     36  C   UNL     1      -0.565 -14.427   1.341  0.00  0.00    +0.129 C 
ENDBRANCH  33  10
ENDBRANCH  19  23
ENDBRANCH  13   5
BRANCH  14   6
ATOM      3  O   UNL     1      -5.681  -9.599  14.928  0.00  0.00    -0.252 OA
ATOM      6  N   UNL     1      -4.962 -11.206  13.430  0.00  0.00    -0.292 N 
ATOM      7  N   UNL     1      -6.377 -11.832  15.127  0.00  0.00    -0.269 N 
ATOM     18  C   UNL     1      -5.684 -10.767  14.546  0.00  0.00    +0.304 C 
ATOM     39  H   UNL     1      -5.068 -12.173  13.138  0.00  0.00    +0.151 HD
ATOM     40  H   UNL     1      -6.269 -12.742  14.687  0.00  0.00    +0.156 HD
BRANCH   7  20
ATOM     20  C   UNL     1      -7.215 -11.804  16.266  0.00  0.00    +0.035 A 
ATOM     24  C   UNL     1      -8.490 -11.245  16.180  0.00  0.00    +0.024 A 
ATOM     25  C   UNL     1      -6.769 -12.337  17.475  0.00  0.00    +0.024 A 
ATOM     28  C   UNL     1      -9.318 -11.219  17.302  0.00  0.00    +0.013 A 
ATOM     29  C   UNL     1      -7.596 -12.310  18.597  0.00  0.00    +0.013 A 
ATOM     30  C   UNL     1      -8.871 -11.751  18.511  0.00  0.00    +0.017 A 
BRANCH  30  34
ATOM      4  O   UNL     1      -9.880 -12.728  20.406  0.00  0.00    -0.292 OA
ATOM     34  C   UNL     1      -9.733 -11.723  19.681  0.00  0.00    +0.160 C 
ATOM     37  C   UNL     1     -10.485 -10.449  20.052  0.00  0.00    +0.091 C 
ENDBRANCH  30  34
ENDBRANCH   7  20
ENDBRANCH  14   6
TORSDOF 6
ENDMDL
