MODEL 1
REMARK VINA RESULT:      -5.5      0.000      0.000
REMARK  Name = 75536654
REMARK  7 active torsions:
REMARK  status: ('A' for Active; 'I' for Inactive)
REMARK    1  A    between atoms: S_1  and  N_7
REMARK    2  A    between atoms: S_1  and  C_19
REMARK    3  A    between atoms: O_3  and  C_10
REMARK    4  A    between atoms: N_6  and  C_8
REMARK    5  A    between atoms: N_6  and  C_9
REMARK    6  A    between atoms: N_7  and  C_18
REMARK    7  A    between atoms: C_11  and  C_18
REMARK                            x       y       z     vdW  Elec       q    Type
REMARK                         _______ _______ _______ _____ _____    ______ ____
ROOT
ATOM      2  O   UNL     1      11.927   7.268   4.972  0.00  0.00    -0.371 OA
ATOM      8  C   UNL     1      10.933   5.433   3.837  0.00  0.00    +0.111 C 
ATOM     10  C   UNL     1      10.628   5.322   5.320  0.00  0.00    +0.164 C 
ATOM     11  C   UNL     1      10.846   6.760   5.773  0.00  0.00    +0.164 C 
ATOM     14  C   UNL     1      12.110   6.395   3.844  0.00  0.00    +0.181 C 
ENDROOT
BRANCH  10   3
ATOM      3  O   UNL     1       9.308   4.883   5.573  0.00  0.00    -0.388 OA
ATOM     21  H   UNL     1       8.822   5.606   6.006  0.00  0.00    +0.210 HD
ENDBRANCH  10   3
BRANCH   8   6
ATOM      6  N   UNL     1      11.248   4.160   3.209  0.00  0.00    -0.306 NA
ATOM     20  H   UNL     1      10.408   3.585   3.140  0.00  0.00    +0.123 HD
BRANCH   6   9
ATOM      9  C   UNL     1      11.817   4.366   1.879  0.00  0.00    +0.054 C 
ATOM     12  C   UNL     1      12.957   3.369   1.640  0.00  0.00    +0.019 C 
ATOM     13  C   UNL     1      10.724   4.220   0.815  0.00  0.00    +0.019 C 
ATOM     15  C   UNL     1      13.527   3.504   0.229  0.00  0.00    +0.002 C 
ATOM     16  C   UNL     1      11.297   4.355  -0.595  0.00  0.00    +0.002 C 
ATOM     17  C   UNL     1      12.439   3.372  -0.833  0.00  0.00    +0.000 C 
ENDBRANCH   6   9
ENDBRANCH   8   6
BRANCH  11  18
ATOM     18  C   UNL     1      11.197   6.878   7.245  0.00  0.00    +0.139 C 
BRANCH  18   7
ATOM      7  N   UNL     1      11.270   5.531   7.846  0.00  0.00    -0.192 NA
ATOM     22  H   UNL     1      12.230   5.232   8.062  0.00  0.00    +0.148 HD
BRANCH   7   1
ATOM      1  S   UNL     1      10.063   5.049   8.951  0.00  0.00    +0.027 S 
ATOM      4  O   UNL     1      10.579   5.117  10.304  0.00  0.00    -0.158 OA
ATOM      5  O   UNL     1       9.443   3.836   8.454  0.00  0.00    -0.158 OA
ATOM     19  C   UNL     1       8.887   6.368   8.747  0.00  0.00    +0.214 C 
ENDBRANCH   7   1
ENDBRANCH  18   7
ENDBRANCH  11  18
TORSDOF 6
ENDMDL
MODEL 2
REMARK VINA RESULT:      -5.4     15.340     17.687
REMARK  Name = 75536654
REMARK  7 active torsions:
REMARK  status: ('A' for Active; 'I' for Inactive)
REMARK    1  A    between atoms: S_1  and  N_7
REMARK    2  A    between atoms: S_1  and  C_19
REMARK    3  A    between atoms: O_3  and  C_10
REMARK    4  A    between atoms: N_6  and  C_8
REMARK    5  A    between atoms: N_6  and  C_9
REMARK    6  A    between atoms: N_7  and  C_18
REMARK    7  A    between atoms: C_11  and  C_18
REMARK                            x       y       z     vdW  Elec       q    Type
REMARK                         _______ _______ _______ _____ _____    ______ ____
ROOT
ATOM      2  O   UNL     1      14.745   8.998  19.654  0.00  0.00    -0.371 OA
ATOM      8  C   UNL     1      16.715   7.851  20.324  0.00  0.00    +0.111 C 
ATOM     10  C   UNL     1      15.705   6.841  19.808  0.00  0.00    +0.164 C 
ATOM     11  C   UNL     1      14.799   7.734  18.971  0.00  0.00    +0.164 C 
ATOM     14  C   UNL     1      15.824   9.051  20.604  0.00  0.00    +0.181 C 
ENDROOT
BRANCH  10   3
ATOM      3  O   UNL     1      16.302   5.820  19.034  0.00  0.00    -0.388 OA
ATOM     21  H   UNL     1      16.568   6.200  18.178  0.00  0.00    +0.210 HD
ENDBRANCH  10   3
BRANCH   8   6
ATOM      6  N   UNL     1      17.443   7.400  21.498  0.00  0.00    -0.306 NA
ATOM     20  H   UNL     1      17.186   6.439  21.723  0.00  0.00    +0.123 HD
BRANCH   6   9
ATOM      9  C   UNL     1      18.885   7.490  21.279  0.00  0.00    +0.054 C 
ATOM     12  C   UNL     1      19.582   7.937  22.569  0.00  0.00    +0.019 C 
ATOM     13  C   UNL     1      19.425   6.137  20.800  0.00  0.00    +0.019 C 
ATOM     15  C   UNL     1      21.100   7.967  22.399  0.00  0.00    +0.002 C 
ATOM     16  C   UNL     1      20.943   6.171  20.632  0.00  0.00    +0.002 C 
ATOM     17  C   UNL     1      21.640   6.626  21.911  0.00  0.00    +0.000 C 
ENDBRANCH   6   9
ENDBRANCH   8   6
BRANCH  11  18
ATOM     18  C   UNL     1      13.395   7.178  18.806  0.00  0.00    +0.139 C 
BRANCH  18   7
ATOM      7  N   UNL     1      12.966   6.540  20.066  0.00  0.00    -0.192 NA
ATOM     22  H   UNL     1      13.750   6.225  20.652  0.00  0.00    +0.148 HD
BRANCH   7   1
ATOM      1  S   UNL     1      11.608   7.162  20.892  0.00  0.00    +0.027 S 
ATOM      4  O   UNL     1      10.974   6.108  21.658  0.00  0.00    -0.158 OA
ATOM      5  O   UNL     1      10.840   7.972  19.967  0.00  0.00    -0.158 OA
ATOM     19  C   UNL     1      12.401   8.269  22.035  0.00  0.00    +0.214 C 
ENDBRANCH   7   1
ENDBRANCH  18   7
ENDBRANCH  11  18
TORSDOF 6
ENDMDL
MODEL 3
REMARK VINA RESULT:      -5.3     27.319     30.299
REMARK  Name = 75536654
REMARK  7 active torsions:
REMARK  status: ('A' for Active; 'I' for Inactive)
REMARK    1  A    between atoms: S_1  and  N_7
REMARK    2  A    between atoms: S_1  and  C_19
REMARK    3  A    between atoms: O_3  and  C_10
REMARK    4  A    between atoms: N_6  and  C_8
REMARK    5  A    between atoms: N_6  and  C_9
REMARK    6  A    between atoms: N_7  and  C_18
REMARK    7  A    between atoms: C_11  and  C_18
REMARK                            x       y       z     vdW  Elec       q    Type
REMARK                         _______ _______ _______ _____ _____    ______ ____
ROOT
ATOM      2  O   UNL     1     -15.581   7.540  21.673  0.00  0.00    -0.371 OA
ATOM      8  C   UNL     1     -13.568   6.638  20.791  0.00  0.00    +0.111 C 
ATOM     10  C   UNL     1     -13.941   5.877  22.050  0.00  0.00    +0.164 C 
ATOM     11  C   UNL     1     -15.427   6.194  22.155  0.00  0.00    +0.164 C 
ATOM     14  C   UNL     1     -14.392   7.906  20.950  0.00  0.00    +0.181 C 
ENDROOT
BRANCH  10   3
ATOM      3  O   UNL     1     -13.705   4.487  21.937  0.00  0.00    -0.388 OA
ATOM     21  H   UNL     1     -12.782   4.312  22.191  0.00  0.00    +0.210 HD
ENDBRANCH  10   3
BRANCH   8   6
ATOM      6  N   UNL     1     -12.143   6.901  20.669  0.00  0.00    -0.306 NA
ATOM     20  H   UNL     1     -11.643   6.037  20.464  0.00  0.00    +0.123 HD
BRANCH   6   9
ATOM      9  C   UNL     1     -11.888   7.883  19.617  0.00  0.00    +0.054 C 
ATOM     12  C   UNL     1     -11.000   9.009  20.160  0.00  0.00    +0.019 C 
ATOM     13  C   UNL     1     -11.234   7.198  18.411  0.00  0.00    +0.019 C 
ATOM     15  C   UNL     1     -10.648  10.016  19.066  0.00  0.00    +0.002 C 
ATOM     16  C   UNL     1     -10.882   8.207  17.320  0.00  0.00    +0.002 C 
ATOM     17  C   UNL     1     -10.008   9.336  17.859  0.00  0.00    +0.000 C 
ENDBRANCH   6   9
ENDBRANCH   8   6
BRANCH  11  18
ATOM     18  C   UNL     1     -15.964   6.091  23.572  0.00  0.00    +0.139 C 
BRANCH  18   7
ATOM      7  N   UNL     1     -15.376   4.913  24.239  0.00  0.00    -0.192 NA
ATOM     22  H   UNL     1     -14.866   5.145  25.101  0.00  0.00    +0.148 HD
BRANCH   7   1
ATOM      1  S   UNL     1     -16.244   3.444  24.248  0.00  0.00    +0.027 S 
ATOM      4  O   UNL     1     -15.916   2.686  25.439  0.00  0.00    -0.158 OA
ATOM      5  O   UNL     1     -16.142   2.842  22.933  0.00  0.00    -0.158 OA
ATOM     19  C   UNL     1     -17.907   4.050  24.426  0.00  0.00    +0.214 C 
ENDBRANCH   7   1
ENDBRANCH  18   7
ENDBRANCH  11  18
TORSDOF 6
ENDMDL
MODEL 4
REMARK VINA RESULT:      -5.1     29.012     31.932
REMARK  Name = 75536654
REMARK  7 active torsions:
REMARK  status: ('A' for Active; 'I' for Inactive)
REMARK    1  A    between atoms: S_1  and  N_7
REMARK    2  A    between atoms: S_1  and  C_19
REMARK    3  A    between atoms: O_3  and  C_10
REMARK    4  A    between atoms: N_6  and  C_8
REMARK    5  A    between atoms: N_6  and  C_9
REMARK    6  A    between atoms: N_7  and  C_18
REMARK    7  A    between atoms: C_11  and  C_18
REMARK                            x       y       z     vdW  Elec       q    Type
REMARK                         _______ _______ _______ _____ _____    ______ ____
ROOT
ATOM      2  O   UNL     1     -16.450   4.392  22.174  0.00  0.00    -0.371 OA
ATOM      8  C   UNL     1     -14.524   5.781  22.258  0.00  0.00    +0.111 C 
ATOM     10  C   UNL     1     -14.619   4.988  23.549  0.00  0.00    +0.164 C 
ATOM     11  C   UNL     1     -15.520   3.837  23.120  0.00  0.00    +0.164 C 
ATOM     14  C   UNL     1     -15.944   5.663  21.727  0.00  0.00    +0.181 C 
ENDROOT
BRANCH  10   3
ATOM      3  O   UNL     1     -13.360   4.531  24.002  0.00  0.00    -0.388 OA
ATOM     21  H   UNL     1     -12.868   5.291  24.358  0.00  0.00    +0.210 HD
ENDBRANCH  10   3
BRANCH   8   6
ATOM      6  N   UNL     1     -14.105   7.160  22.451  0.00  0.00    -0.306 NA
ATOM     20  H   UNL     1     -13.495   7.231  23.265  0.00  0.00    +0.123 HD
BRANCH   6   9
ATOM      9  C   UNL     1     -13.411   7.659  21.265  0.00  0.00    +0.054 C 
ATOM     12  C   UNL     1     -12.843   9.056  21.544  0.00  0.00    +0.019 C 
ATOM     13  C   UNL     1     -12.302   6.683  20.859  0.00  0.00    +0.019 C 
ATOM     15  C   UNL     1     -12.043   9.579  20.352  0.00  0.00    +0.002 C 
ATOM     16  C   UNL     1     -11.505   7.209  19.668  0.00  0.00    +0.002 C 
ATOM     17  C   UNL     1     -10.946   8.603  19.937  0.00  0.00    +0.000 C 
ENDBRANCH   6   9
ENDBRANCH   8   6
BRANCH  11  18
ATOM     18  C   UNL     1     -16.278   3.207  24.275  0.00  0.00    +0.139 C 
BRANCH  18   7
ATOM      7  N   UNL     1     -15.655   3.605  25.553  0.00  0.00    -0.192 NA
ATOM     22  H   UNL     1     -15.224   4.539  25.523  0.00  0.00    +0.148 HD
BRANCH   7   1
ATOM      1  S   UNL     1     -16.413   3.171  27.018  0.00  0.00    +0.027 S 
ATOM      4  O   UNL     1     -17.667   3.885  27.154  0.00  0.00    -0.158 OA
ATOM      5  O   UNL     1     -15.421   3.206  28.076  0.00  0.00    -0.158 OA
ATOM     19  C   UNL     1     -16.787   1.462  26.698  0.00  0.00    +0.214 C 
ENDBRANCH   7   1
ENDBRANCH  18   7
ENDBRANCH  11  18
TORSDOF 6
ENDMDL
MODEL 5
REMARK VINA RESULT:      -5.1     23.260     25.935
REMARK  Name = 75536654
REMARK  7 active torsions:
REMARK  status: ('A' for Active; 'I' for Inactive)
REMARK    1  A    between atoms: S_1  and  N_7
REMARK    2  A    between atoms: S_1  and  C_19
REMARK    3  A    between atoms: O_3  and  C_10
REMARK    4  A    between atoms: N_6  and  C_8
REMARK    5  A    between atoms: N_6  and  C_9
REMARK    6  A    between atoms: N_7  and  C_18
REMARK    7  A    between atoms: C_11  and  C_18
REMARK                            x       y       z     vdW  Elec       q    Type
REMARK                         _______ _______ _______ _____ _____    ______ ____
ROOT
ATOM      2  O   UNL     1      -3.788 -10.479  13.760  0.00  0.00    -0.371 OA
ATOM      8  C   UNL     1      -3.189 -10.809  16.036  0.00  0.00    +0.111 C 
ATOM     10  C   UNL     1      -2.081 -11.349  15.149  0.00  0.00    +0.164 C 
ATOM     11  C   UNL     1      -2.358 -10.605  13.849  0.00  0.00    +0.164 C 
ATOM     14  C   UNL     1      -4.351 -10.742  15.058  0.00  0.00    +0.181 C 
ENDROOT
BRANCH  10   3
ATOM      3  O   UNL     1      -0.791 -11.065  15.655  0.00  0.00    -0.388 OA
ATOM     21  H   UNL     1      -0.501 -11.821  16.194  0.00  0.00    +0.210 HD
ENDBRANCH  10   3
BRANCH   8   6
ATOM      6  N   UNL     1      -3.470 -11.645  17.191  0.00  0.00    -0.306 NA
ATOM     20  H   UNL     1      -2.928 -11.328  17.994  0.00  0.00    +0.123 HD
BRANCH   6   9
ATOM      9  C   UNL     1      -4.895 -11.619  17.513  0.00  0.00    +0.054 C 
ATOM     12  C   UNL     1      -5.406 -13.048  17.734  0.00  0.00    +0.019 C 
ATOM     13  C   UNL     1      -5.134 -10.750  18.753  0.00  0.00    +0.019 C 
ATOM     15  C   UNL     1      -6.876 -13.055  18.148  0.00  0.00    +0.002 C 
ATOM     16  C   UNL     1      -6.605 -10.760  19.166  0.00  0.00    +0.002 C 
ATOM     17  C   UNL     1      -7.120 -12.181  19.375  0.00  0.00    +0.000 C 
ENDBRANCH   6   9
ENDBRANCH   8   6
BRANCH  11  18
ATOM     18  C   UNL     1      -1.829 -11.326  12.621  0.00  0.00    +0.139 C 
BRANCH  18   7
ATOM      7  N   UNL     1      -1.627 -12.754  12.935  0.00  0.00    -0.192 NA
ATOM     22  H   UNL     1      -1.202 -12.913  13.858  0.00  0.00    +0.148 HD
BRANCH   7   1
ATOM      1  S   UNL     1      -2.803 -13.888  12.441  0.00  0.00    +0.027 S 
ATOM      4  O   UNL     1      -3.814 -14.029  13.470  0.00  0.00    -0.158 OA
ATOM      5  O   UNL     1      -2.123 -15.051  11.905  0.00  0.00    -0.158 OA
ATOM     19  C   UNL     1      -3.534 -13.022  11.070  0.00  0.00    +0.214 C 
ENDBRANCH   7   1
ENDBRANCH  18   7
ENDBRANCH  11  18
TORSDOF 6
ENDMDL
MODEL 6
REMARK VINA RESULT:      -5.1     24.238     26.364
REMARK  Name = 75536654
REMARK  7 active torsions:
REMARK  status: ('A' for Active; 'I' for Inactive)
REMARK    1  A    between atoms: S_1  and  N_7
REMARK    2  A    between atoms: S_1  and  C_19
REMARK    3  A    between atoms: O_3  and  C_10
REMARK    4  A    between atoms: N_6  and  C_8
REMARK    5  A    between atoms: N_6  and  C_9
REMARK    6  A    between atoms: N_7  and  C_18
REMARK    7  A    between atoms: C_11  and  C_18
REMARK                            x       y       z     vdW  Elec       q    Type
REMARK                         _______ _______ _______ _____ _____    ______ ____
ROOT
ATOM      2  O   UNL     1      -5.948 -10.286  17.472  0.00  0.00    -0.371 OA
ATOM      8  C   UNL     1      -3.990 -11.355  16.655  0.00  0.00    +0.111 C 
ATOM     10  C   UNL     1      -4.277 -11.854  18.060  0.00  0.00    +0.164 C 
ATOM     11  C   UNL     1      -5.755 -11.514  18.196  0.00  0.00    +0.164 C 
ATOM     14  C   UNL     1      -4.811 -10.076  16.617  0.00  0.00    +0.181 C 
ENDROOT
BRANCH  10   3
ATOM      3  O   UNL     1      -4.039 -13.240  18.205  0.00  0.00    -0.388 OA
ATOM     21  H   UNL     1      -3.689 -13.399  19.099  0.00  0.00    +0.210 HD
ENDBRANCH  10   3
BRANCH   8   6
ATOM      6  N   UNL     1      -2.578 -11.129  16.393  0.00  0.00    -0.306 NA
ATOM     20  H   UNL     1      -2.011 -11.597  17.099  0.00  0.00    +0.123 HD
BRANCH   6   9
ATOM      9  C   UNL     1      -2.215 -11.614  15.063  0.00  0.00    +0.054 C 
ATOM     12  C   UNL     1      -3.184 -12.721  14.630  0.00  0.00    +0.019 C 
ATOM     13  C   UNL     1      -2.222 -10.452  14.064  0.00  0.00    +0.019 C 
ATOM     15  C   UNL     1      -2.882 -13.200  13.212  0.00  0.00    +0.002 C 
ATOM     16  C   UNL     1      -1.920 -10.935  12.646  0.00  0.00    +0.002 C 
ATOM     17  C   UNL     1      -2.876 -12.044  12.215  0.00  0.00    +0.000 C 
ENDBRANCH   6   9
ENDBRANCH   8   6
BRANCH  11  18
ATOM     18  C   UNL     1      -6.200 -11.336  19.637  0.00  0.00    +0.139 C 
BRANCH  18   7
ATOM      7  N   UNL     1      -7.398 -10.475  19.682  0.00  0.00    -0.192 NA
ATOM     22  H   UNL     1      -7.248  -9.544  19.272  0.00  0.00    +0.148 HD
BRANCH   7   1
ATOM      1  S   UNL     1      -8.933 -11.174  19.425  0.00  0.00    +0.027 S 
ATOM      4  O   UNL     1      -9.236 -11.187  18.007  0.00  0.00    -0.158 OA
ATOM      5  O   UNL     1      -9.864 -10.602  20.377  0.00  0.00    -0.158 OA
ATOM     19  C   UNL     1      -8.618 -12.850  19.932  0.00  0.00    +0.214 C 
ENDBRANCH   7   1
ENDBRANCH  18   7
ENDBRANCH  11  18
TORSDOF 6
ENDMDL
MODEL 7
REMARK VINA RESULT:      -4.9     23.906     26.804
REMARK  Name = 75536654
REMARK  7 active torsions:
REMARK  status: ('A' for Active; 'I' for Inactive)
REMARK    1  A    between atoms: S_1  and  N_7
REMARK    2  A    between atoms: S_1  and  C_19
REMARK    3  A    between atoms: O_3  and  C_10
REMARK    4  A    between atoms: N_6  and  C_8
REMARK    5  A    between atoms: N_6  and  C_9
REMARK    6  A    between atoms: N_7  and  C_18
REMARK    7  A    between atoms: C_11  and  C_18
REMARK                            x       y       z     vdW  Elec       q    Type
REMARK                         _______ _______ _______ _____ _____    ______ ____
ROOT
ATOM      2  O   UNL     1      -5.552 -11.446  18.105  0.00  0.00    -0.371 OA
ATOM      8  C   UNL     1      -7.314 -10.068  17.305  0.00  0.00    +0.111 C 
ATOM     10  C   UNL     1      -6.041  -9.732  16.550  0.00  0.00    +0.164 C 
ATOM     11  C   UNL     1      -5.221 -10.994  16.780  0.00  0.00    +0.164 C 
ATOM     14  C   UNL     1      -6.759 -10.786  18.525  0.00  0.00    +0.181 C 
ENDROOT
BRANCH  10   3
ATOM      3  O   UNL     1      -6.270  -9.495  15.175  0.00  0.00    -0.388 OA
ATOM     21  H   UNL     1      -5.938  -8.607  14.957  0.00  0.00    +0.210 HD
ENDBRANCH  10   3
BRANCH   8   6
ATOM      6  N   UNL     1      -8.113  -8.904  17.650  0.00  0.00    -0.306 NA
ATOM     20  H   UNL     1      -7.588  -8.050  17.462  0.00  0.00    +0.123 HD
BRANCH   6   9
ATOM      9  C   UNL     1      -9.364  -8.893  16.893  0.00  0.00    +0.054 C 
ATOM     12  C   UNL     1     -10.152 -10.178  17.171  0.00  0.00    +0.019 C 
ATOM     13  C   UNL     1     -10.185  -7.652  17.260  0.00  0.00    +0.019 C 
ATOM     15  C   UNL     1     -11.502 -10.168  16.457  0.00  0.00    +0.002 C 
ATOM     16  C   UNL     1     -11.534  -7.645  16.544  0.00  0.00    +0.002 C 
ATOM     17  C   UNL     1     -12.317  -8.927  16.809  0.00  0.00    +0.000 C 
ENDBRANCH   6   9
ENDBRANCH   8   6
BRANCH  11  18
ATOM     18  C   UNL     1      -3.724 -10.764  16.675  0.00  0.00    +0.139 C 
BRANCH  18   7
ATOM      7  N   UNL     1      -3.389 -10.294  15.316  0.00  0.00    -0.192 NA
ATOM     22  H   UNL     1      -3.762  -9.359  15.105  0.00  0.00    +0.148 HD
BRANCH   7   1
ATOM      1  S   UNL     1      -1.855 -10.659  14.665  0.00  0.00    +0.027 S 
ATOM      4  O   UNL     1      -0.831 -10.441  15.667  0.00  0.00    -0.158 OA
ATOM      5  O   UNL     1      -1.754 -10.046  13.355  0.00  0.00    -0.158 OA
ATOM     19  C   UNL     1      -2.015 -12.414  14.418  0.00  0.00    +0.214 C 
ENDBRANCH   7   1
ENDBRANCH  18   7
ENDBRANCH  11  18
TORSDOF 6
ENDMDL
MODEL 8
REMARK VINA RESULT:      -4.9     29.876     33.932
REMARK  Name = 75536654
REMARK  7 active torsions:
REMARK  status: ('A' for Active; 'I' for Inactive)
REMARK    1  A    between atoms: S_1  and  N_7
REMARK    2  A    between atoms: S_1  and  C_19
REMARK    3  A    between atoms: O_3  and  C_10
REMARK    4  A    between atoms: N_6  and  C_8
REMARK    5  A    between atoms: N_6  and  C_9
REMARK    6  A    between atoms: N_7  and  C_18
REMARK    7  A    between atoms: C_11  and  C_18
REMARK                            x       y       z     vdW  Elec       q    Type
REMARK                         _______ _______ _______ _____ _____    ______ ____
ROOT
ATOM      2  O   UNL     1      -1.253  13.924  35.066  0.00  0.00    -0.371 OA
ATOM      8  C   UNL     1      -0.646  11.835  36.020  0.00  0.00    +0.111 C 
ATOM     10  C   UNL     1       0.605  12.530  35.515  0.00  0.00    +0.164 C 
ATOM     11  C   UNL     1       0.132  13.977  35.451  0.00  0.00    +0.164 C 
ATOM     14  C   UNL     1      -1.732  12.582  35.263  0.00  0.00    +0.181 C 
ENDROOT
BRANCH  10   3
ATOM      3  O   UNL     1       1.706  12.374  36.388  0.00  0.00    -0.388 OA
ATOM     21  H   UNL     1       2.216  11.596  36.101  0.00  0.00    +0.210 HD
ENDBRANCH  10   3
BRANCH   8   6
ATOM      6  N   UNL     1      -0.661  10.404  35.765  0.00  0.00    -0.306 NA
ATOM     20  H   UNL     1       0.274  10.081  35.520  0.00  0.00    +0.123 HD
BRANCH   6   9
ATOM      9  C   UNL     1      -1.146   9.676  36.936  0.00  0.00    +0.054 C 
ATOM     12  C   UNL     1      -2.567   9.162  36.678  0.00  0.00    +0.019 C 
ATOM     13  C   UNL     1      -0.193   8.521  37.264  0.00  0.00    +0.019 C 
ATOM     15  C   UNL     1      -3.079   8.329  37.852  0.00  0.00    +0.002 C 
ATOM     16  C   UNL     1      -0.707   7.690  38.438  0.00  0.00    +0.002 C 
ATOM     17  C   UNL     1      -2.126   7.186  38.190  0.00  0.00    +0.000 C 
ENDBRANCH   6   9
ENDBRANCH   8   6
BRANCH  11  18
ATOM     18  C   UNL     1       0.910  14.819  34.456  0.00  0.00    +0.139 C 
BRANCH  18   7
ATOM      7  N   UNL     1       1.469  13.950  33.402  0.00  0.00    -0.192 NA
ATOM     22  H   UNL     1       1.592  12.974  33.701  0.00  0.00    +0.148 HD
BRANCH   7   1
ATOM      1  S   UNL     1       0.981  14.188  31.784  0.00  0.00    +0.027 S 
ATOM      4  O   UNL     1       1.695  15.314  31.215  0.00  0.00    -0.158 OA
ATOM      5  O   UNL     1      -0.466  14.121  31.727  0.00  0.00    -0.158 OA
ATOM     19  C   UNL     1       1.611  12.704  31.032  0.00  0.00    +0.214 C 
ENDBRANCH   7   1
ENDBRANCH  18   7
ENDBRANCH  11  18
TORSDOF 6
ENDMDL
MODEL 9
REMARK VINA RESULT:      -4.9     26.726     29.096
REMARK  Name = 75536654
REMARK  7 active torsions:
REMARK  status: ('A' for Active; 'I' for Inactive)
REMARK    1  A    between atoms: S_1  and  N_7
REMARK    2  A    between atoms: S_1  and  C_19
REMARK    3  A    between atoms: O_3  and  C_10
REMARK    4  A    between atoms: N_6  and  C_8
REMARK    5  A    between atoms: N_6  and  C_9
REMARK    6  A    between atoms: N_7  and  C_18
REMARK    7  A    between atoms: C_11  and  C_18
REMARK                            x       y       z     vdW  Elec       q    Type
REMARK                         _______ _______ _______ _____ _____    ______ ____
ROOT
ATOM      2  O   UNL     1     -10.312 -12.395  18.194  0.00  0.00    -0.371 OA
ATOM      8  C   UNL     1      -8.763 -11.391  19.690  0.00  0.00    +0.111 C 
ATOM     10  C   UNL     1     -10.016 -10.536  19.627  0.00  0.00    +0.164 C 
ATOM     11  C   UNL     1     -11.032 -11.542  19.101  0.00  0.00    +0.164 C 
ATOM     14  C   UNL     1      -8.903 -12.222  18.424  0.00  0.00    +0.181 C 
ENDROOT
BRANCH  10   3
ATOM      3  O   UNL     1     -10.389 -10.022  20.891  0.00  0.00    -0.388 OA
ATOM     21  H   UNL     1      -9.607 -10.034  21.469  0.00  0.00    +0.210 HD
ENDBRANCH  10   3
BRANCH   8   6
ATOM      6  N   UNL     1      -7.532 -10.620  19.727  0.00  0.00    -0.306 NA
ATOM     20  H   UNL     1      -6.992 -10.861  20.558  0.00  0.00    +0.123 HD
BRANCH   6   9
ATOM      9  C   UNL     1      -6.733 -10.864  18.528  0.00  0.00    +0.054 C 
ATOM     12  C   UNL     1      -6.822  -9.655  17.588  0.00  0.00    +0.019 C 
ATOM     13  C   UNL     1      -5.280 -11.153  18.919  0.00  0.00    +0.019 C 
ATOM     15  C   UNL     1      -5.937  -9.842  16.357  0.00  0.00    +0.002 C 
ATOM     16  C   UNL     1      -4.397 -11.339  17.686  0.00  0.00    +0.002 C 
ATOM     17  C   UNL     1      -4.491 -10.143  16.743  0.00  0.00    +0.000 C 
ENDBRANCH   6   9
ENDBRANCH   8   6
BRANCH  11  18
ATOM     18  C   UNL     1     -12.199 -10.893  18.379  0.00  0.00    +0.139 C 
BRANCH  18   7
ATOM      7  N   UNL     1     -11.972  -9.438  18.278  0.00  0.00    -0.192 NA
ATOM     22  H   UNL     1     -11.448  -9.051  19.074  0.00  0.00    +0.148 HD
BRANCH   7   1
ATOM      1  S   UNL     1     -11.641  -8.753  16.751  0.00  0.00    +0.027 S 
ATOM      4  O   UNL     1     -12.724  -7.873  16.361  0.00  0.00    -0.158 OA
ATOM      5  O   UNL     1     -11.184  -9.806  15.865  0.00  0.00    -0.158 OA
ATOM     19  C   UNL     1     -10.231  -7.743  17.146  0.00  0.00    +0.214 C 
ENDBRANCH   7   1
ENDBRANCH  18   7
ENDBRANCH  11  18
TORSDOF 6
ENDMDL
MODEL 10
REMARK VINA RESULT:      -4.8     32.648     34.748
REMARK  Name = 75536654
REMARK  7 active torsions:
REMARK  status: ('A' for Active; 'I' for Inactive)
REMARK    1  A    between atoms: S_1  and  N_7
REMARK    2  A    between atoms: S_1  and  C_19
REMARK    3  A    between atoms: O_3  and  C_10
REMARK    4  A    between atoms: N_6  and  C_8
REMARK    5  A    between atoms: N_6  and  C_9
REMARK    6  A    between atoms: N_7  and  C_18
REMARK    7  A    between atoms: C_11  and  C_18
REMARK                            x       y       z     vdW  Elec       q    Type
REMARK                         _______ _______ _______ _____ _____    ______ ____
ROOT
ATOM      2  O   UNL     1     -17.237   3.210  27.632  0.00  0.00    -0.371 OA
ATOM      8  C   UNL     1     -16.525   2.751  25.412  0.00  0.00    +0.111 C 
ATOM     10  C   UNL     1     -16.370   1.496  26.251  0.00  0.00    +0.164 C 
ATOM     11  C   UNL     1     -17.322   1.793  27.403  0.00  0.00    +0.164 C 
ATOM     14  C   UNL     1     -16.616   3.822  26.488  0.00  0.00    +0.181 C 
ENDROOT
BRANCH  10   3
ATOM      3  O   UNL     1     -16.739   0.324  25.552  0.00  0.00    -0.388 OA
ATOM     21  H   UNL     1     -15.980   0.037  25.014  0.00  0.00    +0.210 HD
ENDBRANCH  10   3
BRANCH   8   6
ATOM      6  N   UNL     1     -15.428   2.973  24.485  0.00  0.00    -0.306 NA
ATOM     20  H   UNL     1     -15.405   2.232  23.785  0.00  0.00    +0.123 HD
BRANCH   6   9
ATOM      9  C   UNL     1     -15.560   4.272  23.829  0.00  0.00    +0.054 C 
ATOM     12  C   UNL     1     -14.187   4.753  23.345  0.00  0.00    +0.019 C 
ATOM     13  C   UNL     1     -16.551   4.170  22.665  0.00  0.00    +0.019 C 
ATOM     15  C   UNL     1     -14.297   6.074  22.585  0.00  0.00    +0.002 C 
ATOM     16  C   UNL     1     -16.658   5.492  21.907  0.00  0.00    +0.002 C 
ATOM     17  C   UNL     1     -15.292   5.980  21.432  0.00  0.00    +0.000 C 
ENDBRANCH   6   9
ENDBRANCH   8   6
BRANCH  11  18
ATOM     18  C   UNL     1     -16.973   1.045  28.678  0.00  0.00    +0.139 C 
BRANCH  18   7
ATOM      7  N   UNL     1     -15.619   0.469  28.559  0.00  0.00    -0.192 NA
ATOM     22  H   UNL     1     -15.038   0.935  27.849  0.00  0.00    +0.148 HD
BRANCH   7   1
ATOM      1  S   UNL     1     -14.812  -0.054  29.968  0.00  0.00    +0.027 S 
ATOM      4  O   UNL     1     -13.469  -0.487  29.634  0.00  0.00    -0.158 OA
ATOM      5  O   UNL     1     -15.705  -0.917  30.715  0.00  0.00    -0.158 OA
ATOM     19  C   UNL     1     -14.686   1.480  30.861  0.00  0.00    +0.214 C 
ENDBRANCH   7   1
ENDBRANCH  18   7
ENDBRANCH  11  18
TORSDOF 6
ENDMDL
