MODEL 1
REMARK VINA RESULT:      -7.4      0.000      0.000
REMARK  Name = 11865919
REMARK  3 active torsions:
REMARK  status: ('A' for Active; 'I' for Inactive)
REMARK    1  A    between atoms: N_9  and  C_14
REMARK    2  A    between atoms: C_20  and  C_22
REMARK    3  A    between atoms: C_21  and  C_23
REMARK                            x       y       z     vdW  Elec       q    Type
REMARK                         _______ _______ _______ _____ _____    ______ ____
ROOT
ATOM      2  O   UNL     1      14.282  11.213  20.822  0.00  0.00    -0.273 OA
ATOM      3  O   UNL     1      11.352   6.296  20.897  0.00  0.00    -0.274 OA
ATOM      4  O   UNL     1      15.119  11.278  23.719  0.00  0.00    -0.276 OA
ATOM      6  N   UNL     1      13.718   9.017  20.327  0.00  0.00    -0.287 N 
ATOM      7  N   UNL     1      12.864  11.214  23.200  0.00  0.00    -0.288 N 
ATOM      8  N   UNL     1      11.125   8.367  21.770  0.00  0.00    -0.309 N 
ATOM     10  C   UNL     1      12.913   9.996  22.394  0.00  0.00    +0.182 C 
ATOM     11  C   UNL     1      11.465   9.762  21.956  0.00  0.00    +0.104 C 
ATOM     12  C   UNL     1      13.320   7.674  20.763  0.00  0.00    +0.164 C 
ATOM     13  C   UNL     1      13.781   6.762  19.608  0.00  0.00    +0.055 C 
ATOM     14  C   UNL     1      14.913   7.537  18.940  0.00  0.00    +0.093 C 
ATOM     15  C   UNL     1      14.432   8.975  19.056  0.00  0.00    +0.131 C 
ATOM     16  C   UNL     1      10.653  10.440  23.057  0.00  0.00    +0.043 C 
ATOM     17  C   UNL     1      13.724  10.158  21.122  0.00  0.00    +0.239 C 
ATOM     18  C   UNL     1      11.488  11.673  23.368  0.00  0.00    +0.110 C 
ATOM     19  C   UNL     1      11.841   7.416  21.081  0.00  0.00    +0.234 C 
ATOM     20  C   UNL     1      13.971  11.691  23.889  0.00  0.00    +0.213 C 
ATOM     22  C   UNL     1      13.697  12.786  24.889  0.00  0.00    +0.109 C 
ATOM     27  H   UNL     1      10.170   8.109  21.999  0.00  0.00    +0.149 HD
ENDROOT
BRANCH  14   9
ATOM      5  O   UNL     1      16.818   5.442  18.465  0.00  0.00    -0.270 OA
ATOM      9  N   UNL     1      16.167   7.339  19.628  0.00  0.00    -0.306 N 
ATOM     21  C   UNL     1      17.025   6.292  19.327  0.00  0.00    +0.251 C 
ATOM     28  H   UNL     1      16.400   7.967  20.391  0.00  0.00    +0.149 HD
BRANCH  21  23
ATOM      1  S   UNL     1      18.437   7.322  21.398  0.00  0.00    -0.092 S 
ATOM     23  C   UNL     1      18.264   6.212  20.142  0.00  0.00    +0.074 A 
ATOM     24  C   UNL     1      19.275   5.343  19.990  0.00  0.00    +0.021 A 
ATOM     25  C   UNL     1      20.282   5.587  20.968  0.00  0.00    +0.008 A 
ATOM     26  C   UNL     1      19.953   6.635  21.798  0.00  0.00    +0.046 A 
ENDBRANCH  21  23
ENDBRANCH  14   9
TORSDOF 2
ENDMDL
MODEL 2
REMARK VINA RESULT:      -7.4      2.938      6.847
REMARK  Name = 11865919
REMARK  3 active torsions:
REMARK  status: ('A' for Active; 'I' for Inactive)
REMARK    1  A    between atoms: N_9  and  C_14
REMARK    2  A    between atoms: C_20  and  C_22
REMARK    3  A    between atoms: C_21  and  C_23
REMARK                            x       y       z     vdW  Elec       q    Type
REMARK                         _______ _______ _______ _____ _____    ______ ____
ROOT
ATOM      2  O   UNL     1      14.924   7.706  22.414  0.00  0.00    -0.273 OA
ATOM      3  O   UNL     1      12.998   7.434  17.030  0.00  0.00    -0.274 OA
ATOM      4  O   UNL     1      17.196   9.642  21.978  0.00  0.00    -0.276 OA
ATOM      6  N   UNL     1      13.479   7.939  20.613  0.00  0.00    -0.287 N 
ATOM      7  N   UNL     1      17.179   7.645  20.807  0.00  0.00    -0.288 N 
ATOM      8  N   UNL     1      14.849   6.793  18.156  0.00  0.00    -0.309 N 
ATOM     10  C   UNL     1      15.864   7.824  20.193  0.00  0.00    +0.182 C 
ATOM     11  C   UNL     1      15.665   6.574  19.332  0.00  0.00    +0.104 C 
ATOM     12  C   UNL     1      13.218   8.370  19.235  0.00  0.00    +0.164 C 
ATOM     13  C   UNL     1      11.692   8.593  19.204  0.00  0.00    +0.055 C 
ATOM     14  C   UNL     1      11.319   8.874  20.656  0.00  0.00    +0.093 C 
ATOM     15  C   UNL     1      12.261   7.954  21.416  0.00  0.00    +0.131 C 
ATOM     16  C   UNL     1      17.092   6.144  19.005  0.00  0.00    +0.043 C 
ATOM     17  C   UNL     1      14.733   7.831  21.205  0.00  0.00    +0.239 C 
ATOM     18  C   UNL     1      17.829   6.439  20.303  0.00  0.00    +0.110 C 
ATOM     19  C   UNL     1      13.640   7.444  18.087  0.00  0.00    +0.234 C 
ATOM     20  C   UNL     1      17.780   8.636  21.570  0.00  0.00    +0.213 C 
ATOM     22  C   UNL     1      19.235   8.417  21.897  0.00  0.00    +0.109 C 
ATOM     27  H   UNL     1      15.094   6.243  17.338  0.00  0.00    +0.149 HD
ENDROOT
BRANCH  14   9
ATOM      5  O   UNL     1      10.586  10.168  23.112  0.00  0.00    -0.270 OA
ATOM      9  N   UNL     1      11.538  10.259  21.000  0.00  0.00    -0.306 N 
ATOM     21  C   UNL     1      11.146  10.796  22.218  0.00  0.00    +0.251 C 
ATOM     28  H   UNL     1      11.953  10.867  20.301  0.00  0.00    +0.149 HD
BRANCH  21  23
ATOM      1  S   UNL     1      11.015  12.918  23.898  0.00  0.00    -0.092 S 
ATOM     23  C   UNL     1      11.421  12.243  22.408  0.00  0.00    +0.074 A 
ATOM     24  C   UNL     1      11.963  13.085  21.516  0.00  0.00    +0.021 A 
ATOM     25  C   UNL     1      12.064  14.392  22.074  0.00  0.00    +0.008 A 
ATOM     26  C   UNL     1      11.584  14.442  23.364  0.00  0.00    +0.046 A 
ENDBRANCH  21  23
ENDBRANCH  14   9
TORSDOF 2
ENDMDL
MODEL 3
REMARK VINA RESULT:      -6.8      1.773      2.011
REMARK  Name = 11865919
REMARK  3 active torsions:
REMARK  status: ('A' for Active; 'I' for Inactive)
REMARK    1  A    between atoms: N_9  and  C_14
REMARK    2  A    between atoms: C_20  and  C_22
REMARK    3  A    between atoms: C_21  and  C_23
REMARK                            x       y       z     vdW  Elec       q    Type
REMARK                         _______ _______ _______ _____ _____    ______ ____
ROOT
ATOM      2  O   UNL     1      13.843  11.381  19.561  0.00  0.00    -0.273 OA
ATOM      3  O   UNL     1      10.516   8.034  22.801  0.00  0.00    -0.274 OA
ATOM      4  O   UNL     1      15.450  12.677  21.761  0.00  0.00    -0.276 OA
ATOM      6  N   UNL     1      12.922   9.442  20.444  0.00  0.00    -0.287 N 
ATOM      7  N   UNL     1      13.147  12.911  21.762  0.00  0.00    -0.288 N 
ATOM      8  N   UNL     1      10.772  10.249  22.433  0.00  0.00    -0.309 N 
ATOM     10  C   UNL     1      12.835  11.483  21.751  0.00  0.00    +0.182 C 
ATOM     11  C   UNL     1      11.305  11.420  21.771  0.00  0.00    +0.104 C 
ATOM     12  C   UNL     1      12.512   8.638  21.600  0.00  0.00    +0.164 C 
ATOM     13  C   UNL     1      12.530   7.192  21.066  0.00  0.00    +0.055 C 
ATOM     14  C   UNL     1      13.514   7.230  19.900  0.00  0.00    +0.093 C 
ATOM     15  C   UNL     1      13.248   8.601  19.298  0.00  0.00    +0.131 C 
ATOM     16  C   UNL     1      10.910  12.729  22.448  0.00  0.00    +0.043 C 
ATOM     17  C   UNL     1      13.275  10.788  20.477  0.00  0.00    +0.239 C 
ATOM     18  C   UNL     1      11.931  13.709  21.889  0.00  0.00    +0.110 C 
ATOM     19  C   UNL     1      11.159   8.940  22.259  0.00  0.00    +0.234 C 
ATOM     20  C   UNL     1      14.446  13.383  21.876  0.00  0.00    +0.213 C 
ATOM     22  C   UNL     1      14.584  14.859  22.151  0.00  0.00    +0.109 C 
ATOM     27  H   UNL     1       9.895  10.379  22.928  0.00  0.00    +0.149 HD
ENDROOT
BRANCH  14   9
ATOM      5  O   UNL     1      15.745   6.255  18.378  0.00  0.00    -0.270 OA
ATOM      9  N   UNL     1      14.878   7.105  20.354  0.00  0.00    -0.306 N 
ATOM     21  C   UNL     1      15.893   6.621  19.541  0.00  0.00    +0.251 C 
ATOM     28  H   UNL     1      15.086   7.339  21.320  0.00  0.00    +0.149 HD
BRANCH  21  23
ATOM      1  S   UNL     1      18.366   5.519  19.428  0.00  0.00    -0.092 S 
ATOM     23  C   UNL     1      17.237   6.529  20.165  0.00  0.00    +0.074 A 
ATOM     24  C   UNL     1      17.660   7.170  21.266  0.00  0.00    +0.021 A 
ATOM     25  C   UNL     1      19.013   6.822  21.546  0.00  0.00    +0.008 A 
ATOM     26  C   UNL     1      19.520   5.932  20.624  0.00  0.00    +0.046 A 
ENDBRANCH  21  23
ENDBRANCH  14   9
TORSDOF 2
ENDMDL
MODEL 4
REMARK VINA RESULT:      -6.8      3.365      6.228
REMARK  Name = 11865919
REMARK  3 active torsions:
REMARK  status: ('A' for Active; 'I' for Inactive)
REMARK    1  A    between atoms: N_9  and  C_14
REMARK    2  A    between atoms: C_20  and  C_22
REMARK    3  A    between atoms: C_21  and  C_23
REMARK                            x       y       z     vdW  Elec       q    Type
REMARK                         _______ _______ _______ _____ _____    ______ ____
ROOT
ATOM      2  O   UNL     1      15.820  10.210  22.261  0.00  0.00    -0.273 OA
ATOM      3  O   UNL     1      18.858   5.807  20.223  0.00  0.00    -0.274 OA
ATOM      4  O   UNL     1      16.881  12.366  20.438  0.00  0.00    -0.276 OA
ATOM      6  N   UNL     1      16.273   8.175  21.242  0.00  0.00    -0.287 N 
ATOM      7  N   UNL     1      18.361  11.202  21.783  0.00  0.00    -0.288 N 
ATOM      8  N   UNL     1      19.274   7.713  21.362  0.00  0.00    -0.309 N 
ATOM     10  C   UNL     1      18.009   9.867  21.302  0.00  0.00    +0.182 C 
ATOM     11  C   UNL     1      18.924   8.919  22.082  0.00  0.00    +0.104 C 
ATOM     12  C   UNL     1      17.033   7.374  20.276  0.00  0.00    +0.164 C 
ATOM     13  C   UNL     1      16.106   6.179  19.979  0.00  0.00    +0.055 C 
ATOM     14  C   UNL     1      14.705   6.698  20.292  0.00  0.00    +0.093 C 
ATOM     15  C   UNL     1      14.956   7.601  21.490  0.00  0.00    +0.131 C 
ATOM     16  C   UNL     1      20.129   9.794  22.417  0.00  0.00    +0.043 C 
ATOM     17  C   UNL     1      16.586   9.468  21.647  0.00  0.00    +0.239 C 
ATOM     18  C   UNL     1      19.485  11.140  22.713  0.00  0.00    +0.110 C 
ATOM     19  C   UNL     1      18.427   6.874  20.676  0.00  0.00    +0.234 C 
ATOM     20  C   UNL     1      17.833  12.354  21.220  0.00  0.00    +0.213 C 
ATOM     22  C   UNL     1      18.495  13.646  21.629  0.00  0.00    +0.109 C 
ATOM     27  H   UNL     1      20.201   7.341  21.544  0.00  0.00    +0.149 HD
ENDROOT
BRANCH  14   9
ATOM      5  O   UNL     1      12.006   6.568  19.322  0.00  0.00    -0.270 OA
ATOM      9  N   UNL     1      14.153   7.434  19.180  0.00  0.00    -0.306 N 
ATOM     21  C   UNL     1      12.830   7.304  18.784  0.00  0.00    +0.251 C 
ATOM     28  H   UNL     1      14.774   8.032  18.644  0.00  0.00    +0.149 HD
BRANCH  21  23
ATOM      1  S   UNL     1      13.648   8.773  16.659  0.00  0.00    -0.092 S 
ATOM     23  C   UNL     1      12.422   8.110  17.605  0.00  0.00    +0.074 A 
ATOM     24  C   UNL     1      11.169   8.373  17.203  0.00  0.00    +0.021 A 
ATOM     25  C   UNL     1      11.191   9.180  16.029  0.00  0.00    +0.008 A 
ATOM     26  C   UNL     1      12.475   9.471  15.625  0.00  0.00    +0.046 A 
ENDBRANCH  21  23
ENDBRANCH  14   9
TORSDOF 2
ENDMDL
MODEL 5
REMARK VINA RESULT:      -6.3     26.713     28.947
REMARK  Name = 11865919
REMARK  3 active torsions:
REMARK  status: ('A' for Active; 'I' for Inactive)
REMARK    1  A    between atoms: N_9  and  C_14
REMARK    2  A    between atoms: C_20  and  C_22
REMARK    3  A    between atoms: C_21  and  C_23
REMARK                            x       y       z     vdW  Elec       q    Type
REMARK                         _______ _______ _______ _____ _____    ______ ____
ROOT
ATOM      2  O   UNL     1      -6.158 -12.593  14.772  0.00  0.00    -0.273 OA
ATOM      3  O   UNL     1      -0.850 -10.811  15.963  0.00  0.00    -0.274 OA
ATOM      4  O   UNL     1      -7.571  -9.933  14.940  0.00  0.00    -0.276 OA
ATOM      6  N   UNL     1      -3.901 -12.146  14.468  0.00  0.00    -0.287 N 
ATOM      7  N   UNL     1      -6.426 -10.718  16.792  0.00  0.00    -0.288 N 
ATOM      8  N   UNL     1      -2.816 -10.994  17.061  0.00  0.00    -0.309 N 
ATOM     10  C   UNL     1      -5.133 -10.882  16.131  0.00  0.00    +0.182 C 
ATOM     11  C   UNL     1      -4.197 -11.393  17.230  0.00  0.00    +0.104 C 
ATOM     12  C   UNL     1      -2.760 -11.229  14.560  0.00  0.00    +0.164 C 
ATOM     13  C   UNL     1      -1.768 -11.772  13.511  0.00  0.00    +0.055 C 
ATOM     14  C   UNL     1      -2.644 -12.526  12.515  0.00  0.00    +0.093 C 
ATOM     15  C   UNL     1      -3.706 -13.137  13.416  0.00  0.00    +0.131 C 
ATOM     16  C   UNL     1      -4.831 -10.850  18.508  0.00  0.00    +0.043 C 
ATOM     17  C   UNL     1      -5.148 -11.949  15.053  0.00  0.00    +0.239 C 
ATOM     18  C   UNL     1      -6.318 -10.990  18.222  0.00  0.00    +0.110 C 
ATOM     19  C   UNL     1      -2.059 -11.067  15.915  0.00  0.00    +0.234 C 
ATOM     20  C   UNL     1      -7.517 -10.147  16.152  0.00  0.00    +0.213 C 
ATOM     22  C   UNL     1      -8.684  -9.792  17.039  0.00  0.00    +0.109 C 
ATOM     27  H   UNL     1      -2.294 -10.828  17.916  0.00  0.00    +0.149 HD
ENDROOT
BRANCH  14   9
ATOM      5  O   UNL     1      -3.707 -13.250   9.948  0.00  0.00    -0.270 OA
ATOM      9  N   UNL     1      -3.224 -11.634  11.539  0.00  0.00    -0.306 N 
ATOM     21  C   UNL     1      -3.713 -12.079  10.320  0.00  0.00    +0.251 C 
ATOM     28  H   UNL     1      -3.227 -10.639  11.741  0.00  0.00    +0.149 HD
BRANCH  21  23
ATOM      1  S   UNL     1      -5.045 -11.550   8.021  0.00  0.00    -0.092 S 
ATOM     23  C   UNL     1      -4.255 -11.033   9.416  0.00  0.00    +0.074 A 
ATOM     24  C   UNL     1      -4.186  -9.704   9.588  0.00  0.00    +0.021 A 
ATOM     25  C   UNL     1      -4.824  -9.036   8.504  0.00  0.00    +0.008 A 
ATOM     26  C   UNL     1      -5.335  -9.920   7.580  0.00  0.00    +0.046 A 
ENDBRANCH  21  23
ENDBRANCH  14   9
TORSDOF 2
ENDMDL
MODEL 6
REMARK VINA RESULT:      -6.3      3.967      7.698
REMARK  Name = 11865919
REMARK  3 active torsions:
REMARK  status: ('A' for Active; 'I' for Inactive)
REMARK    1  A    between atoms: N_9  and  C_14
REMARK    2  A    between atoms: C_20  and  C_22
REMARK    3  A    between atoms: C_21  and  C_23
REMARK                            x       y       z     vdW  Elec       q    Type
REMARK                         _______ _______ _______ _____ _____    ______ ____
ROOT
ATOM      2  O   UNL     1      14.469  10.400  19.966  0.00  0.00    -0.273 OA
ATOM      3  O   UNL     1      10.589   6.451  21.421  0.00  0.00    -0.274 OA
ATOM      4  O   UNL     1      13.324  11.185  17.287  0.00  0.00    -0.276 OA
ATOM      6  N   UNL     1      12.764   9.370  21.157  0.00  0.00    -0.287 N 
ATOM      7  N   UNL     1      13.929   8.981  17.650  0.00  0.00    -0.288 N 
ATOM      8  N   UNL     1      12.215   6.675  19.868  0.00  0.00    -0.309 N 
ATOM     10  C   UNL     1      13.095   8.771  18.831  0.00  0.00    +0.182 C 
ATOM     11  C   UNL     1      13.346   7.313  19.229  0.00  0.00    +0.104 C 
ATOM     12  C   UNL     1      11.472   8.677  21.192  0.00  0.00    +0.164 C 
ATOM     13  C   UNL     1      10.952   8.942  22.620  0.00  0.00    +0.055 C 
ATOM     14  C   UNL     1      11.653  10.228  23.047  0.00  0.00    +0.093 C 
ATOM     15  C   UNL     1      13.024  10.077  22.406  0.00  0.00    +0.131 C 
ATOM     16  C   UNL     1      13.746   6.655  17.912  0.00  0.00    +0.043 C 
ATOM     17  C   UNL     1      13.521   9.617  20.016  0.00  0.00    +0.239 C 
ATOM     18  C   UNL     1      14.581   7.738  17.245  0.00  0.00    +0.110 C 
ATOM     19  C   UNL     1      11.440   7.173  20.889  0.00  0.00    +0.234 C 
ATOM     20  C   UNL     1      13.884  10.154  16.911  0.00  0.00    +0.213 C 
ATOM     22  C   UNL     1      14.585  10.115  15.576  0.00  0.00    +0.109 C 
ATOM     27  H   UNL     1      12.102   5.683  19.682  0.00  0.00    +0.149 HD
ENDROOT
BRANCH  14   9
ATOM      5  O   UNL     1      12.092  12.949  23.854  0.00  0.00    -0.270 OA
ATOM      9  N   UNL     1      10.963  11.396  22.554  0.00  0.00    -0.306 N 
ATOM     21  C   UNL     1      11.246  12.676  23.007  0.00  0.00    +0.251 C 
ATOM     28  H   UNL     1      10.211  11.262  21.884  0.00  0.00    +0.149 HD
BRANCH  21  23
ATOM      1  S   UNL     1       9.379  14.590  23.448  0.00  0.00    -0.092 S 
ATOM     23  C   UNL     1      10.430  13.768  22.419  0.00  0.00    +0.074 A 
ATOM     24  C   UNL     1      10.435  14.181  21.142  0.00  0.00    +0.021 A 
ATOM     25  C   UNL     1       9.513  15.254  20.970  0.00  0.00    +0.008 A 
ATOM     26  C   UNL     1       8.871  15.578  22.145  0.00  0.00    +0.046 A 
ENDBRANCH  21  23
ENDBRANCH  14   9
TORSDOF 2
ENDMDL
MODEL 7
REMARK VINA RESULT:      -6.2     27.316     29.643
REMARK  Name = 11865919
REMARK  3 active torsions:
REMARK  status: ('A' for Active; 'I' for Inactive)
REMARK    1  A    between atoms: N_9  and  C_14
REMARK    2  A    between atoms: C_20  and  C_22
REMARK    3  A    between atoms: C_21  and  C_23
REMARK                            x       y       z     vdW  Elec       q    Type
REMARK                         _______ _______ _______ _____ _____    ______ ____
ROOT
ATOM      2  O   UNL     1      -8.758 -12.020  15.380  0.00  0.00    -0.273 OA
ATOM      3  O   UNL     1      -6.317 -10.663  20.377  0.00  0.00    -0.274 OA
ATOM      4  O   UNL     1      -8.956  -9.246  14.212  0.00  0.00    -0.276 OA
ATOM      6  N   UNL     1      -7.161 -11.937  17.061  0.00  0.00    -0.287 N 
ATOM      7  N   UNL     1     -10.006  -9.697  16.225  0.00  0.00    -0.288 N 
ATOM      8  N   UNL     1      -8.315 -10.337  19.372  0.00  0.00    -0.309 N 
ATOM     10  C   UNL     1      -8.817 -10.171  16.930  0.00  0.00    +0.182 C 
ATOM     11  C   UNL     1      -9.312 -10.513  18.338  0.00  0.00    +0.104 C 
ATOM     12  C   UNL     1      -6.364 -11.171  18.026  0.00  0.00    +0.164 C 
ATOM     13  C   UNL     1      -5.134 -12.066  18.278  0.00  0.00    +0.055 C 
ATOM     14  C   UNL     1      -5.025 -12.925  17.021  0.00  0.00    +0.093 C 
ATOM     15  C   UNL     1      -6.484 -13.167  16.668  0.00  0.00    +0.131 C 
ATOM     16  C   UNL     1     -10.528  -9.606  18.511  0.00  0.00    +0.043 C 
ATOM     17  C   UNL     1      -8.255 -11.456  16.350  0.00  0.00    +0.239 C 
ATOM     18  C   UNL     1     -11.154  -9.629  17.125  0.00  0.00    +0.110 C 
ATOM     19  C   UNL     1      -7.011 -10.775  19.359  0.00  0.00    +0.234 C 
ATOM     20  C   UNL     1      -9.945  -9.168  14.943  0.00  0.00    +0.213 C 
ATOM     22  C   UNL     1     -11.192  -8.472  14.462  0.00  0.00    +0.109 C 
ATOM     27  H   UNL     1      -8.662 -10.035  20.277  0.00  0.00    +0.149 HD
ENDROOT
BRANCH  14   9
ATOM      5  O   UNL     1      -3.715 -14.113  14.759  0.00  0.00    -0.270 OA
ATOM      9  N   UNL     1      -4.332 -12.230  15.963  0.00  0.00    -0.306 N 
ATOM     21  C   UNL     1      -3.727 -12.893  14.906  0.00  0.00    +0.251 C 
ATOM     28  H   UNL     1      -4.248 -11.220  16.027  0.00  0.00    +0.149 HD
BRANCH  21  23
ATOM      1  S   UNL     1      -2.263 -10.652  14.488  0.00  0.00    -0.092 S 
ATOM     23  C   UNL     1      -3.032 -12.036  13.913  0.00  0.00    +0.074 A 
ATOM     24  C   UNL     1      -2.946 -12.242  12.589  0.00  0.00    +0.021 A 
ATOM     25  C   UNL     1      -2.195 -11.197  11.978  0.00  0.00    +0.008 A 
ATOM     26  C   UNL     1      -1.763 -10.265  12.896  0.00  0.00    +0.046 A 
ENDBRANCH  21  23
ENDBRANCH  14   9
TORSDOF 2
ENDMDL
MODEL 8
REMARK VINA RESULT:      -6.2     26.778     29.774
REMARK  Name = 11865919
REMARK  3 active torsions:
REMARK  status: ('A' for Active; 'I' for Inactive)
REMARK    1  A    between atoms: N_9  and  C_14
REMARK    2  A    between atoms: C_20  and  C_22
REMARK    3  A    between atoms: C_21  and  C_23
REMARK                            x       y       z     vdW  Elec       q    Type
REMARK                         _______ _______ _______ _____ _____    ______ ____
ROOT
ATOM      2  O   UNL     1      -6.168  -9.999  13.360  0.00  0.00    -0.273 OA
ATOM      3  O   UNL     1      -1.460 -10.846  16.503  0.00  0.00    -0.274 OA
ATOM      4  O   UNL     1      -6.230 -12.652  11.924  0.00  0.00    -0.276 OA
ATOM      6  N   UNL     1      -4.837 -10.276  15.240  0.00  0.00    -0.287 N 
ATOM      7  N   UNL     1      -4.371 -11.292  11.696  0.00  0.00    -0.288 N 
ATOM      8  N   UNL     1      -1.960 -10.583  14.315  0.00  0.00    -0.309 N 
ATOM     10  C   UNL     1      -4.074 -11.175  13.122  0.00  0.00    +0.182 C 
ATOM     11  C   UNL     1      -2.820 -10.298  13.187  0.00  0.00    +0.104 C 
ATOM     12  C   UNL     1      -3.801 -11.012  15.971  0.00  0.00    +0.164 C 
ATOM     13  C   UNL     1      -4.077 -10.667  17.448  0.00  0.00    +0.055 C 
ATOM     14  C   UNL     1      -5.557 -10.297  17.482  0.00  0.00    +0.093 C 
ATOM     15  C   UNL     1      -5.742  -9.583  16.151  0.00  0.00    +0.131 C 
ATOM     16  C   UNL     1      -2.150 -10.547  11.838  0.00  0.00    +0.043 C 
ATOM     17  C   UNL     1      -5.152 -10.438  13.895  0.00  0.00    +0.239 C 
ATOM     18  C   UNL     1      -3.339 -10.642  10.894  0.00  0.00    +0.110 C 
ATOM     19  C   UNL     1      -2.330 -10.737  15.631  0.00  0.00    +0.234 C 
ATOM     20  C   UNL     1      -5.374 -12.120  11.214  0.00  0.00    +0.213 C 
ATOM     22  C   UNL     1      -5.377 -12.347   9.724  0.00  0.00    +0.109 C 
ATOM     27  H   UNL     1      -0.964 -10.463  14.156  0.00  0.00    +0.149 HD
ENDROOT
BRANCH  14   9
ATOM      5  O   UNL     1      -7.211 -11.052  19.704  0.00  0.00    -0.270 OA
ATOM      9  N   UNL     1      -6.393 -11.470  17.575  0.00  0.00    -0.306 N 
ATOM     21  C   UNL     1      -7.160 -11.751  18.696  0.00  0.00    +0.251 C 
ATOM     28  H   UNL     1      -6.378 -12.133  16.806  0.00  0.00    +0.149 HD
BRANCH  21  23
ATOM      1  S   UNL     1      -8.843 -13.417  20.013  0.00  0.00    -0.092 S 
ATOM     23  C   UNL     1      -7.946 -13.010  18.646  0.00  0.00    +0.074 A 
ATOM     24  C   UNL     1      -8.024 -13.872  17.621  0.00  0.00    +0.021 A 
ATOM     25  C   UNL     1      -8.881 -14.959  17.959  0.00  0.00    +0.008 A 
ATOM     26  C   UNL     1      -9.394 -14.838  19.231  0.00  0.00    +0.046 A 
ENDBRANCH  21  23
ENDBRANCH  14   9
TORSDOF 2
ENDMDL
MODEL 9
REMARK VINA RESULT:      -6.2     15.328     17.007
REMARK  Name = 11865919
REMARK  3 active torsions:
REMARK  status: ('A' for Active; 'I' for Inactive)
REMARK    1  A    between atoms: N_9  and  C_14
REMARK    2  A    between atoms: C_20  and  C_22
REMARK    3  A    between atoms: C_21  and  C_23
REMARK                            x       y       z     vdW  Elec       q    Type
REMARK                         _______ _______ _______ _____ _____    ______ ____
ROOT
ATOM      2  O   UNL     1       9.907   9.093   4.232  0.00  0.00    -0.273 OA
ATOM      3  O   UNL     1       9.502   5.205   8.413  0.00  0.00    -0.274 OA
ATOM      4  O   UNL     1      12.578  10.278   4.981  0.00  0.00    -0.276 OA
ATOM      6  N   UNL     1       9.775   7.014   5.254  0.00  0.00    -0.287 N 
ATOM      7  N   UNL     1      10.848  10.341   6.518  0.00  0.00    -0.288 N 
ATOM      8  N   UNL     1       9.475   7.458   8.245  0.00  0.00    -0.309 N 
ATOM     10  C   UNL     1      10.591   8.902   6.539  0.00  0.00    +0.182 C 
ATOM     11  C   UNL     1       9.452   8.725   7.546  0.00  0.00    +0.104 C 
ATOM     12  C   UNL     1      10.219   6.070   6.286  0.00  0.00    +0.164 C 
ATOM     13  C   UNL     1       9.867   4.690   5.697  0.00  0.00    +0.055 C 
ATOM     14  C   UNL     1       9.839   4.916   4.188  0.00  0.00    +0.093 C 
ATOM     15  C   UNL     1       9.257   6.317   4.083  0.00  0.00    +0.131 C 
ATOM     16  C   UNL     1       9.614   9.928   8.472  0.00  0.00    +0.043 C 
ATOM     17  C   UNL     1      10.076   8.371   5.214  0.00  0.00    +0.239 C 
ATOM     18  C   UNL     1      10.025  11.031   7.507  0.00  0.00    +0.110 C 
ATOM     19  C   UNL     1       9.638   6.205   7.700  0.00  0.00    +0.234 C 
ATOM     20  C   UNL     1      11.905  10.894   5.811  0.00  0.00    +0.213 C 
ATOM     22  C   UNL     1      12.206  12.341   6.108  0.00  0.00    +0.109 C 
ATOM     27  H   UNL     1       9.142   7.473   9.204  0.00  0.00    +0.149 HD
ENDROOT
BRANCH  14   9
ATOM      5  O   UNL     1      10.526   4.016   1.550  0.00  0.00    -0.270 OA
ATOM      9  N   UNL     1      11.163   4.847   3.619  0.00  0.00    -0.306 N 
ATOM     21  C   UNL     1      11.397   4.396   2.328  0.00  0.00    +0.251 C 
ATOM     28  H   UNL     1      11.953   5.096   4.207  0.00  0.00    +0.149 HD
BRANCH  21  23
ATOM      1  S   UNL     1      13.606   5.838   1.709  0.00  0.00    -0.092 S 
ATOM     23  C   UNL     1      12.819   4.361   1.899  0.00  0.00    +0.074 A 
ATOM     24  C   UNL     1      13.557   3.270   1.643  0.00  0.00    +0.021 A 
ATOM     25  C   UNL     1      14.875   3.650   1.259  0.00  0.00    +0.008 A 
ATOM     26  C   UNL     1      15.039   5.018   1.253  0.00  0.00    +0.046 A 
ENDBRANCH  21  23
ENDBRANCH  14   9
TORSDOF 2
ENDMDL
MODEL 10
REMARK VINA RESULT:      -6.0      4.668      6.114
REMARK  Name = 11865919
REMARK  3 active torsions:
REMARK  status: ('A' for Active; 'I' for Inactive)
REMARK    1  A    between atoms: N_9  and  C_14
REMARK    2  A    between atoms: C_20  and  C_22
REMARK    3  A    between atoms: C_21  and  C_23
REMARK                            x       y       z     vdW  Elec       q    Type
REMARK                         _______ _______ _______ _____ _____    ______ ____
ROOT
ATOM      2  O   UNL     1      15.277  10.301  20.051  0.00  0.00    -0.273 OA
ATOM      3  O   UNL     1      12.527   9.118  15.172  0.00  0.00    -0.274 OA
ATOM      4  O   UNL     1      17.079   7.884  20.145  0.00  0.00    -0.276 OA
ATOM      6  N   UNL     1      14.560  10.529  17.856  0.00  0.00    -0.287 N 
ATOM      7  N   UNL     1      14.786   7.577  20.102  0.00  0.00    -0.288 N 
ATOM      8  N   UNL     1      12.634   8.256  17.259  0.00  0.00    -0.309 N 
ATOM     10  C   UNL     1      14.540   8.328  18.873  0.00  0.00    +0.182 C 
ATOM     11  C   UNL     1      13.028   8.225  18.651  0.00  0.00    +0.104 C 
ATOM     12  C   UNL     1      14.331   9.958  16.524  0.00  0.00    +0.164 C 
ATOM     13  C   UNL     1      14.350  11.185  15.590  0.00  0.00    +0.055 C 
ATOM     14  C   UNL     1      15.181  12.221  16.342  0.00  0.00    +0.093 C 
ATOM     15  C   UNL     1      14.782  11.968  17.788  0.00  0.00    +0.131 C 
ATOM     16  C   UNL     1      12.660   6.921  19.354  0.00  0.00    +0.043 C 
ATOM     17  C   UNL     1      14.853   9.806  19.008  0.00  0.00    +0.239 C 
ATOM     18  C   UNL     1      13.559   6.945  20.581  0.00  0.00    +0.110 C 
ATOM     19  C   UNL     1      13.057   9.136  16.289  0.00  0.00    +0.234 C 
ATOM     20  C   UNL     1      16.066   7.329  20.575  0.00  0.00    +0.213 C 
ATOM     22  C   UNL     1      16.169   6.315  21.686  0.00  0.00    +0.109 C 
ATOM     27  H   UNL     1      11.819   7.702  17.016  0.00  0.00    +0.149 HD
ENDROOT
BRANCH  14   9
ATOM      5  O   UNL     1      16.785  13.307  14.222  0.00  0.00    -0.270 OA
ATOM      9  N   UNL     1      16.595  12.014  16.138  0.00  0.00    -0.306 N 
ATOM     21  C   UNL     1      17.286  12.584  15.079  0.00  0.00    +0.251 C 
ATOM     28  H   UNL     1      17.085  11.390  16.771  0.00  0.00    +0.149 HD
BRANCH  21  23
ATOM      1  S   UNL     1      19.707  12.709  16.290  0.00  0.00    -0.092 S 
ATOM     23  C   UNL     1      18.732  12.253  14.994  0.00  0.00    +0.074 A 
ATOM     24  C   UNL     1      19.357  11.624  13.987  0.00  0.00    +0.021 A 
ATOM     25  C   UNL     1      20.746  11.493  14.279  0.00  0.00    +0.008 A 
ATOM     26  C   UNL     1      21.072  12.040  15.500  0.00  0.00    +0.046 A 
ENDBRANCH  21  23
ENDBRANCH  14   9
TORSDOF 2
ENDMDL
