MODEL 1
REMARK VINA RESULT:      -7.4      0.000      0.000
REMARK  Name = 45361553
REMARK  11 active torsions:
REMARK  status: ('A' for Active; 'I' for Inactive)
REMARK    1  A    between atoms: O_1  and  C_12
REMARK    2  A    between atoms: N_5  and  C_16
REMARK    3  A    between atoms: N_6  and  C_26
REMARK    4  A    between atoms: N_7  and  C_27
REMARK    5  A    between atoms: C_9  and  C_19
REMARK    6  A    between atoms: C_11  and  C_21
REMARK    7  A    between atoms: C_15  and  C_20
REMARK    8  A    between atoms: C_20  and  C_22
REMARK    9  A    between atoms: C_20  and  C_23
REMARK   10  A    between atoms: C_24  and  C_25
REMARK   11  A    between atoms: C_26  and  C_27
REMARK                            x       y       z     vdW  Elec       q    Type
REMARK                         _______ _______ _______ _____ _____    ______ ____
ROOT
ATOM      9  C   UNL     1     -16.104   6.913  22.488  0.00  0.00    -0.027 C 
ATOM     10  C   UNL     1     -14.693   6.274  22.711  0.00  0.00    +0.028 C 
ATOM     11  C   UNL     1     -13.776   6.492  21.454  0.00  0.00    +0.012 C 
ATOM     12  C   UNL     1     -14.812   4.804  23.205  0.00  0.00    +0.122 C 
ATOM     13  C   UNL     1     -16.942   6.780  23.782  0.00  0.00    +0.007 C 
ATOM     14  C   UNL     1     -15.934   8.421  22.190  0.00  0.00    +0.009 C 
ATOM     15  C   UNL     1     -15.735   4.663  24.438  0.00  0.00    +0.029 C 
ATOM     16  C   UNL     1     -13.673   8.006  21.119  0.00  0.00    +0.076 C 
ATOM     17  C   UNL     1     -17.093   5.338  24.246  0.00  0.00    +0.007 C 
ATOM     18  C   UNL     1     -15.032   8.696  20.996  0.00  0.00    +0.023 C 
ATOM     19  C   UNL     1     -16.881   6.247  21.323  0.00  0.00    +0.011 C 
ATOM     21  C   UNL     1     -12.361   5.912  21.616  0.00  0.00    +0.010 C 
ENDROOT
BRANCH  16   5
ATOM      3  O   UNL     1     -11.650   9.999  20.691  0.00  0.00    -0.270 OA
ATOM      5  N   UNL     1     -12.930   8.236  19.898  0.00  0.00    -0.308 N 
ATOM     24  C   UNL     1     -11.970   9.227  19.791  0.00  0.00    +0.244 C 
ATOM     36  H   UNL     1     -13.220   7.712  19.080  0.00  0.00    +0.149 HD
BRANCH  24  25
ATOM      8  N   UNL     1     -10.083   9.587  15.966  0.00  0.00    -0.263 NA
ATOM     25  C   UNL     1     -11.316   9.352  18.463  0.00  0.00    +0.040 A 
ATOM     28  C   UNL     1     -11.341   8.287  17.569  0.00  0.00    +0.033 A 
ATOM     29  C   UNL     1     -10.676  10.534  18.109  0.00  0.00    +0.033 A 
ATOM     30  C   UNL     1     -10.715   8.454  16.344  0.00  0.00    +0.111 A 
ATOM     31  C   UNL     1     -10.079  10.600  16.860  0.00  0.00    +0.111 A 
ENDBRANCH  24  25
ENDBRANCH  16   5
BRANCH  12   1
ATOM      1  O   UNL     1     -13.525   4.328  23.602  0.00  0.00    -0.391 OA
ATOM     37  H   UNL     1     -13.524   3.358  23.522  0.00  0.00    +0.210 HD
ENDBRANCH  12   1
BRANCH  15  20
ATOM     20  C   UNL     1     -15.943   3.194  24.829  0.00  0.00    +0.077 C 
ATOM     22  C   UNL     1     -16.828   2.499  23.802  0.00  0.00    +0.017 C 
BRANCH  20  23
ATOM      2  O   UNL     1     -17.596   2.523  26.466  0.00  0.00    -0.276 OA
ATOM      6  N   UNL     1     -15.767   3.760  27.179  0.00  0.00    -0.314 N 
ATOM     23  C   UNL     1     -16.541   3.109  26.230  0.00  0.00    +0.216 C 
ATOM     38  H   UNL     1     -14.918   4.236  26.890  0.00  0.00    +0.149 HD
BRANCH   6  26
ATOM     26  C   UNL     1     -16.129   3.817  28.576  0.00  0.00    +0.119 C 
BRANCH  26  27
ATOM     27  C   UNL     1     -14.957   3.425  29.464  0.00  0.00    +0.103 C 
BRANCH  27   7
ATOM      4  O   UNL     1     -14.590  -0.503  30.897  0.00  0.00    -0.377 OA
ATOM      7  N   UNL     1     -14.816   1.971  29.507  0.00  0.00    -0.297 NA
ATOM     32  C   UNL     1     -15.973   1.353  30.169  0.00  0.00    +0.112 C 
ATOM     33  C   UNL     1     -13.577   1.588  30.199  0.00  0.00    +0.112 C 
ATOM     34  C   UNL     1     -15.797  -0.162  30.214  0.00  0.00    +0.175 C 
ATOM     35  C   UNL     1     -13.457   0.067  30.241  0.00  0.00    +0.175 C 
ENDBRANCH  27   7
ENDBRANCH  26  27
ENDBRANCH   6  26
ENDBRANCH  20  23
ENDBRANCH  15  20
TORSDOF 8
ENDMDL
MODEL 2
REMARK VINA RESULT:      -7.0      2.615     11.519
REMARK  Name = 45361553
REMARK  11 active torsions:
REMARK  status: ('A' for Active; 'I' for Inactive)
REMARK    1  A    between atoms: O_1  and  C_12
REMARK    2  A    between atoms: N_5  and  C_16
REMARK    3  A    between atoms: N_6  and  C_26
REMARK    4  A    between atoms: N_7  and  C_27
REMARK    5  A    between atoms: C_9  and  C_19
REMARK    6  A    between atoms: C_11  and  C_21
REMARK    7  A    between atoms: C_15  and  C_20
REMARK    8  A    between atoms: C_20  and  C_22
REMARK    9  A    between atoms: C_20  and  C_23
REMARK   10  A    between atoms: C_24  and  C_25
REMARK   11  A    between atoms: C_26  and  C_27
REMARK                            x       y       z     vdW  Elec       q    Type
REMARK                         _______ _______ _______ _____ _____    ______ ____
ROOT
ATOM      9  C   UNL     1     -15.256   7.161  20.812  0.00  0.00    -0.027 C 
ATOM     10  C   UNL     1     -14.020   6.267  21.163  0.00  0.00    +0.028 C 
ATOM     11  C   UNL     1     -14.202   5.590  22.568  0.00  0.00    +0.012 C 
ATOM     12  C   UNL     1     -12.688   7.045  20.963  0.00  0.00    +0.122 C 
ATOM     13  C   UNL     1     -15.098   7.722  19.378  0.00  0.00    +0.007 C 
ATOM     14  C   UNL     1     -16.533   6.289  20.837  0.00  0.00    +0.009 C 
ATOM     15  C   UNL     1     -12.580   7.692  19.562  0.00  0.00    +0.029 C 
ATOM     16  C   UNL     1     -15.526   4.777  22.607  0.00  0.00    +0.076 C 
ATOM     17  C   UNL     1     -13.812   8.518  19.191  0.00  0.00    +0.007 C 
ATOM     18  C   UNL     1     -16.748   5.584  22.168  0.00  0.00    +0.023 C 
ATOM     19  C   UNL     1     -15.429   8.348  21.794  0.00  0.00    +0.011 C 
ATOM     21  C   UNL     1     -13.033   4.672  22.965  0.00  0.00    +0.010 C 
ENDROOT
BRANCH  16   5
ATOM      3  O   UNL     1     -16.540   2.160  23.214  0.00  0.00    -0.270 OA
ATOM      5  N   UNL     1     -15.783   4.233  23.924  0.00  0.00    -0.308 N 
ATOM     24  C   UNL     1     -16.275   2.953  24.113  0.00  0.00    +0.244 C 
ATOM     36  H   UNL     1     -15.695   4.870  24.708  0.00  0.00    +0.149 HD
BRANCH  24  25
ATOM      8  N   UNL     1     -16.952   1.803  28.180  0.00  0.00    -0.263 NA
ATOM     25  C   UNL     1     -16.511   2.555  25.525  0.00  0.00    +0.040 A 
ATOM     28  C   UNL     1     -16.436   3.502  26.539  0.00  0.00    +0.033 A 
ATOM     29  C   UNL     1     -16.807   1.232  25.836  0.00  0.00    +0.033 A 
ATOM     30  C   UNL     1     -16.662   3.078  27.840  0.00  0.00    +0.111 A 
ATOM     31  C   UNL     1     -17.016   0.911  27.167  0.00  0.00    +0.111 A 
ENDBRANCH  24  25
ENDBRANCH  16   5
BRANCH  12   1
ATOM      1  O   UNL     1     -11.586   6.144  21.081  0.00  0.00    -0.391 OA
ATOM     37  H   UNL     1     -11.129   6.334  21.919  0.00  0.00    +0.210 HD
ENDBRANCH  12   1
BRANCH  15  20
ATOM     20  C   UNL     1     -11.323   8.561  19.431  0.00  0.00    +0.077 C 
ATOM     22  C   UNL     1     -11.602   9.969  19.943  0.00  0.00    +0.017 C 
BRANCH  20  23
ATOM      2  O   UNL     1     -10.519   7.561  17.377  0.00  0.00    -0.276 OA
ATOM      6  N   UNL     1     -10.850   9.856  17.438  0.00  0.00    -0.314 N 
ATOM     23  C   UNL     1     -10.853   8.579  17.979  0.00  0.00    +0.216 C 
ATOM     38  H   UNL     1     -11.124  10.645  18.015  0.00  0.00    +0.149 HD
BRANCH   6  26
ATOM     26  C   UNL     1     -10.443  10.127  16.078  0.00  0.00    +0.119 C 
BRANCH  26  27
ATOM     27  C   UNL     1     -11.647  10.374  15.182  0.00  0.00    +0.103 C 
BRANCH  27   7
ATOM      4  O   UNL     1     -11.842   6.584  13.388  0.00  0.00    -0.377 OA
ATOM      7  N   UNL     1     -11.759   9.318  14.178  0.00  0.00    -0.297 NA
ATOM     32  C   UNL     1     -12.940   8.481  14.428  0.00  0.00    +0.112 C 
ATOM     33  C   UNL     1     -10.547   8.486  14.160  0.00  0.00    +0.112 C 
ATOM     34  C   UNL     1     -13.028   7.379  13.376  0.00  0.00    +0.175 C 
ATOM     35  C   UNL     1     -10.692   7.385  13.113  0.00  0.00    +0.175 C 
ENDBRANCH  27   7
ENDBRANCH  26  27
ENDBRANCH   6  26
ENDBRANCH  20  23
ENDBRANCH  15  20
TORSDOF 8
ENDMDL
MODEL 3
REMARK VINA RESULT:      -6.8     18.712     22.006
REMARK  Name = 45361553
REMARK  11 active torsions:
REMARK  status: ('A' for Active; 'I' for Inactive)
REMARK    1  A    between atoms: O_1  and  C_12
REMARK    2  A    between atoms: N_5  and  C_16
REMARK    3  A    between atoms: N_6  and  C_26
REMARK    4  A    between atoms: N_7  and  C_27
REMARK    5  A    between atoms: C_9  and  C_19
REMARK    6  A    between atoms: C_11  and  C_21
REMARK    7  A    between atoms: C_15  and  C_20
REMARK    8  A    between atoms: C_20  and  C_22
REMARK    9  A    between atoms: C_20  and  C_23
REMARK   10  A    between atoms: C_24  and  C_25
REMARK   11  A    between atoms: C_26  and  C_27
REMARK                            x       y       z     vdW  Elec       q    Type
REMARK                         _______ _______ _______ _____ _____    ______ ____
ROOT
ATOM      9  C   UNL     1      -4.780 -10.999  16.854  0.00  0.00    -0.027 C 
ATOM     10  C   UNL     1      -5.567 -10.363  15.660  0.00  0.00    +0.028 C 
ATOM     11  C   UNL     1      -7.117 -10.469  15.892  0.00  0.00    +0.012 C 
ATOM     12  C   UNL     1      -5.057 -10.909  14.295  0.00  0.00    +0.122 C 
ATOM     13  C   UNL     1      -3.262 -10.778  16.648  0.00  0.00    +0.007 C 
ATOM     14  C   UNL     1      -5.186 -10.283  18.163  0.00  0.00    +0.009 C 
ATOM     15  C   UNL     1      -3.524 -10.780  14.138  0.00  0.00    +0.029 C 
ATOM     16  C   UNL     1      -7.504  -9.812  17.247  0.00  0.00    +0.076 C 
ATOM     17  C   UNL     1      -2.753 -11.346  15.330  0.00  0.00    +0.007 C 
ATOM     18  C   UNL     1      -6.684 -10.329  18.429  0.00  0.00    +0.023 C 
ATOM     19  C   UNL     1      -5.047 -12.519  16.999  0.00  0.00    +0.011 C 
ATOM     21  C   UNL     1      -7.953  -9.836  14.767  0.00  0.00    +0.010 C 
ENDROOT
BRANCH  16   5
ATOM      3  O   UNL     1      -9.497  -7.754  17.432  0.00  0.00    -0.270 OA
ATOM      5  N   UNL     1      -8.908  -9.993  17.549  0.00  0.00    -0.308 N 
ATOM     24  C   UNL     1      -9.794  -8.932  17.616  0.00  0.00    +0.244 C 
ATOM     36  H   UNL     1      -9.202 -10.925  17.823  0.00  0.00    +0.149 HD
BRANCH  24  25
ATOM      8  N   UNL     1     -13.832  -9.941  18.614  0.00  0.00    -0.263 NA
ATOM     25  C   UNL     1     -11.196  -9.281  17.963  0.00  0.00    +0.040 A 
ATOM     28  C   UNL     1     -11.478  -9.921  19.164  0.00  0.00    +0.033 A 
ATOM     29  C   UNL     1     -12.230  -8.969  17.087  0.00  0.00    +0.033 A 
ATOM     30  C   UNL     1     -12.802 -10.227  19.440  0.00  0.00    +0.111 A 
ATOM     31  C   UNL     1     -13.519  -9.318  17.456  0.00  0.00    +0.111 A 
ENDBRANCH  24  25
ENDBRANCH  16   5
BRANCH  12   1
ATOM      1  O   UNL     1      -5.641 -10.155  13.231  0.00  0.00    -0.391 OA
ATOM     37  H   UNL     1      -5.494 -10.641  12.401  0.00  0.00    +0.210 HD
ENDBRANCH  12   1
BRANCH  15  20
ATOM     20  C   UNL     1      -3.027 -11.441  12.846  0.00  0.00    +0.077 C 
ATOM     22  C   UNL     1      -1.884 -12.400  13.154  0.00  0.00    +0.017 C 
BRANCH  20  23
ATOM      2  O   UNL     1      -1.458  -9.922  11.799  0.00  0.00    -0.276 OA
ATOM      6  N   UNL     1      -3.641  -9.975  11.016  0.00  0.00    -0.314 N 
ATOM     23  C   UNL     1      -2.601 -10.370  11.845  0.00  0.00    +0.216 C 
ATOM     38  H   UNL     1      -4.561 -10.386  11.137  0.00  0.00    +0.149 HD
BRANCH   6  26
ATOM     26  C   UNL     1      -3.482  -8.973   9.988  0.00  0.00    +0.119 C 
BRANCH  26  27
ATOM     27  C   UNL     1      -4.452  -9.204   8.839  0.00  0.00    +0.103 C 
BRANCH  27   7
ATOM      4  O   UNL     1      -8.589  -9.858   9.112  0.00  0.00    -0.377 OA
ATOM      7  N   UNL     1      -5.766  -9.587   9.352  0.00  0.00    -0.297 NA
ATOM     32  C   UNL     1      -6.369 -10.634   8.516  0.00  0.00    +0.112 C 
ATOM     33  C   UNL     1      -6.658  -8.422   9.422  0.00  0.00    +0.112 C 
ATOM     34  C   UNL     1      -7.743 -11.007   9.064  0.00  0.00    +0.175 C 
ATOM     35  C   UNL     1      -8.026  -8.848   9.949  0.00  0.00    +0.175 C 
ENDBRANCH  27   7
ENDBRANCH  26  27
ENDBRANCH   6  26
ENDBRANCH  20  23
ENDBRANCH  15  20
TORSDOF 8
ENDMDL
MODEL 4
REMARK VINA RESULT:      -6.8     27.649     31.778
REMARK  Name = 45361553
REMARK  11 active torsions:
REMARK  status: ('A' for Active; 'I' for Inactive)
REMARK    1  A    between atoms: O_1  and  C_12
REMARK    2  A    between atoms: N_5  and  C_16
REMARK    3  A    between atoms: N_6  and  C_26
REMARK    4  A    between atoms: N_7  and  C_27
REMARK    5  A    between atoms: C_9  and  C_19
REMARK    6  A    between atoms: C_11  and  C_21
REMARK    7  A    between atoms: C_15  and  C_20
REMARK    8  A    between atoms: C_20  and  C_22
REMARK    9  A    between atoms: C_20  and  C_23
REMARK   10  A    between atoms: C_24  and  C_25
REMARK   11  A    between atoms: C_26  and  C_27
REMARK                            x       y       z     vdW  Elec       q    Type
REMARK                         _______ _______ _______ _____ _____    ______ ____
ROOT
ATOM      9  C   UNL     1      13.870   7.670  20.932  0.00  0.00    -0.027 C 
ATOM     10  C   UNL     1      14.800   8.662  21.706  0.00  0.00    +0.028 C 
ATOM     11  C   UNL     1      14.159  10.095  21.772  0.00  0.00    +0.012 C 
ATOM     12  C   UNL     1      16.258   8.607  21.163  0.00  0.00    +0.122 C 
ATOM     13  C   UNL     1      14.475   6.247  20.982  0.00  0.00    +0.007 C 
ATOM     14  C   UNL     1      12.492   7.620  21.633  0.00  0.00    +0.009 C 
ATOM     15  C   UNL     1      16.822   7.168  21.119  0.00  0.00    +0.029 C 
ATOM     16  C   UNL     1      12.743  10.022  22.410  0.00  0.00    +0.076 C 
ATOM     17  C   UNL     1      15.887   6.183  20.416  0.00  0.00    +0.007 C 
ATOM     18  C   UNL     1      11.832   8.986  21.750  0.00  0.00    +0.023 C 
ATOM     19  C   UNL     1      13.673   8.075  19.448  0.00  0.00    +0.011 C 
ATOM     21  C   UNL     1      15.010  11.116  22.545  0.00  0.00    +0.010 C 
ENDROOT
BRANCH  16   5
ATOM      3  O   UNL     1      11.051  11.120  24.453  0.00  0.00    -0.270 OA
ATOM      5  N   UNL     1      12.075  11.305  22.381  0.00  0.00    -0.308 N 
ATOM     24  C   UNL     1      11.276  11.748  23.421  0.00  0.00    +0.244 C 
ATOM     36  H   UNL     1      12.124  11.828  21.513  0.00  0.00    +0.149 HD
BRANCH  24  25
ATOM      8  N   UNL     1       9.445  15.576  22.863  0.00  0.00    -0.263 NA
ATOM     25  C   UNL     1      10.640  13.076  23.227  0.00  0.00    +0.040 A 
ATOM     28  C   UNL     1      10.505  13.605  21.948  0.00  0.00    +0.033 A 
ATOM     29  C   UNL     1      10.177  13.795  24.324  0.00  0.00    +0.033 A 
ATOM     30  C   UNL     1       9.906  14.849  21.822  0.00  0.00    +0.111 A 
ATOM     31  C   UNL     1       9.593  15.029  24.090  0.00  0.00    +0.111 A 
ENDBRANCH  24  25
ENDBRANCH  16   5
BRANCH  12   1
ATOM      1  O   UNL     1      17.116   9.355  22.025  0.00  0.00    -0.391 OA
ATOM     37  H   UNL     1      16.660  10.181  22.263  0.00  0.00    +0.210 HD
ENDBRANCH  12   1
BRANCH  15  20
ATOM     20  C   UNL     1      18.206   7.119  20.461  0.00  0.00    +0.077 C 
ATOM     22  C   UNL     1      18.225   6.070  19.356  0.00  0.00    +0.017 C 
BRANCH  20  23
ATOM      2  O   UNL     1      19.415   7.533  22.518  0.00  0.00    -0.276 OA
ATOM      6  N   UNL     1      20.044   5.726  21.207  0.00  0.00    -0.314 N 
ATOM     23  C   UNL     1      19.273   6.837  21.515  0.00  0.00    +0.216 C 
ATOM     38  H   UNL     1      19.870   5.220  20.344  0.00  0.00    +0.149 HD
BRANCH   6  26
ATOM     26  C   UNL     1      21.119   5.262  22.053  0.00  0.00    +0.119 C 
BRANCH  26  27
ATOM     27  C   UNL     1      22.476   5.624  21.469  0.00  0.00    +0.103 C 
BRANCH  27   7
ATOM      4  O   UNL     1      24.970   2.417  20.416  0.00  0.00    -0.377 OA
ATOM      7  N   UNL     1      23.041   4.484  20.751  0.00  0.00    -0.297 NA
ATOM     32  C   UNL     1      23.032   3.280  21.594  0.00  0.00    +0.112 C 
ATOM     33  C   UNL     1      24.411   4.776  20.305  0.00  0.00    +0.112 C 
ATOM     34  C   UNL     1      23.639   2.107  20.829  0.00  0.00    +0.175 C 
ATOM     35  C   UNL     1      24.984   3.567  19.570  0.00  0.00    +0.175 C 
ENDBRANCH  27   7
ENDBRANCH  26  27
ENDBRANCH   6  26
ENDBRANCH  20  23
ENDBRANCH  15  20
TORSDOF 8
ENDMDL
MODEL 5
REMARK VINA RESULT:      -6.8     27.537     32.076
REMARK  Name = 45361553
REMARK  11 active torsions:
REMARK  status: ('A' for Active; 'I' for Inactive)
REMARK    1  A    between atoms: O_1  and  C_12
REMARK    2  A    between atoms: N_5  and  C_16
REMARK    3  A    between atoms: N_6  and  C_26
REMARK    4  A    between atoms: N_7  and  C_27
REMARK    5  A    between atoms: C_9  and  C_19
REMARK    6  A    between atoms: C_11  and  C_21
REMARK    7  A    between atoms: C_15  and  C_20
REMARK    8  A    between atoms: C_20  and  C_22
REMARK    9  A    between atoms: C_20  and  C_23
REMARK   10  A    between atoms: C_24  and  C_25
REMARK   11  A    between atoms: C_26  and  C_27
REMARK                            x       y       z     vdW  Elec       q    Type
REMARK                         _______ _______ _______ _____ _____    ______ ____
ROOT
ATOM      9  C   UNL     1       9.465   6.115   6.066  0.00  0.00    -0.027 C 
ATOM     10  C   UNL     1      10.369   7.301   5.592  0.00  0.00    +0.028 C 
ATOM     11  C   UNL     1       9.817   8.672   6.125  0.00  0.00    +0.012 C 
ATOM     12  C   UNL     1      10.627   7.234   4.059  0.00  0.00    +0.122 C 
ATOM     13  C   UNL     1      10.096   4.774   5.621  0.00  0.00    +0.007 C 
ATOM     14  C   UNL     1       9.402   6.115   7.611  0.00  0.00    +0.009 C 
ATOM     15  C   UNL     1      11.160   5.856   3.604  0.00  0.00    +0.029 C 
ATOM     16  C   UNL     1       9.687   8.635   7.673  0.00  0.00    +0.076 C 
ATOM     17  C   UNL     1      10.313   4.690   4.116  0.00  0.00    +0.007 C 
ATOM     18  C   UNL     1       8.899   7.430   8.188  0.00  0.00    +0.023 C 
ATOM     19  C   UNL     1       8.025   6.200   5.497  0.00  0.00    +0.011 C 
ATOM     21  C   UNL     1      10.676   9.881   5.718  0.00  0.00    +0.010 C 
ENDROOT
BRANCH  16   5
ATOM      3  O   UNL     1      10.951  10.651   9.281  0.00  0.00    -0.270 OA
ATOM      5  N   UNL     1       9.073   9.840   8.189  0.00  0.00    -0.308 N 
ATOM     24  C   UNL     1       9.770  10.755   8.958  0.00  0.00    +0.244 C 
ATOM     36  H   UNL     1       8.072   9.936   8.058  0.00  0.00    +0.149 HD
BRANCH  24  25
ATOM      8  N   UNL     1       7.519  14.129  10.326  0.00  0.00    -0.263 NA
ATOM     25  C   UNL     1       8.990  11.926   9.434  0.00  0.00    +0.040 A 
ATOM     28  C   UNL     1       8.644  12.037  10.776  0.00  0.00    +0.033 A 
ATOM     29  C   UNL     1       8.602  12.916   8.537  0.00  0.00    +0.033 A 
ATOM     30  C   UNL     1       7.913  13.148  11.167  0.00  0.00    +0.111 A 
ATOM     31  C   UNL     1       7.873  13.987   9.029  0.00  0.00    +0.111 A 
ENDBRANCH  24  25
ENDBRANCH  16   5
BRANCH  12   1
ATOM      1  O   UNL     1      11.620   8.195   3.700  0.00  0.00    -0.391 OA
ATOM     37  H   UNL     1      12.353   7.724   3.266  0.00  0.00    +0.210 HD
ENDBRANCH  12   1
BRANCH  15  20
ATOM     20  C   UNL     1      11.283   5.768   2.078  0.00  0.00    +0.077 C 
ATOM     22  C   UNL     1      10.611   4.498   1.570  0.00  0.00    +0.017 C 
BRANCH  20  23
ATOM      2  O   UNL     1      13.145   5.493   0.553  0.00  0.00    -0.276 OA
ATOM      6  N   UNL     1      13.571   6.276   2.695  0.00  0.00    -0.314 N 
ATOM     23  C   UNL     1      12.753   5.822   1.671  0.00  0.00    +0.216 C 
ATOM     38  H   UNL     1      13.164   6.508   3.595  0.00  0.00    +0.149 HD
BRANCH   6  26
ATOM     26  C   UNL     1      15.002   6.413   2.549  0.00  0.00    +0.119 C 
BRANCH  26  27
ATOM     27  C   UNL     1      15.648   6.858   3.852  0.00  0.00    +0.103 C 
BRANCH  27   7
ATOM      4  O   UNL     1      14.210   9.666   6.621  0.00  0.00    -0.377 OA
ATOM      7  N   UNL     1      14.755   7.757   4.581  0.00  0.00    -0.297 NA
ATOM     32  C   UNL     1      15.212   9.149   4.473  0.00  0.00    +0.112 C 
ATOM     33  C   UNL     1      14.663   7.366   5.995  0.00  0.00    +0.112 C 
ATOM     34  C   UNL     1      14.273  10.065   5.252  0.00  0.00    +0.175 C 
ATOM     35  C   UNL     1      13.736   8.325   6.737  0.00  0.00    +0.175 C 
ENDBRANCH  27   7
ENDBRANCH  26  27
ENDBRANCH   6  26
ENDBRANCH  20  23
ENDBRANCH  15  20
TORSDOF 8
ENDMDL
MODEL 6
REMARK VINA RESULT:      -6.7     19.892     21.735
REMARK  Name = 45361553
REMARK  11 active torsions:
REMARK  status: ('A' for Active; 'I' for Inactive)
REMARK    1  A    between atoms: O_1  and  C_12
REMARK    2  A    between atoms: N_5  and  C_16
REMARK    3  A    between atoms: N_6  and  C_26
REMARK    4  A    between atoms: N_7  and  C_27
REMARK    5  A    between atoms: C_9  and  C_19
REMARK    6  A    between atoms: C_11  and  C_21
REMARK    7  A    between atoms: C_15  and  C_20
REMARK    8  A    between atoms: C_20  and  C_22
REMARK    9  A    between atoms: C_20  and  C_23
REMARK   10  A    between atoms: C_24  and  C_25
REMARK   11  A    between atoms: C_26  and  C_27
REMARK                            x       y       z     vdW  Elec       q    Type
REMARK                         _______ _______ _______ _____ _____    ______ ____
ROOT
ATOM      9  C   UNL     1      -3.135 -11.210  11.728  0.00  0.00    -0.027 C 
ATOM     10  C   UNL     1      -4.485 -10.802  12.407  0.00  0.00    +0.028 C 
ATOM     11  C   UNL     1      -5.308  -9.837  11.480  0.00  0.00    +0.012 C 
ATOM     12  C   UNL     1      -4.253 -10.296  13.860  0.00  0.00    +0.122 C 
ATOM     13  C   UNL     1      -2.403 -12.245  12.614  0.00  0.00    +0.007 C 
ATOM     14  C   UNL     1      -3.438 -11.884  10.370  0.00  0.00    +0.009 C 
ATOM     15  C   UNL     1      -3.430 -11.290  14.713  0.00  0.00    +0.029 C 
ATOM     16  C   UNL     1      -5.542 -10.495  10.091  0.00  0.00    +0.076 C 
ATOM     17  C   UNL     1      -2.140 -11.738  14.026  0.00  0.00    +0.007 C 
ATOM     18  C   UNL     1      -4.259 -11.006   9.436  0.00  0.00    +0.023 C 
ATOM     19  C   UNL     1      -2.195  -9.999  11.497  0.00  0.00    +0.011 C 
ATOM     21  C   UNL     1      -6.662  -9.417  12.076  0.00  0.00    +0.010 C 
ENDROOT
BRANCH  16   5
ATOM      3  O   UNL     1      -7.891 -11.037   8.532  0.00  0.00    -0.270 OA
ATOM      5  N   UNL     1      -6.197  -9.589   9.172  0.00  0.00    -0.308 N 
ATOM     24  C   UNL     1      -7.331  -9.946   8.463  0.00  0.00    +0.244 C 
ATOM     36  H   UNL     1      -5.726  -8.712   8.979  0.00  0.00    +0.149 HD
BRANCH  24  25
ATOM      8  N   UNL     1      -8.873  -6.967   5.805  0.00  0.00    -0.263 NA
ATOM     25  C   UNL     1      -7.868  -8.913   7.540  0.00  0.00    +0.040 A 
ATOM     28  C   UNL     1      -7.617  -8.999   6.175  0.00  0.00    +0.033 A 
ATOM     29  C   UNL     1      -8.621  -7.856   8.038  0.00  0.00    +0.033 A 
ATOM     30  C   UNL     1      -8.138  -8.008   5.357  0.00  0.00    +0.111 A 
ATOM     31  C   UNL     1      -9.096  -6.917   7.137  0.00  0.00    +0.111 A 
ENDBRANCH  24  25
ENDBRANCH  16   5
BRANCH  12   1
ATOM      1  O   UNL     1      -5.512 -10.139  14.517  0.00  0.00    -0.391 OA
ATOM     37  H   UNL     1      -5.363  -9.639  15.339  0.00  0.00    +0.210 HD
ENDBRANCH  12   1
BRANCH  15  20
ATOM     20  C   UNL     1      -3.102 -10.717  16.097  0.00  0.00    +0.077 C 
ATOM     22  C   UNL     1      -1.594 -10.711  16.318  0.00  0.00    +0.017 C 
BRANCH  20  23
ATOM      2  O   UNL     1      -3.511 -11.462  18.364  0.00  0.00    -0.276 OA
ATOM      6  N   UNL     1      -4.840 -12.308  16.662  0.00  0.00    -0.314 N 
ATOM     23  C   UNL     1      -3.820 -11.521  17.176  0.00  0.00    +0.216 C 
ATOM     38  H   UNL     1      -5.014 -12.311  15.662  0.00  0.00    +0.149 HD
BRANCH   6  26
ATOM     26  C   UNL     1      -5.663 -13.160  17.489  0.00  0.00    +0.119 C 
BRANCH  26  27
ATOM     27  C   UNL     1      -6.874 -12.407  18.020  0.00  0.00    +0.103 C 
BRANCH  27   7
ATOM      4  O   UNL     1      -9.251  -9.632  15.955  0.00  0.00    -0.377 OA
ATOM      7  N   UNL     1      -7.311 -11.401  17.054  0.00  0.00    -0.297 NA
ATOM     32  C   UNL     1      -7.683 -10.152  17.733  0.00  0.00    +0.112 C 
ATOM     33  C   UNL     1      -8.442 -11.899  16.259  0.00  0.00    +0.112 C 
ATOM     34  C   UNL     1      -8.148  -9.123  16.706  0.00  0.00    +0.175 C 
ATOM     35  C   UNL     1      -8.887 -10.828  15.267  0.00  0.00    +0.175 C 
ENDBRANCH  27   7
ENDBRANCH  26  27
ENDBRANCH   6  26
ENDBRANCH  20  23
ENDBRANCH  15  20
TORSDOF 8
ENDMDL
MODEL 7
REMARK VINA RESULT:      -6.6     19.882     21.578
REMARK  Name = 45361553
REMARK  11 active torsions:
REMARK  status: ('A' for Active; 'I' for Inactive)
REMARK    1  A    between atoms: O_1  and  C_12
REMARK    2  A    between atoms: N_5  and  C_16
REMARK    3  A    between atoms: N_6  and  C_26
REMARK    4  A    between atoms: N_7  and  C_27
REMARK    5  A    between atoms: C_9  and  C_19
REMARK    6  A    between atoms: C_11  and  C_21
REMARK    7  A    between atoms: C_15  and  C_20
REMARK    8  A    between atoms: C_20  and  C_22
REMARK    9  A    between atoms: C_20  and  C_23
REMARK   10  A    between atoms: C_24  and  C_25
REMARK   11  A    between atoms: C_26  and  C_27
REMARK                            x       y       z     vdW  Elec       q    Type
REMARK                         _______ _______ _______ _____ _____    ______ ____
ROOT
ATOM      9  C   UNL     1      -3.257 -11.548  11.890  0.00  0.00    -0.027 C 
ATOM     10  C   UNL     1      -4.585 -10.948  12.459  0.00  0.00    +0.028 C 
ATOM     11  C   UNL     1      -5.268 -10.004  11.406  0.00  0.00    +0.012 C 
ATOM     12  C   UNL     1      -4.364 -10.328  13.869  0.00  0.00    +0.122 C 
ATOM     13  C   UNL     1      -2.669 -12.559  12.904  0.00  0.00    +0.007 C 
ATOM     14  C   UNL     1      -3.570 -12.319  10.586  0.00  0.00    +0.009 C 
ATOM     15  C   UNL     1      -3.681 -11.309  14.850  0.00  0.00    +0.029 C 
ATOM     16  C   UNL     1      -5.510 -10.768  10.074  0.00  0.00    +0.076 C 
ATOM     17  C   UNL     1      -2.415 -11.944  14.274  0.00  0.00    +0.007 C 
ATOM     18  C   UNL     1      -4.258 -11.461   9.535  0.00  0.00    +0.023 C 
ATOM     19  C   UNL     1      -2.191 -10.461  11.596  0.00  0.00    +0.011 C 
ATOM     21  C   UNL     1      -6.597  -9.400  11.891  0.00  0.00    +0.010 C 
ENDROOT
BRANCH  16   5
ATOM      3  O   UNL     1      -7.450 -11.453   8.071  0.00  0.00    -0.270 OA
ATOM      5  N   UNL     1      -6.032  -9.897   9.043  0.00  0.00    -0.308 N 
ATOM     24  C   UNL     1      -6.970 -10.323   8.119  0.00  0.00    +0.244 C 
ATOM     36  H   UNL     1      -5.599  -8.985   8.951  0.00  0.00    +0.149 HD
BRANCH  24  25
ATOM      8  N   UNL     1      -8.168  -7.425   5.205  0.00  0.00    -0.263 NA
ATOM     25  C   UNL     1      -7.385  -9.316   7.108  0.00  0.00    +0.040 A 
ATOM     28  C   UNL     1      -8.303  -8.328   7.444  0.00  0.00    +0.033 A 
ATOM     29  C   UNL     1      -6.858  -9.360   5.822  0.00  0.00    +0.033 A 
ATOM     30  C   UNL     1      -8.659  -7.414   6.464  0.00  0.00    +0.111 A 
ATOM     31  C   UNL     1      -7.278  -8.401   4.916  0.00  0.00    +0.111 A 
ENDBRANCH  24  25
ENDBRANCH  16   5
BRANCH  12   1
ATOM      1  O   UNL     1      -5.627  -9.989  14.444  0.00  0.00    -0.391 OA
ATOM     37  H   UNL     1      -6.324 -10.404  13.907  0.00  0.00    +0.210 HD
ENDBRANCH  12   1
BRANCH  15  20
ATOM     20  C   UNL     1      -3.354 -10.639  16.190  0.00  0.00    +0.077 C 
ATOM     22  C   UNL     1      -1.852 -10.677  16.443  0.00  0.00    +0.017 C 
BRANCH  20  23
ATOM      2  O   UNL     1      -3.576 -11.787  18.311  0.00  0.00    -0.276 OA
ATOM      6  N   UNL     1      -5.493 -11.353  17.079  0.00  0.00    -0.314 N 
ATOM     23  C   UNL     1      -4.127 -11.322  17.315  0.00  0.00    +0.216 C 
ATOM     38  H   UNL     1      -5.861 -10.961  16.218  0.00  0.00    +0.149 HD
BRANCH   6  26
ATOM     26  C   UNL     1      -6.432 -11.948  18.001  0.00  0.00    +0.119 C 
BRANCH  26  27
ATOM     27  C   UNL     1      -6.939 -10.926  19.008  0.00  0.00    +0.103 C 
BRANCH  27   7
ATOM      4  O   UNL     1     -10.494 -12.916  20.016  0.00  0.00    -0.377 OA
ATOM      7  N   UNL     1      -8.046 -11.482  19.782  0.00  0.00    -0.297 NA
ATOM     32  C   UNL     1      -8.096 -12.944  19.649  0.00  0.00    +0.112 C 
ATOM     33  C   UNL     1      -9.325 -10.894  19.359  0.00  0.00    +0.112 C 
ATOM     34  C   UNL     1      -9.267 -13.499  20.454  0.00  0.00    +0.175 C 
ATOM     35  C   UNL     1     -10.467 -11.497  20.173  0.00  0.00    +0.175 C 
ENDBRANCH  27   7
ENDBRANCH  26  27
ENDBRANCH   6  26
ENDBRANCH  20  23
ENDBRANCH  15  20
TORSDOF 8
ENDMDL
MODEL 8
REMARK VINA RESULT:      -6.6      6.443     10.282
REMARK  Name = 45361553
REMARK  11 active torsions:
REMARK  status: ('A' for Active; 'I' for Inactive)
REMARK    1  A    between atoms: O_1  and  C_12
REMARK    2  A    between atoms: N_5  and  C_16
REMARK    3  A    between atoms: N_6  and  C_26
REMARK    4  A    between atoms: N_7  and  C_27
REMARK    5  A    between atoms: C_9  and  C_19
REMARK    6  A    between atoms: C_11  and  C_21
REMARK    7  A    between atoms: C_15  and  C_20
REMARK    8  A    between atoms: C_20  and  C_22
REMARK    9  A    between atoms: C_20  and  C_23
REMARK   10  A    between atoms: C_24  and  C_25
REMARK   11  A    between atoms: C_26  and  C_27
REMARK                            x       y       z     vdW  Elec       q    Type
REMARK                         _______ _______ _______ _____ _____    ______ ____
ROOT
ATOM      9  C   UNL     1     -14.850   1.814  31.244  0.00  0.00    -0.027 C 
ATOM     10  C   UNL     1     -16.130   2.690  31.032  0.00  0.00    +0.028 C 
ATOM     11  C   UNL     1     -16.409   2.911  29.502  0.00  0.00    +0.012 C 
ATOM     12  C   UNL     1     -16.076   3.983  31.896  0.00  0.00    +0.122 C 
ATOM     13  C   UNL     1     -14.668   1.521  32.753  0.00  0.00    +0.007 C 
ATOM     14  C   UNL     1     -15.041   0.460  30.522  0.00  0.00    +0.009 C 
ATOM     15  C   UNL     1     -15.790   3.692  33.387  0.00  0.00    +0.029 C 
ATOM     16  C   UNL     1     -16.524   1.544  28.772  0.00  0.00    +0.076 C 
ATOM     17  C   UNL     1     -14.576   2.786  33.596  0.00  0.00    +0.007 C 
ATOM     18  C   UNL     1     -15.342   0.611  29.038  0.00  0.00    +0.023 C 
ATOM     19  C   UNL     1     -13.566   2.499  30.711  0.00  0.00    +0.011 C 
ATOM     21  C   UNL     1     -17.671   3.743  29.220  0.00  0.00    +0.010 C 
ENDROOT
BRANCH  16   5
ATOM      3  O   UNL     1     -18.158  -0.035  27.017  0.00  0.00    -0.270 OA
ATOM      5  N   UNL     1     -16.666   1.709  27.342  0.00  0.00    -0.308 N 
ATOM     24  C   UNL     1     -17.483   0.893  26.579  0.00  0.00    +0.244 C 
ATOM     36  H   UNL     1     -16.052   2.382  26.895  0.00  0.00    +0.149 HD
BRANCH  24  25
ATOM      8  N   UNL     1     -17.531   1.708  22.377  0.00  0.00    -0.263 NA
ATOM     25  C   UNL     1     -17.498   1.175  25.121  0.00  0.00    +0.040 A 
ATOM     28  C   UNL     1     -16.916   2.338  24.629  0.00  0.00    +0.033 A 
ATOM     29  C   UNL     1     -18.096   0.278  24.242  0.00  0.00    +0.033 A 
ATOM     30  C   UNL     1     -16.959   2.556  23.260  0.00  0.00    +0.111 A 
ATOM     31  C   UNL     1     -18.086   0.588  22.892  0.00  0.00    +0.111 A 
ENDBRANCH  24  25
ENDBRANCH  16   5
BRANCH  12   1
ATOM      1  O   UNL     1     -17.341   4.644  31.844  0.00  0.00    -0.391 OA
ATOM     37  H   UNL     1     -17.940   4.107  31.297  0.00  0.00    +0.210 HD
ENDBRANCH  12   1
BRANCH  15  20
ATOM     20  C   UNL     1     -15.612   4.982  34.196  0.00  0.00    +0.077 C 
ATOM     22  C   UNL     1     -16.957   5.456  34.732  0.00  0.00    +0.017 C 
BRANCH  20  23
ATOM      2  O   UNL     1     -13.783   5.966  32.950  0.00  0.00    -0.276 OA
ATOM      6  N   UNL     1     -15.803   7.103  33.038  0.00  0.00    -0.314 N 
ATOM     23  C   UNL     1     -14.949   6.050  33.331  0.00  0.00    +0.216 C 
ATOM     38  H   UNL     1     -16.747   7.100  33.412  0.00  0.00    +0.149 HD
BRANCH   6  26
ATOM     26  C   UNL     1     -15.402   8.234  32.234  0.00  0.00    +0.119 C 
BRANCH  26  27
ATOM     27  C   UNL     1     -14.883   9.370  33.103  0.00  0.00    +0.103 C 
BRANCH  27   7
ATOM      4  O   UNL     1     -10.831   8.977  32.081  0.00  0.00    -0.377 OA
ATOM      7  N   UNL     1     -13.505   9.696  32.743  0.00  0.00    -0.297 NA
ATOM     32  C   UNL     1     -13.162   9.136  31.428  0.00  0.00    +0.112 C 
ATOM     33  C   UNL     1     -12.568   9.199  33.761  0.00  0.00    +0.112 C 
ATOM     34  C   UNL     1     -11.716   9.478  31.080  0.00  0.00    +0.175 C 
ATOM     35  C   UNL     1     -11.136   9.540  33.357  0.00  0.00    +0.175 C 
ENDBRANCH  27   7
ENDBRANCH  26  27
ENDBRANCH   6  26
ENDBRANCH  20  23
ENDBRANCH  15  20
TORSDOF 8
ENDMDL
MODEL 9
REMARK VINA RESULT:      -6.6     29.078     33.588
REMARK  Name = 45361553
REMARK  11 active torsions:
REMARK  status: ('A' for Active; 'I' for Inactive)
REMARK    1  A    between atoms: O_1  and  C_12
REMARK    2  A    between atoms: N_5  and  C_16
REMARK    3  A    between atoms: N_6  and  C_26
REMARK    4  A    between atoms: N_7  and  C_27
REMARK    5  A    between atoms: C_9  and  C_19
REMARK    6  A    between atoms: C_11  and  C_21
REMARK    7  A    between atoms: C_15  and  C_20
REMARK    8  A    between atoms: C_20  and  C_22
REMARK    9  A    between atoms: C_20  and  C_23
REMARK   10  A    between atoms: C_24  and  C_25
REMARK   11  A    between atoms: C_26  and  C_27
REMARK                            x       y       z     vdW  Elec       q    Type
REMARK                         _______ _______ _______ _____ _____    ______ ____
ROOT
ATOM      9  C   UNL     1      19.663   9.920  22.211  0.00  0.00    -0.027 C 
ATOM     10  C   UNL     1      18.779   8.689  21.820  0.00  0.00    +0.028 C 
ATOM     11  C   UNL     1      19.650   7.565  21.152  0.00  0.00    +0.012 C 
ATOM     12  C   UNL     1      17.524   9.132  21.012  0.00  0.00    +0.122 C 
ATOM     13  C   UNL     1      18.799  10.958  22.966  0.00  0.00    +0.007 C 
ATOM     14  C   UNL     1      20.782   9.451  23.171  0.00  0.00    +0.009 C 
ATOM     15  C   UNL     1      16.721  10.244  21.724  0.00  0.00    +0.029 C 
ATOM     16  C   UNL     1      20.815   7.155  22.095  0.00  0.00    +0.076 C 
ATOM     17  C   UNL     1      17.592  11.422  22.162  0.00  0.00    +0.007 C 
ATOM     18  C   UNL     1      21.644   8.341  22.588  0.00  0.00    +0.023 C 
ATOM     19  C   UNL     1      20.304  10.607  20.979  0.00  0.00    +0.011 C 
ATOM     21  C   UNL     1      18.846   6.311  20.766  0.00  0.00    +0.010 C 
ENDROOT
BRANCH  16   5
ATOM      3  O   UNL     1      21.701   4.652  23.187  0.00  0.00    -0.270 OA
ATOM      5  N   UNL     1      21.706   6.204  21.465  0.00  0.00    -0.308 N 
ATOM     24  C   UNL     1      22.075   5.018  22.076  0.00  0.00    +0.244 C 
ATOM     36  H   UNL     1      22.143   6.491  20.596  0.00  0.00    +0.149 HD
BRANCH  24  25
ATOM      8  N   UNL     1      24.792   2.554  19.869  0.00  0.00    -0.263 NA
ATOM     25  C   UNL     1      23.017   4.163  21.309  0.00  0.00    +0.040 A 
ATOM     28  C   UNL     1      23.037   2.788  21.516  0.00  0.00    +0.033 A 
ATOM     29  C   UNL     1      23.883   4.734  20.384  0.00  0.00    +0.033 A 
ATOM     30  C   UNL     1      23.936   2.035  20.777  0.00  0.00    +0.111 A 
ATOM     31  C   UNL     1      24.744   3.894  19.696  0.00  0.00    +0.111 A 
ENDBRANCH  24  25
ENDBRANCH  16   5
BRANCH  12   1
ATOM      1  O   UNL     1      16.639   8.022  20.861  0.00  0.00    -0.391 OA
ATOM     37  H   UNL     1      15.772   8.275  21.224  0.00  0.00    +0.210 HD
ENDBRANCH  12   1
BRANCH  15  20
ATOM     20  C   UNL     1      15.565  10.757  20.855  0.00  0.00    +0.077 C 
ATOM     22  C   UNL     1      15.346  12.245  21.100  0.00  0.00    +0.017 C 
BRANCH  20  23
ATOM      2  O   UNL     1      14.194   9.211  22.117  0.00  0.00    -0.276 OA
ATOM      6  N   UNL     1      13.313  10.157  20.191  0.00  0.00    -0.314 N 
ATOM     23  C   UNL     1      14.302   9.953  21.143  0.00  0.00    +0.216 C 
ATOM     38  H   UNL     1      13.495  10.774  19.406  0.00  0.00    +0.149 HD
BRANCH   6  26
ATOM     26  C   UNL     1      12.027   9.503  20.248  0.00  0.00    +0.119 C 
BRANCH  26  27
ATOM     27  C   UNL     1      11.915   8.413  19.192  0.00  0.00    +0.103 C 
BRANCH  27   7
ATOM      4  O   UNL     1      13.060   8.551  15.156  0.00  0.00    -0.377 OA
ATOM      7  N   UNL     1      12.455   8.884  17.918  0.00  0.00    -0.297 NA
ATOM     32  C   UNL     1      11.406   8.930  16.890  0.00  0.00    +0.112 C 
ATOM     33  C   UNL     1      13.560   8.023  17.471  0.00  0.00    +0.112 C 
ATOM     34  C   UNL     1      11.996   9.410  15.568  0.00  0.00    +0.175 C 
ATOM     35  C   UNL     1      14.099   8.526  16.135  0.00  0.00    +0.175 C 
ENDBRANCH  27   7
ENDBRANCH  26  27
ENDBRANCH   6  26
ENDBRANCH  20  23
ENDBRANCH  15  20
TORSDOF 8
ENDMDL
MODEL 10
REMARK VINA RESULT:      -6.5     27.616     32.980
REMARK  Name = 45361553
REMARK  11 active torsions:
REMARK  status: ('A' for Active; 'I' for Inactive)
REMARK    1  A    between atoms: O_1  and  C_12
REMARK    2  A    between atoms: N_5  and  C_16
REMARK    3  A    between atoms: N_6  and  C_26
REMARK    4  A    between atoms: N_7  and  C_27
REMARK    5  A    between atoms: C_9  and  C_19
REMARK    6  A    between atoms: C_11  and  C_21
REMARK    7  A    between atoms: C_15  and  C_20
REMARK    8  A    between atoms: C_20  and  C_22
REMARK    9  A    between atoms: C_20  and  C_23
REMARK   10  A    between atoms: C_24  and  C_25
REMARK   11  A    between atoms: C_26  and  C_27
REMARK                            x       y       z     vdW  Elec       q    Type
REMARK                         _______ _______ _______ _____ _____    ______ ____
ROOT
ATOM      9  C   UNL     1       9.480   6.037   5.931  0.00  0.00    -0.027 C 
ATOM     10  C   UNL     1      10.372   7.224   5.437  0.00  0.00    +0.028 C 
ATOM     11  C   UNL     1       9.839   8.593   5.993  0.00  0.00    +0.012 C 
ATOM     12  C   UNL     1      10.584   7.165   3.896  0.00  0.00    +0.122 C 
ATOM     13  C   UNL     1      10.096   4.697   5.461  0.00  0.00    +0.007 C 
ATOM     14  C   UNL     1       9.463   6.029   7.478  0.00  0.00    +0.009 C 
ATOM     15  C   UNL     1      11.102   5.789   3.419  0.00  0.00    +0.029 C 
ATOM     16  C   UNL     1       9.755   8.548   7.544  0.00  0.00    +0.076 C 
ATOM     17  C   UNL     1      10.268   4.622   3.950  0.00  0.00    +0.007 C 
ATOM     18  C   UNL     1       8.980   7.342   8.076  0.00  0.00    +0.023 C 
ATOM     19  C   UNL     1       8.025   6.128   5.406  0.00  0.00    +0.011 C 
ATOM     21  C   UNL     1      10.688   9.803   5.567  0.00  0.00    +0.010 C 
ENDROOT
BRANCH  16   5
ATOM      3  O   UNL     1      11.065  10.544   9.139  0.00  0.00    -0.270 OA
ATOM      5  N   UNL     1       9.159   9.751   8.084  0.00  0.00    -0.308 N 
ATOM     24  C   UNL     1       9.878  10.656   8.845  0.00  0.00    +0.244 C 
ATOM     36  H   UNL     1       8.155   9.853   7.978  0.00  0.00    +0.149 HD
BRANCH  24  25
ATOM      8  N   UNL     1       7.681  14.031  10.297  0.00  0.00    -0.263 NA
ATOM     25  C   UNL     1       9.114  11.828   9.349  0.00  0.00    +0.040 A 
ATOM     28  C   UNL     1       8.800  12.876   8.492  0.00  0.00    +0.033 A 
ATOM     29  C   UNL     1       8.711  11.879  10.679  0.00  0.00    +0.033 A 
ATOM     30  C   UNL     1       8.088  13.947   9.011  0.00  0.00    +0.111 A 
ATOM     31  C   UNL     1       8.004  12.993  11.099  0.00  0.00    +0.111 A 
ENDBRANCH  24  25
ENDBRANCH  16   5
BRANCH  12   1
ATOM      1  O   UNL     1      11.569   8.126   3.514  0.00  0.00    -0.391 OA
ATOM     37  H   UNL     1      11.957   8.500   4.324  0.00  0.00    +0.210 HD
ENDBRANCH  12   1
BRANCH  15  20
ATOM     20  C   UNL     1      11.179   5.708   1.889  0.00  0.00    +0.077 C 
ATOM     22  C   UNL     1      10.284   4.587   1.377  0.00  0.00    +0.017 C 
BRANCH  20  23
ATOM      2  O   UNL     1      13.543   6.235   1.837  0.00  0.00    -0.276 OA
ATOM      6  N   UNL     1      12.779   4.436   0.587  0.00  0.00    -0.314 N 
ATOM     23  C   UNL     1      12.628   5.510   1.452  0.00  0.00    +0.216 C 
ATOM     38  H   UNL     1      11.963   3.902   0.305  0.00  0.00    +0.149 HD
BRANCH   6  26
ATOM     26  C   UNL     1      14.057   4.051   0.036  0.00  0.00    +0.119 C 
BRANCH  26  27
ATOM     27  C   UNL     1      13.992   3.934  -1.479  0.00  0.00    +0.103 C 
BRANCH  27   7
ATOM      4  O   UNL     1      10.607   3.408  -3.905  0.00  0.00    -0.377 OA
ATOM      7  N   UNL     1      12.602   3.848  -1.923  0.00  0.00    -0.297 NA
ATOM     32  C   UNL     1      12.292   2.499  -2.415  0.00  0.00    +0.112 C 
ATOM     33  C   UNL     1      12.327   4.842  -2.970  0.00  0.00    +0.112 C 
ATOM     34  C   UNL     1      10.841   2.438  -2.884  0.00  0.00    +0.175 C 
ATOM     35  C   UNL     1      10.874   4.726  -3.425  0.00  0.00    +0.175 C 
ENDBRANCH  27   7
ENDBRANCH  26  27
ENDBRANCH   6  26
ENDBRANCH  20  23
ENDBRANCH  15  20
TORSDOF 8
ENDMDL
