MODEL 1
REMARK VINA RESULT:      -6.9      0.000      0.000
REMARK  Name = 75536683
REMARK  8 active torsions:
REMARK  status: ('A' for Active; 'I' for Inactive)
REMARK    1  A    between atoms: S_1  and  N_8
REMARK    2  A    between atoms: S_1  and  C_16
REMARK    3  A    between atoms: O_4  and  C_10
REMARK    4  A    between atoms: N_7  and  C_9
REMARK    5  A    between atoms: N_7  and  C_14
REMARK    6  A    between atoms: N_8  and  C_13
REMARK    7  A    between atoms: C_11  and  C_13
REMARK    8  A    between atoms: C_14  and  C_15
REMARK                            x       y       z     vdW  Elec       q    Type
REMARK                         _______ _______ _______ _____ _____    ______ ____
ROOT
ATOM      3  O   UNL     1      10.582   8.399  19.840  0.00  0.00    -0.371 OA
ATOM      9  C   UNL     1      12.760   7.626  19.295  0.00  0.00    +0.111 C 
ATOM     10  C   UNL     1      12.579   7.575  20.801  0.00  0.00    +0.164 C 
ATOM     11  C   UNL     1      11.060   7.573  20.914  0.00  0.00    +0.164 C 
ATOM     12  C   UNL     1      11.647   8.579  18.891  0.00  0.00    +0.181 C 
ENDROOT
BRANCH  10   4
ATOM      4  O   UNL     1      13.152   6.418  21.381  0.00  0.00    -0.388 OA
ATOM     28  H   UNL     1      13.277   6.582  22.330  0.00  0.00    +0.210 HD
ENDBRANCH  10   4
BRANCH   9   7
ATOM      7  N   UNL     1      14.076   8.084  18.882  0.00  0.00    -0.305 NA
ATOM     27  H   UNL     1      14.520   8.569  19.662  0.00  0.00    +0.123 HD
BRANCH   7  14
ATOM     14  C   UNL     1      14.920   6.964  18.480  0.00  0.00    +0.116 C 
BRANCH  14  15
ATOM      2  F   UNL     1      19.542   6.563  21.676  0.00  0.00    -0.205 F 
ATOM     15  C   UNL     1      16.155   6.857  19.334  0.00  0.00    -0.033 A 
ATOM     17  C   UNL     1      17.126   5.900  19.039  0.00  0.00    +0.008 A 
ATOM     18  C   UNL     1      16.328   7.714  20.421  0.00  0.00    +0.008 A 
ATOM     21  C   UNL     1      18.270   5.800  19.829  0.00  0.00    +0.038 A 
ATOM     22  C   UNL     1      17.473   7.615  21.212  0.00  0.00    +0.038 A 
ATOM     23  C   UNL     1      18.443   6.657  20.917  0.00  0.00    +0.123 A 
ENDBRANCH  14  15
ENDBRANCH   7  14
ENDBRANCH   9   7
BRANCH  11  13
ATOM     13  C   UNL     1      10.556   8.112  22.241  0.00  0.00    +0.140 C 
BRANCH  13   8
ATOM      8  N   UNL     1      11.624   8.893  22.896  0.00  0.00    -0.187 NA
ATOM     29  H   UNL     1      12.148   8.402  23.631  0.00  0.00    +0.148 HD
BRANCH   8   1
ATOM      1  S   UNL     1      11.515  10.588  22.975  0.00  0.00    +0.058 S 
ATOM      5  O   UNL     1      10.872  10.972  24.217  0.00  0.00    -0.153 OA
ATOM      6  O   UNL     1      11.013  11.088  21.710  0.00  0.00    -0.153 OA
BRANCH   1  16
ATOM     16  C   UNL     1      13.217  11.055  23.076  0.00  0.00    +0.105 A 
ATOM     19  C   UNL     1      13.592  12.166  23.832  0.00  0.00    +0.028 A 
ATOM     20  C   UNL     1      14.186  10.311  22.402  0.00  0.00    +0.028 A 
ATOM     24  C   UNL     1      14.934  12.535  23.912  0.00  0.00    +0.002 A 
ATOM     25  C   UNL     1      15.528  10.679  22.481  0.00  0.00    +0.002 A 
ATOM     26  C   UNL     1      15.903  11.791  23.236  0.00  0.00    +0.000 A 
ENDBRANCH   1  16
ENDBRANCH   8   1
ENDBRANCH  13   8
ENDBRANCH  11  13
TORSDOF 8
ENDMDL
MODEL 2
REMARK VINA RESULT:      -6.7      1.227      1.976
REMARK  Name = 75536683
REMARK  8 active torsions:
REMARK  status: ('A' for Active; 'I' for Inactive)
REMARK    1  A    between atoms: S_1  and  N_8
REMARK    2  A    between atoms: S_1  and  C_16
REMARK    3  A    between atoms: O_4  and  C_10
REMARK    4  A    between atoms: N_7  and  C_9
REMARK    5  A    between atoms: N_7  and  C_14
REMARK    6  A    between atoms: N_8  and  C_13
REMARK    7  A    between atoms: C_11  and  C_13
REMARK    8  A    between atoms: C_14  and  C_15
REMARK                            x       y       z     vdW  Elec       q    Type
REMARK                         _______ _______ _______ _____ _____    ______ ____
ROOT
ATOM      3  O   UNL     1      10.993   8.692  19.881  0.00  0.00    -0.371 OA
ATOM      9  C   UNL     1      12.410   6.812  19.570  0.00  0.00    +0.111 C 
ATOM     10  C   UNL     1      12.109   6.966  21.050  0.00  0.00    +0.164 C 
ATOM     11  C   UNL     1      10.843   7.809  21.005  0.00  0.00    +0.164 C 
ATOM     12  C   UNL     1      12.051   8.192  19.046  0.00  0.00    +0.181 C 
ENDROOT
BRANCH  10   4
ATOM      4  O   UNL     1      11.894   5.725  21.695  0.00  0.00    -0.388 OA
ATOM     28  H   UNL     1      12.207   5.017  21.108  0.00  0.00    +0.210 HD
ENDBRANCH  10   4
BRANCH   9   7
ATOM      7  N   UNL     1      13.787   6.440  19.292  0.00  0.00    -0.305 NA
ATOM     27  H   UNL     1      13.876   6.208  18.302  0.00  0.00    +0.123 HD
BRANCH   7  14
ATOM     14  C   UNL     1      14.700   7.533  19.605  0.00  0.00    +0.116 C 
BRANCH  14  15
ATOM      2  F   UNL     1      19.942   5.689  20.537  0.00  0.00    -0.205 F 
ATOM     15  C   UNL     1      16.101   7.041  19.854  0.00  0.00    -0.033 A 
ATOM     17  C   UNL     1      16.839   7.547  20.924  0.00  0.00    +0.008 A 
ATOM     18  C   UNL     1      16.662   6.078  19.014  0.00  0.00    +0.008 A 
ATOM     21  C   UNL     1      18.136   7.091  21.155  0.00  0.00    +0.038 A 
ATOM     22  C   UNL     1      17.960   5.622  19.245  0.00  0.00    +0.038 A 
ATOM     23  C   UNL     1      18.697   6.129  20.315  0.00  0.00    +0.123 A 
ENDBRANCH  14  15
ENDBRANCH   7  14
ENDBRANCH   9   7
BRANCH  11  13
ATOM     13  C   UNL     1      10.617   8.621  22.269  0.00  0.00    +0.140 C 
BRANCH  13   8
ATOM      8  N   UNL     1      11.902   9.178  22.736  0.00  0.00    -0.187 NA
ATOM     29  H   UNL     1      12.217   8.858  23.660  0.00  0.00    +0.148 HD
BRANCH   8   1
ATOM      1  S   UNL     1      12.420  10.702  22.187  0.00  0.00    +0.058 S 
ATOM      5  O   UNL     1      11.272  11.468  21.739  0.00  0.00    -0.153 OA
ATOM      6  O   UNL     1      13.564  10.525  21.315  0.00  0.00    -0.153 OA
BRANCH   1  16
ATOM     16  C   UNL     1      13.017  11.439  23.680  0.00  0.00    +0.105 A 
ATOM     19  C   UNL     1      14.355  11.287  24.046  0.00  0.00    +0.028 A 
ATOM     20  C   UNL     1      12.151  12.173  24.490  0.00  0.00    +0.028 A 
ATOM     24  C   UNL     1      14.826  11.869  25.222  0.00  0.00    +0.002 A 
ATOM     25  C   UNL     1      12.622  12.755  25.666  0.00  0.00    +0.002 A 
ATOM     26  C   UNL     1      13.959  12.602  26.033  0.00  0.00    +0.000 A 
ENDBRANCH   1  16
ENDBRANCH   8   1
ENDBRANCH  13   8
ENDBRANCH  11  13
TORSDOF 8
ENDMDL
MODEL 3
REMARK VINA RESULT:      -6.6     27.301     30.071
REMARK  Name = 75536683
REMARK  8 active torsions:
REMARK  status: ('A' for Active; 'I' for Inactive)
REMARK    1  A    between atoms: S_1  and  N_8
REMARK    2  A    between atoms: S_1  and  C_16
REMARK    3  A    between atoms: O_4  and  C_10
REMARK    4  A    between atoms: N_7  and  C_9
REMARK    5  A    between atoms: N_7  and  C_14
REMARK    6  A    between atoms: N_8  and  C_13
REMARK    7  A    between atoms: C_11  and  C_13
REMARK    8  A    between atoms: C_14  and  C_15
REMARK                            x       y       z     vdW  Elec       q    Type
REMARK                         _______ _______ _______ _____ _____    ______ ____
ROOT
ATOM      3  O   UNL     1     -17.265   5.611  24.464  0.00  0.00    -0.371 OA
ATOM      9  C   UNL     1     -15.892   4.341  23.002  0.00  0.00    +0.111 C 
ATOM     10  C   UNL     1     -15.721   3.821  24.417  0.00  0.00    +0.164 C 
ATOM     11  C   UNL     1     -16.992   4.340  25.075  0.00  0.00    +0.164 C 
ATOM     12  C   UNL     1     -16.491   5.713  23.256  0.00  0.00    +0.181 C 
ENDROOT
BRANCH  10   4
ATOM      4  O   UNL     1     -15.636   2.410  24.474  0.00  0.00    -0.388 OA
ATOM     28  H   UNL     1     -16.156   2.042  23.740  0.00  0.00    +0.210 HD
ENDBRANCH  10   4
BRANCH   9   7
ATOM      7  N   UNL     1     -14.650   4.396  22.248  0.00  0.00    -0.305 NA
ATOM     27  H   UNL     1     -14.867   4.443  21.252  0.00  0.00    +0.123 HD
BRANCH   7  14
ATOM     14  C   UNL     1     -13.863   5.567  22.616  0.00  0.00    +0.116 C 
BRANCH  14  15
ATOM      2  F   UNL     1     -12.096   8.419  18.090  0.00  0.00    -0.205 F 
ATOM     15  C   UNL     1     -13.391   6.329  21.407  0.00  0.00    -0.033 A 
ATOM     17  C   UNL     1     -12.029   6.396  21.112  0.00  0.00    +0.008 A 
ATOM     18  C   UNL     1     -14.315   6.969  20.581  0.00  0.00    +0.008 A 
ATOM     21  C   UNL     1     -11.591   7.102  19.993  0.00  0.00    +0.038 A 
ATOM     22  C   UNL     1     -13.877   7.675  19.460  0.00  0.00    +0.038 A 
ATOM     23  C   UNL     1     -12.515   7.742  19.166  0.00  0.00    +0.123 A 
ENDBRANCH  14  15
ENDBRANCH   7  14
ENDBRANCH   9   7
BRANCH  11  13
ATOM     13  C   UNL     1     -16.864   4.509  26.579  0.00  0.00    +0.140 C 
BRANCH  13   8
ATOM      8  N   UNL     1     -15.966   3.471  27.120  0.00  0.00    -0.187 NA
ATOM     29  H   UNL     1     -15.054   3.383  26.655  0.00  0.00    +0.148 HD
BRANCH   8   1
ATOM      1  S   UNL     1     -16.613   2.102  27.894  0.00  0.00    +0.058 S 
ATOM      5  O   UNL     1     -16.435   0.939  27.044  0.00  0.00    -0.153 OA
ATOM      6  O   UNL     1     -17.927   2.431  28.413  0.00  0.00    -0.153 OA
BRANCH   1  16
ATOM     16  C   UNL     1     -15.536   1.930  29.285  0.00  0.00    +0.105 A 
ATOM     19  C   UNL     1     -15.485   0.723  29.983  0.00  0.00    +0.028 A 
ATOM     20  C   UNL     1     -14.735   3.000  29.683  0.00  0.00    +0.028 A 
ATOM     24  C   UNL     1     -14.635   0.587  31.080  0.00  0.00    +0.002 A 
ATOM     25  C   UNL     1     -13.885   2.865  30.780  0.00  0.00    +0.002 A 
ATOM     26  C   UNL     1     -13.835   1.658  31.479  0.00  0.00    +0.000 A 
ENDBRANCH   1  16
ENDBRANCH   8   1
ENDBRANCH  13   8
ENDBRANCH  11  13
TORSDOF 8
ENDMDL
MODEL 4
REMARK VINA RESULT:      -6.3     27.471     30.445
REMARK  Name = 75536683
REMARK  8 active torsions:
REMARK  status: ('A' for Active; 'I' for Inactive)
REMARK    1  A    between atoms: S_1  and  N_8
REMARK    2  A    between atoms: S_1  and  C_16
REMARK    3  A    between atoms: O_4  and  C_10
REMARK    4  A    between atoms: N_7  and  C_9
REMARK    5  A    between atoms: N_7  and  C_14
REMARK    6  A    between atoms: N_8  and  C_13
REMARK    7  A    between atoms: C_11  and  C_13
REMARK    8  A    between atoms: C_14  and  C_15
REMARK                            x       y       z     vdW  Elec       q    Type
REMARK                         _______ _______ _______ _____ _____    ______ ____
ROOT
ATOM      3  O   UNL     1     -16.212   2.132  24.457  0.00  0.00    -0.371 OA
ATOM      9  C   UNL     1     -17.354   2.674  26.467  0.00  0.00    +0.111 C 
ATOM     10  C   UNL     1     -16.390   3.796  26.127  0.00  0.00    +0.164 C 
ATOM     11  C   UNL     1     -16.175   3.557  24.639  0.00  0.00    +0.164 C 
ATOM     12  C   UNL     1     -16.798   1.536  25.627  0.00  0.00    +0.181 C 
ENDROOT
BRANCH  10   4
ATOM      4  O   UNL     1     -16.934   5.077  26.382  0.00  0.00    -0.388 OA
ATOM     28  H   UNL     1     -17.710   5.200  25.811  0.00  0.00    +0.210 HD
ENDBRANCH  10   4
BRANCH   9   7
ATOM      7  N   UNL     1     -17.405   2.358  27.885  0.00  0.00    -0.305 NA
ATOM     27  H   UNL     1     -18.371   2.159  28.147  0.00  0.00    +0.123 HD
BRANCH   7  14
ATOM     14  C   UNL     1     -16.581   1.195  28.194  0.00  0.00    +0.116 C 
BRANCH  14  15
ATOM      2  F   UNL     1     -13.060   2.196  32.477  0.00  0.00    -0.205 F 
ATOM     15  C   UNL     1     -15.640   1.463  29.338  0.00  0.00    -0.033 A 
ATOM     17  C   UNL     1     -14.935   2.665  29.396  0.00  0.00    +0.008 A 
ATOM     18  C   UNL     1     -15.472   0.508  30.342  0.00  0.00    +0.008 A 
ATOM     21  C   UNL     1     -14.064   2.913  30.455  0.00  0.00    +0.038 A 
ATOM     22  C   UNL     1     -14.601   0.756  31.402  0.00  0.00    +0.038 A 
ATOM     23  C   UNL     1     -13.896   1.959  31.458  0.00  0.00    +0.123 A 
ENDBRANCH  14  15
ENDBRANCH   7  14
ENDBRANCH   9   7
BRANCH  11  13
ATOM     13  C   UNL     1     -14.855   4.106  24.128  0.00  0.00    +0.140 C 
BRANCH  13   8
ATOM      8  N   UNL     1     -14.873   4.145  22.652  0.00  0.00    -0.187 NA
ATOM     29  H   UNL     1     -14.109   3.642  22.183  0.00  0.00    +0.148 HD
BRANCH   8   1
ATOM      1  S   UNL     1     -15.597   5.454  21.843  0.00  0.00    +0.058 S 
ATOM      5  O   UNL     1     -16.206   6.343  22.814  0.00  0.00    -0.153 OA
ATOM      6  O   UNL     1     -16.376   4.948  20.729  0.00  0.00    -0.153 OA
BRANCH   1  16
ATOM     16  C   UNL     1     -14.190   6.278  21.158  0.00  0.00    +0.105 A 
ATOM     19  C   UNL     1     -14.364   7.264  20.187  0.00  0.00    +0.028 A 
ATOM     20  C   UNL     1     -12.907   5.943  21.589  0.00  0.00    +0.028 A 
ATOM     24  C   UNL     1     -13.255   7.914  19.646  0.00  0.00    +0.002 A 
ATOM     25  C   UNL     1     -11.798   6.592  21.050  0.00  0.00    +0.002 A 
ATOM     26  C   UNL     1     -11.972   7.578  20.078  0.00  0.00    +0.000 A 
ENDBRANCH   1  16
ENDBRANCH   8   1
ENDBRANCH  13   8
ENDBRANCH  11  13
TORSDOF 8
ENDMDL
MODEL 5
REMARK VINA RESULT:      -6.2      2.334      3.064
REMARK  Name = 75536683
REMARK  8 active torsions:
REMARK  status: ('A' for Active; 'I' for Inactive)
REMARK    1  A    between atoms: S_1  and  N_8
REMARK    2  A    between atoms: S_1  and  C_16
REMARK    3  A    between atoms: O_4  and  C_10
REMARK    4  A    between atoms: N_7  and  C_9
REMARK    5  A    between atoms: N_7  and  C_14
REMARK    6  A    between atoms: N_8  and  C_13
REMARK    7  A    between atoms: C_11  and  C_13
REMARK    8  A    between atoms: C_14  and  C_15
REMARK                            x       y       z     vdW  Elec       q    Type
REMARK                         _______ _______ _______ _____ _____    ______ ____
ROOT
ATOM      3  O   UNL     1      11.906  10.076  20.717  0.00  0.00    -0.371 OA
ATOM      9  C   UNL     1      12.315   7.753  20.448  0.00  0.00    +0.111 C 
ATOM     10  C   UNL     1      11.580   7.978  21.756  0.00  0.00    +0.164 C 
ATOM     11  C   UNL     1      10.958   9.346  21.511  0.00  0.00    +0.164 C 
ATOM     12  C   UNL     1      12.851   9.146  20.161  0.00  0.00    +0.181 C 
ENDROOT
BRANCH  10   4
ATOM      4  O   UNL     1      10.599   6.989  22.008  0.00  0.00    -0.388 OA
ATOM     28  H   UNL     1      10.409   6.529  21.175  0.00  0.00    +0.210 HD
ENDBRANCH  10   4
BRANCH   9   7
ATOM      7  N   UNL     1      13.363   6.749  20.534  0.00  0.00    -0.305 NA
ATOM     27  H   UNL     1      12.937   5.823  20.562  0.00  0.00    +0.123 HD
BRANCH   7  14
ATOM     14  C   UNL     1      14.257   6.823  19.383  0.00  0.00    +0.116 C 
BRANCH  14  15
ATOM      2  F   UNL     1      19.633   5.975  20.841  0.00  0.00    -0.205 F 
ATOM     15  C   UNL     1      15.693   6.597  19.772  0.00  0.00    -0.033 A 
ATOM     17  C   UNL     1      16.144   6.985  21.035  0.00  0.00    +0.008 A 
ATOM     18  C   UNL     1      16.575   5.999  18.871  0.00  0.00    +0.008 A 
ATOM     21  C   UNL     1      17.473   6.776  21.396  0.00  0.00    +0.038 A 
ATOM     22  C   UNL     1      17.906   5.789  19.233  0.00  0.00    +0.038 A 
ATOM     23  C   UNL     1      18.355   6.178  20.495  0.00  0.00    +0.123 A 
ENDBRANCH  14  15
ENDBRANCH   7  14
ENDBRANCH   9   7
BRANCH  11  13
ATOM     13  C   UNL     1      10.663  10.109  22.790  0.00  0.00    +0.140 C 
BRANCH  13   8
ATOM      8  N   UNL     1      11.876  10.154  23.631  0.00  0.00    -0.187 NA
ATOM     29  H   UNL     1      11.988   9.377  24.293  0.00  0.00    +0.148 HD
BRANCH   8   1
ATOM      1  S   UNL     1      12.599  11.648  24.004  0.00  0.00    +0.058 S 
ATOM      5  O   UNL     1      13.824  11.793  23.241  0.00  0.00    -0.153 OA
ATOM      6  O   UNL     1      12.613  11.819  25.444  0.00  0.00    -0.153 OA
BRANCH   1  16
ATOM     16  C   UNL     1      11.416  12.793  23.360  0.00  0.00    +0.105 A 
ATOM     19  C   UNL     1      10.420  13.309  24.189  0.00  0.00    +0.028 A 
ATOM     20  C   UNL     1      11.479  13.182  22.022  0.00  0.00    +0.028 A 
ATOM     24  C   UNL     1       9.487  14.212  23.681  0.00  0.00    +0.002 A 
ATOM     25  C   UNL     1      10.547  14.086  21.513  0.00  0.00    +0.002 A 
ATOM     26  C   UNL     1       9.551  14.600  22.343  0.00  0.00    +0.000 A 
ENDBRANCH   1  16
ENDBRANCH   8   1
ENDBRANCH  13   8
ENDBRANCH  11  13
TORSDOF 8
ENDMDL
MODEL 6
REMARK VINA RESULT:      -5.9     26.972     29.421
REMARK  Name = 75536683
REMARK  8 active torsions:
REMARK  status: ('A' for Active; 'I' for Inactive)
REMARK    1  A    between atoms: S_1  and  N_8
REMARK    2  A    between atoms: S_1  and  C_16
REMARK    3  A    between atoms: O_4  and  C_10
REMARK    4  A    between atoms: N_7  and  C_9
REMARK    5  A    between atoms: N_7  and  C_14
REMARK    6  A    between atoms: N_8  and  C_13
REMARK    7  A    between atoms: C_11  and  C_13
REMARK    8  A    between atoms: C_14  and  C_15
REMARK                            x       y       z     vdW  Elec       q    Type
REMARK                         _______ _______ _______ _____ _____    ______ ____
ROOT
ATOM      3  O   UNL     1      -6.402 -11.776  18.160  0.00  0.00    -0.371 OA
ATOM      9  C   UNL     1      -8.110 -10.266  17.496  0.00  0.00    +0.111 C 
ATOM     10  C   UNL     1      -6.771  -9.744  17.008  0.00  0.00    +0.164 C 
ATOM     11  C   UNL     1      -5.934 -11.016  17.033  0.00  0.00    +0.164 C 
ATOM     12  C   UNL     1      -7.675 -11.250  18.570  0.00  0.00    +0.181 C 
ENDROOT
BRANCH  10   4
ATOM      4  O   UNL     1      -6.844  -9.186  15.710  0.00  0.00    -0.388 OA
ATOM     28  H   UNL     1      -7.679  -8.695  15.634  0.00  0.00    +0.210 HD
ENDBRANCH  10   4
BRANCH   9   7
ATOM      7  N   UNL     1      -8.991  -9.227  18.003  0.00  0.00    -0.305 NA
ATOM     27  H   UNL     1      -8.700  -8.327  17.621  0.00  0.00    +0.123 HD
BRANCH   7  14
ATOM     14  C   UNL     1     -10.376  -9.478  17.619  0.00  0.00    +0.116 C 
BRANCH  14  15
ATOM      2  F   UNL     1     -12.575  -5.155  14.753  0.00  0.00    -0.205 F 
ATOM     15  C   UNL     1     -10.963  -8.323  16.853  0.00  0.00    -0.033 A 
ATOM     17  C   UNL     1     -12.340  -8.257  16.638  0.00  0.00    +0.008 A 
ATOM     18  C   UNL     1     -10.131  -7.318  16.358  0.00  0.00    +0.008 A 
ATOM     21  C   UNL     1     -12.885  -7.188  15.928  0.00  0.00    +0.038 A 
ATOM     22  C   UNL     1     -10.676  -6.248  15.649  0.00  0.00    +0.038 A 
ATOM     23  C   UNL     1     -12.053  -6.183  15.433  0.00  0.00    +0.123 A 
ENDBRANCH  14  15
ENDBRANCH   7  14
ENDBRANCH   9   7
BRANCH  11  13
ATOM     13  C   UNL     1      -4.446 -10.752  17.174  0.00  0.00    +0.140 C 
BRANCH  13   8
ATOM      8  N   UNL     1      -3.902 -10.281  15.885  0.00  0.00    -0.187 NA
ATOM     29  H   UNL     1      -4.475  -9.591  15.385  0.00  0.00    +0.148 HD
BRANCH   8   1
ATOM      1  S   UNL     1      -2.867 -11.282  14.980  0.00  0.00    +0.058 S 
ATOM      5  O   UNL     1      -3.361 -12.646  15.019  0.00  0.00    -0.153 OA
ATOM      6  O   UNL     1      -1.493 -10.994  15.344  0.00  0.00    -0.153 OA
BRANCH   1  16
ATOM     16  C   UNL     1      -3.107 -10.663  13.341  0.00  0.00    +0.105 A 
ATOM     19  C   UNL     1      -2.007 -10.412  12.522  0.00  0.00    +0.028 A 
ATOM     20  C   UNL     1      -4.398 -10.427  12.867  0.00  0.00    +0.028 A 
ATOM     24  C   UNL     1      -2.196  -9.924  11.230  0.00  0.00    +0.002 A 
ATOM     25  C   UNL     1      -4.588  -9.940  11.575  0.00  0.00    +0.002 A 
ATOM     26  C   UNL     1      -3.487  -9.687  10.756  0.00  0.00    +0.000 A 
ENDBRANCH   1  16
ENDBRANCH   8   1
ENDBRANCH  13   8
ENDBRANCH  11  13
TORSDOF 8
ENDMDL
MODEL 7
REMARK VINA RESULT:      -5.9     27.999     30.044
REMARK  Name = 75536683
REMARK  8 active torsions:
REMARK  status: ('A' for Active; 'I' for Inactive)
REMARK    1  A    between atoms: S_1  and  N_8
REMARK    2  A    between atoms: S_1  and  C_16
REMARK    3  A    between atoms: O_4  and  C_10
REMARK    4  A    between atoms: N_7  and  C_9
REMARK    5  A    between atoms: N_7  and  C_14
REMARK    6  A    between atoms: N_8  and  C_13
REMARK    7  A    between atoms: C_11  and  C_13
REMARK    8  A    between atoms: C_14  and  C_15
REMARK                            x       y       z     vdW  Elec       q    Type
REMARK                         _______ _______ _______ _____ _____    ______ ____
ROOT
ATOM      3  O   UNL     1     -11.560  -7.855  13.935  0.00  0.00    -0.371 OA
ATOM      9  C   UNL     1     -10.100  -8.204  15.775  0.00  0.00    +0.111 C 
ATOM     10  C   UNL     1     -10.498  -6.740  15.730  0.00  0.00    +0.164 C 
ATOM     11  C   UNL     1     -11.771  -6.808  14.897  0.00  0.00    +0.164 C 
ATOM     12  C   UNL     1     -10.443  -8.652  14.364  0.00  0.00    +0.181 C 
ENDROOT
BRANCH  10   4
ATOM      4  O   UNL     1     -10.738  -6.200  17.016  0.00  0.00    -0.388 OA
ATOM     28  H   UNL     1     -10.046  -6.521  17.616  0.00  0.00    +0.210 HD
ENDBRANCH  10   4
BRANCH   9   7
ATOM      7  N   UNL     1      -8.703  -8.417  16.114  0.00  0.00    -0.305 NA
ATOM     27  H   UNL     1      -8.246  -7.512  16.232  0.00  0.00    +0.123 HD
BRANCH   7  14
ATOM     14  C   UNL     1      -8.572  -9.177  17.352  0.00  0.00    +0.116 C 
BRANCH  14  15
ATOM      2  F   UNL     1      -3.403 -11.336  17.956  0.00  0.00    -0.205 F 
ATOM     15  C   UNL     1      -7.191  -9.754  17.513  0.00  0.00    -0.033 A 
ATOM     17  C   UNL     1      -6.271  -9.665  16.468  0.00  0.00    +0.008 A 
ATOM     18  C   UNL     1      -6.831 -10.379  18.708  0.00  0.00    +0.008 A 
ATOM     21  C   UNL     1      -4.992 -10.199  16.617  0.00  0.00    +0.038 A 
ATOM     22  C   UNL     1      -5.551 -10.914  18.857  0.00  0.00    +0.038 A 
ATOM     23  C   UNL     1      -4.632 -10.824  17.811  0.00  0.00    +0.123 A 
ENDBRANCH  14  15
ENDBRANCH   7  14
ENDBRANCH   9   7
BRANCH  11  13
ATOM     13  C   UNL     1     -12.089  -5.509  14.180  0.00  0.00    +0.140 C 
BRANCH  13   8
ATOM      8  N   UNL     1     -13.123  -5.749  13.154  0.00  0.00    -0.187 NA
ATOM     29  H   UNL     1     -13.226  -6.724  12.845  0.00  0.00    +0.148 HD
BRANCH   8   1
ATOM      1  S   UNL     1     -13.561  -4.508  12.077  0.00  0.00    +0.058 S 
ATOM      5  O   UNL     1     -13.364  -3.222  12.719  0.00  0.00    -0.153 OA
ATOM      6  O   UNL     1     -14.839  -4.834  11.475  0.00  0.00    -0.153 OA
BRANCH   1  16
ATOM     16  C   UNL     1     -12.337  -4.678  10.812  0.00  0.00    +0.105 A 
ATOM     19  C   UNL     1     -11.933  -5.948  10.399  0.00  0.00    +0.028 A 
ATOM     20  C   UNL     1     -11.776  -3.543  10.227  0.00  0.00    +0.028 A 
ATOM     24  C   UNL     1     -10.968  -6.082   9.401  0.00  0.00    +0.002 A 
ATOM     25  C   UNL     1     -10.811  -3.677   9.229  0.00  0.00    +0.002 A 
ATOM     26  C   UNL     1     -10.407  -4.947   8.817  0.00  0.00    +0.000 A 
ENDBRANCH   1  16
ENDBRANCH   8   1
ENDBRANCH  13   8
ENDBRANCH  11  13
TORSDOF 8
ENDMDL
MODEL 8
REMARK VINA RESULT:      -5.9      5.505      9.051
REMARK  Name = 75536683
REMARK  8 active torsions:
REMARK  status: ('A' for Active; 'I' for Inactive)
REMARK    1  A    between atoms: S_1  and  N_8
REMARK    2  A    between atoms: S_1  and  C_16
REMARK    3  A    between atoms: O_4  and  C_10
REMARK    4  A    between atoms: N_7  and  C_9
REMARK    5  A    between atoms: N_7  and  C_14
REMARK    6  A    between atoms: N_8  and  C_13
REMARK    7  A    between atoms: C_11  and  C_13
REMARK    8  A    between atoms: C_14  and  C_15
REMARK                            x       y       z     vdW  Elec       q    Type
REMARK                         _______ _______ _______ _____ _____    ______ ____
ROOT
ATOM      3  O   UNL     1      18.112   5.872  19.248  0.00  0.00    -0.371 OA
ATOM      9  C   UNL     1      16.853   6.985  20.927  0.00  0.00    +0.111 C 
ATOM     10  C   UNL     1      18.158   6.497  21.528  0.00  0.00    +0.164 C 
ATOM     11  C   UNL     1      19.009   6.319  20.278  0.00  0.00    +0.164 C 
ATOM     12  C   UNL     1      16.763   6.130  19.674  0.00  0.00    +0.181 C 
ENDROOT
BRANCH  10   4
ATOM      4  O   UNL     1      18.729   7.432  22.425  0.00  0.00    -0.388 OA
ATOM     28  H   UNL     1      19.588   7.712  22.070  0.00  0.00    +0.210 HD
ENDBRANCH  10   4
BRANCH   9   7
ATOM      7  N   UNL     1      15.709   6.821  21.808  0.00  0.00    -0.305 NA
ATOM     27  H   UNL     1      16.027   6.445  22.702  0.00  0.00    +0.123 HD
BRANCH   7  14
ATOM     14  C   UNL     1      15.040   8.096  22.043  0.00  0.00    +0.116 C 
BRANCH  14  15
ATOM      2  F   UNL     1      10.350   8.605  18.962  0.00  0.00    -0.205 F 
ATOM     15  C   UNL     1      13.787   8.232  21.220  0.00  0.00    -0.033 A 
ATOM     17  C   UNL     1      13.798   8.999  20.054  0.00  0.00    +0.008 A 
ATOM     18  C   UNL     1      12.615   7.592  21.622  0.00  0.00    +0.008 A 
ATOM     21  C   UNL     1      12.638   9.126  19.292  0.00  0.00    +0.038 A 
ATOM     22  C   UNL     1      11.454   7.718  20.859  0.00  0.00    +0.038 A 
ATOM     23  C   UNL     1      11.465   8.485  19.694  0.00  0.00    +0.123 A 
ENDBRANCH  14  15
ENDBRANCH   7  14
ENDBRANCH   9   7
BRANCH  11  13
ATOM     13  C   UNL     1      20.132   5.312  20.454  0.00  0.00    +0.140 C 
BRANCH  13   8
ATOM      8  N   UNL     1      20.431   5.150  21.890  0.00  0.00    -0.187 NA
ATOM     29  H   UNL     1      19.632   5.255  22.527  0.00  0.00    +0.148 HD
BRANCH   8   1
ATOM      1  S   UNL     1      21.988   5.497  22.480  0.00  0.00    +0.058 S 
ATOM      5  O   UNL     1      22.072   5.104  23.875  0.00  0.00    -0.153 OA
ATOM      6  O   UNL     1      22.357   6.840  22.078  0.00  0.00    -0.153 OA
BRANCH   1  16
ATOM     16  C   UNL     1      22.988   4.383  21.539  0.00  0.00    +0.105 A 
ATOM     19  C   UNL     1      22.869   3.007  21.732  0.00  0.00    +0.028 A 
ATOM     20  C   UNL     1      23.894   4.881  20.603  0.00  0.00    +0.028 A 
ATOM     24  C   UNL     1      23.658   2.128  20.990  0.00  0.00    +0.002 A 
ATOM     25  C   UNL     1      24.683   4.003  19.860  0.00  0.00    +0.002 A 
ATOM     26  C   UNL     1      24.565   2.626  20.054  0.00  0.00    +0.000 A 
ENDBRANCH   1  16
ENDBRANCH   8   1
ENDBRANCH  13   8
ENDBRANCH  11  13
TORSDOF 8
ENDMDL
MODEL 9
REMARK VINA RESULT:      -5.8     16.312     19.201
REMARK  Name = 75536683
REMARK  8 active torsions:
REMARK  status: ('A' for Active; 'I' for Inactive)
REMARK    1  A    between atoms: S_1  and  N_8
REMARK    2  A    between atoms: S_1  and  C_16
REMARK    3  A    between atoms: O_4  and  C_10
REMARK    4  A    between atoms: N_7  and  C_9
REMARK    5  A    between atoms: N_7  and  C_14
REMARK    6  A    between atoms: N_8  and  C_13
REMARK    7  A    between atoms: C_11  and  C_13
REMARK    8  A    between atoms: C_14  and  C_15
REMARK                            x       y       z     vdW  Elec       q    Type
REMARK                         _______ _______ _______ _____ _____    ______ ____
ROOT
ATOM      3  O   UNL     1      13.976   8.886   2.219  0.00  0.00    -0.371 OA
ATOM      9  C   UNL     1      13.419   8.576   4.506  0.00  0.00    +0.111 C 
ATOM     10  C   UNL     1      14.180   7.359   4.012  0.00  0.00    +0.164 C 
ATOM     11  C   UNL     1      14.884   7.930   2.789  0.00  0.00    +0.164 C 
ATOM     12  C   UNL     1      12.970   9.200   3.196  0.00  0.00    +0.181 C 
ENDROOT
BRANCH  10   4
ATOM      4  O   UNL     1      15.099   6.865   4.968  0.00  0.00    -0.388 OA
ATOM     28  H   UNL     1      15.812   7.517   5.072  0.00  0.00    +0.210 HD
ENDBRANCH  10   4
BRANCH   9   7
ATOM      7  N   UNL     1      12.311   8.251   5.389  0.00  0.00    -0.305 NA
ATOM     27  H   UNL     1      11.735   9.083   5.520  0.00  0.00    +0.123 HD
BRANCH   7  14
ATOM     14  C   UNL     1      11.486   7.187   4.828  0.00  0.00    +0.116 C 
BRANCH  14  15
ATOM      2  F   UNL     1       9.382   3.828   8.832  0.00  0.00    -0.205 F 
ATOM     15  C   UNL     1      10.924   6.290   5.898  0.00  0.00    -0.033 A 
ATOM     17  C   UNL     1      10.189   5.158   5.544  0.00  0.00    +0.008 A 
ATOM     18  C   UNL     1      11.137   6.590   7.244  0.00  0.00    +0.008 A 
ATOM     21  C   UNL     1       9.668   4.327   6.534  0.00  0.00    +0.038 A 
ATOM     22  C   UNL     1      10.616   5.758   8.235  0.00  0.00    +0.038 A 
ATOM     23  C   UNL     1       9.881   4.627   7.880  0.00  0.00    +0.123 A 
ENDBRANCH  14  15
ENDBRANCH   7  14
ENDBRANCH   9   7
BRANCH  11  13
ATOM     13  C   UNL     1      15.239   6.877   1.754  0.00  0.00    +0.140 C 
BRANCH  13   8
ATOM      8  N   UNL     1      14.996   5.532   2.312  0.00  0.00    -0.187 NA
ATOM     29  H   UNL     1      15.441   5.338   3.217  0.00  0.00    +0.148 HD
BRANCH   8   1
ATOM      1  S   UNL     1      14.666   4.225   1.275  0.00  0.00    +0.058 S 
ATOM      5  O   UNL     1      14.951   2.981   1.963  0.00  0.00    -0.153 OA
ATOM      6  O   UNL     1      15.256   4.492  -0.023  0.00  0.00    -0.153 OA
BRANCH   1  16
ATOM     16  C   UNL     1      12.913   4.351   1.081  0.00  0.00    +0.105 A 
ATOM     19  C   UNL     1      12.345   4.278  -0.191  0.00  0.00    +0.028 A 
ATOM     20  C   UNL     1      12.098   4.522   2.200  0.00  0.00    +0.028 A 
ATOM     24  C   UNL     1      10.963   4.377  -0.344  0.00  0.00    +0.002 A 
ATOM     25  C   UNL     1      10.716   4.620   2.048  0.00  0.00    +0.002 A 
ATOM     26  C   UNL     1      10.148   4.549   0.775  0.00  0.00    +0.000 A 
ENDBRANCH   1  16
ENDBRANCH   8   1
ENDBRANCH  13   8
ENDBRANCH  11  13
TORSDOF 8
ENDMDL
MODEL 10
REMARK VINA RESULT:      -5.7     27.467     28.891
REMARK  Name = 75536683
REMARK  8 active torsions:
REMARK  status: ('A' for Active; 'I' for Inactive)
REMARK    1  A    between atoms: S_1  and  N_8
REMARK    2  A    between atoms: S_1  and  C_16
REMARK    3  A    between atoms: O_4  and  C_10
REMARK    4  A    between atoms: N_7  and  C_9
REMARK    5  A    between atoms: N_7  and  C_14
REMARK    6  A    between atoms: N_8  and  C_13
REMARK    7  A    between atoms: C_11  and  C_13
REMARK    8  A    between atoms: C_14  and  C_15
REMARK                            x       y       z     vdW  Elec       q    Type
REMARK                         _______ _______ _______ _____ _____    ______ ____
ROOT
ATOM      3  O   UNL     1      -4.339 -13.288  15.039  0.00  0.00    -0.371 OA
ATOM      9  C   UNL     1      -3.084 -11.397  14.341  0.00  0.00    +0.111 C 
ATOM     10  C   UNL     1      -4.052 -10.974  15.431  0.00  0.00    +0.164 C 
ATOM     11  C   UNL     1      -4.350 -12.312  16.093  0.00  0.00    +0.164 C 
ATOM     12  C   UNL     1      -3.698 -12.711  13.889  0.00  0.00    +0.181 C 
ENDROOT
BRANCH  10   4
ATOM      4  O   UNL     1      -3.482 -10.051  16.340  0.00  0.00    -0.388 OA
ATOM     28  H   UNL     1      -3.304  -9.224  15.864  0.00  0.00    +0.210 HD
ENDBRANCH  10   4
BRANCH   9   7
ATOM      7  N   UNL     1      -2.961 -10.428  13.264  0.00  0.00    -0.305 NA
ATOM     27  H   UNL     1      -2.348  -9.670  13.566  0.00  0.00    +0.123 HD
BRANCH   7  14
ATOM     14  C   UNL     1      -2.397 -11.043  12.068  0.00  0.00    +0.116 C 
BRANCH  14  15
ATOM      2  F   UNL     1      -5.253  -9.612   7.427  0.00  0.00    -0.205 F 
ATOM     15  C   UNL     1      -3.160 -10.660  10.828  0.00  0.00    -0.033 A 
ATOM     17  C   UNL     1      -3.197  -9.329  10.413  0.00  0.00    +0.008 A 
ATOM     18  C   UNL     1      -3.832 -11.638  10.093  0.00  0.00    +0.008 A 
ATOM     21  C   UNL     1      -3.903  -8.974   9.266  0.00  0.00    +0.038 A 
ATOM     22  C   UNL     1      -4.539 -11.283   8.944  0.00  0.00    +0.038 A 
ATOM     23  C   UNL     1      -4.575  -9.951   8.531  0.00  0.00    +0.123 A 
ENDBRANCH  14  15
ENDBRANCH   7  14
ENDBRANCH   9   7
BRANCH  11  13
ATOM     13  C   UNL     1      -5.690 -12.343  16.808  0.00  0.00    +0.140 C 
BRANCH  13   8
ATOM      8  N   UNL     1      -5.685 -11.364  17.913  0.00  0.00    -0.187 NA
ATOM     29  H   UNL     1      -4.774 -10.941  18.129  0.00  0.00    +0.148 HD
BRANCH   8   1
ATOM      1  S   UNL     1      -6.842 -11.474  19.154  0.00  0.00    +0.058 S 
ATOM      5  O   UNL     1      -6.321 -10.849  20.355  0.00  0.00    -0.153 OA
ATOM      6  O   UNL     1      -7.356 -12.829  19.203  0.00  0.00    -0.153 OA
BRANCH   1  16
ATOM     16  C   UNL     1      -8.142 -10.451  18.528  0.00  0.00    +0.105 A 
ATOM     19  C   UNL     1      -9.449 -10.630  18.979  0.00  0.00    +0.028 A 
ATOM     20  C   UNL     1      -7.859  -9.465  17.583  0.00  0.00    +0.028 A 
ATOM     24  C   UNL     1     -10.474  -9.824  18.485  0.00  0.00    +0.002 A 
ATOM     25  C   UNL     1      -8.883  -8.658  17.089  0.00  0.00    +0.002 A 
ATOM     26  C   UNL     1     -10.191  -8.838  17.540  0.00  0.00    +0.000 A 
ENDBRANCH   1  16
ENDBRANCH   8   1
ENDBRANCH  13   8
ENDBRANCH  11  13
TORSDOF 8
ENDMDL
