MODEL 1
REMARK VINA RESULT:      -7.5      0.000      0.000
REMARK  Name = 51136912
REMARK  5 active torsions:
REMARK  status: ('A' for Active; 'I' for Inactive)
REMARK    1  A    between atoms: N_2  and  C_13
REMARK    2  A    between atoms: C_9  and  C_14
REMARK    3  A    between atoms: C_13  and  C_15
REMARK    4  A    between atoms: C_16  and  C_18
REMARK    5  A    between atoms: C_25  and  C_26
REMARK                            x       y       z     vdW  Elec       q    Type
REMARK                         _______ _______ _______ _____ _____    ______ ____
ROOT
ATOM      1  O   UNL     1     -17.475   2.248  22.365  0.00  0.00    -0.336 OA
ATOM      3  N   UNL     1     -17.109   3.824  23.914  0.00  0.00    -0.190 NA
ATOM      4  N   UNL     1     -17.147   1.566  23.544  0.00  0.00    -0.056 NA
ATOM     14  C   UNL     1     -17.429   3.572  22.670  0.00  0.00    +0.245 A 
ATOM     16  C   UNL     1     -16.945   2.563  24.411  0.00  0.00    +0.204 A 
ENDROOT
BRANCH  16  18
ATOM      6  N   UNL     1     -16.339   0.788  27.622  0.00  0.00    -0.254 NA
ATOM     18  C   UNL     1     -16.578   2.334  25.778  0.00  0.00    +0.041 A 
ATOM     22  C   UNL     1     -16.122   3.374  26.582  0.00  0.00    +0.015 A 
ATOM     23  C   UNL     1     -16.668   1.071  26.341  0.00  0.00    +0.123 A 
ATOM     24  C   UNL     1     -15.774   3.122  27.903  0.00  0.00    +0.029 A 
ATOM     25  C   UNL     1     -15.899   1.824  28.371  0.00  0.00    +0.074 A 
BRANCH  25  26
ATOM      7  N   UNL     1     -14.918  -0.149  31.377  0.00  0.00    -0.243 NA
ATOM      8  N   UNL     1     -15.216   2.153  32.021  0.00  0.00    -0.243 NA
ATOM     26  C   UNL     1     -15.556   1.488  29.733  0.00  0.00    +0.037 A 
ATOM     27  C   UNL     1     -15.240   0.201  30.114  0.00  0.00    +0.124 A 
ATOM     28  C   UNL     1     -15.529   2.433  30.739  0.00  0.00    +0.124 A 
ATOM     29  C   UNL     1     -14.926   0.862  32.267  0.00  0.00    +0.221 A 
ENDBRANCH  25  26
ENDBRANCH  16  18
BRANCH  14   9
ATOM      2  N   UNL     1     -16.540   5.102  20.921  0.00  0.00    -0.286 NA
ATOM      9  C   UNL     1     -17.751   4.534  21.547  0.00  0.00    +0.146 C 
ATOM     10  C   UNL     1     -18.512   3.863  20.390  0.00  0.00    +0.030 C 
ATOM     11  C   UNL     1     -17.685   4.157  19.146  0.00  0.00    +0.017 C 
ATOM     12  C   UNL     1     -16.890   5.389  19.530  0.00  0.00    +0.085 C 
BRANCH   2  13
ATOM     13  C   UNL     1     -16.033   6.280  21.613  0.00  0.00    +0.140 C 
BRANCH  13  15
ATOM      5  N   UNL     1     -14.248   7.604  20.625  0.00  0.00    -0.259 NA
ATOM     15  C   UNL     1     -14.569   6.504  21.341  0.00  0.00    +0.055 A 
ATOM     17  C   UNL     1     -13.642   5.595  21.825  0.00  0.00    +0.024 A 
ATOM     19  C   UNL     1     -12.297   5.831  21.557  0.00  0.00    +0.003 A 
ATOM     20  C   UNL     1     -12.931   7.800  20.384  0.00  0.00    +0.111 A 
ATOM     21  C   UNL     1     -11.928   6.953  20.822  0.00  0.00    +0.020 A 
ENDBRANCH  13  15
ENDBRANCH   2  13
ENDBRANCH  14   9
TORSDOF 5
ENDMDL
MODEL 2
REMARK VINA RESULT:      -7.3     29.467     33.227
REMARK  Name = 51136912
REMARK  5 active torsions:
REMARK  status: ('A' for Active; 'I' for Inactive)
REMARK    1  A    between atoms: N_2  and  C_13
REMARK    2  A    between atoms: C_9  and  C_14
REMARK    3  A    between atoms: C_13  and  C_15
REMARK    4  A    between atoms: C_16  and  C_18
REMARK    5  A    between atoms: C_25  and  C_26
REMARK                            x       y       z     vdW  Elec       q    Type
REMARK                         _______ _______ _______ _____ _____    ______ ____
ROOT
ATOM      1  O   UNL     1      15.232   9.801  21.330  0.00  0.00    -0.336 OA
ATOM      3  N   UNL     1      15.486   7.916  20.148  0.00  0.00    -0.190 NA
ATOM      4  N   UNL     1      16.535   9.354  21.586  0.00  0.00    -0.056 NA
ATOM     14  C   UNL     1      14.685   8.897  20.474  0.00  0.00    +0.245 A 
ATOM     16  C   UNL     1      16.609   8.239  20.853  0.00  0.00    +0.204 A 
ENDROOT
BRANCH  16  18
ATOM      6  N   UNL     1      20.056   7.026  21.546  0.00  0.00    -0.254 NA
ATOM     18  C   UNL     1      17.788   7.424  20.806  0.00  0.00    +0.041 A 
ATOM     22  C   UNL     1      17.838   6.280  20.015  0.00  0.00    +0.015 A 
ATOM     23  C   UNL     1      18.913   7.750  21.545  0.00  0.00    +0.123 A 
ATOM     24  C   UNL     1      18.995   5.510  19.990  0.00  0.00    +0.029 A 
ATOM     25  C   UNL     1      20.066   5.922  20.766  0.00  0.00    +0.074 A 
BRANCH  25  26
ATOM      7  N   UNL     1      22.469   3.096  21.128  0.00  0.00    -0.243 NA
ATOM      8  N   UNL     1      23.690   5.083  20.525  0.00  0.00    -0.243 NA
ATOM     26  C   UNL     1      21.299   5.172  20.788  0.00  0.00    +0.037 A 
ATOM     27  C   UNL     1      21.335   3.827  21.094  0.00  0.00    +0.124 A 
ATOM     28  C   UNL     1      22.520   5.754  20.510  0.00  0.00    +0.124 A 
ATOM     29  C   UNL     1      23.594   3.778  20.838  0.00  0.00    +0.221 A 
ENDBRANCH  25  26
ENDBRANCH  16  18
BRANCH  14   9
ATOM      2  N   UNL     1      12.427   7.940  20.050  0.00  0.00    -0.286 NA
ATOM      9  C   UNL     1      13.259   9.160  20.037  0.00  0.00    +0.146 C 
ATOM     10  C   UNL     1      12.525  10.144  20.967  0.00  0.00    +0.030 C 
ATOM     11  C   UNL     1      11.264   9.413  21.405  0.00  0.00    +0.017 C 
ATOM     12  C   UNL     1      11.057   8.377  20.317  0.00  0.00    +0.085 C 
BRANCH   2  13
ATOM     13  C   UNL     1      12.525   7.165  18.820  0.00  0.00    +0.140 C 
BRANCH  13  15
ATOM      5  N   UNL     1      10.936   8.031  17.195  0.00  0.00    -0.259 NA
ATOM     15  C   UNL     1      12.224   8.002  17.605  0.00  0.00    +0.055 A 
ATOM     17  C   UNL     1      13.253   8.686  16.978  0.00  0.00    +0.024 A 
ATOM     19  C   UNL     1      12.941   9.449  15.858  0.00  0.00    +0.003 A 
ATOM     20  C   UNL     1      10.671   8.784  16.103  0.00  0.00    +0.111 A 
ATOM     21  C   UNL     1      11.626   9.503  15.406  0.00  0.00    +0.020 A 
ENDBRANCH  13  15
ENDBRANCH   2  13
ENDBRANCH  14   9
TORSDOF 5
ENDMDL
MODEL 3
REMARK VINA RESULT:      -7.3     29.515     33.143
REMARK  Name = 51136912
REMARK  5 active torsions:
REMARK  status: ('A' for Active; 'I' for Inactive)
REMARK    1  A    between atoms: N_2  and  C_13
REMARK    2  A    between atoms: C_9  and  C_14
REMARK    3  A    between atoms: C_13  and  C_15
REMARK    4  A    between atoms: C_16  and  C_18
REMARK    5  A    between atoms: C_25  and  C_26
REMARK                            x       y       z     vdW  Elec       q    Type
REMARK                         _______ _______ _______ _____ _____    ______ ____
ROOT
ATOM      1  O   UNL     1      15.013   8.621  19.802  0.00  0.00    -0.336 OA
ATOM      3  N   UNL     1      15.930   6.735  19.014  0.00  0.00    -0.190 NA
ATOM      4  N   UNL     1      16.194   8.428  20.530  0.00  0.00    -0.056 NA
ATOM     14  C   UNL     1      14.933   7.580  18.931  0.00  0.00    +0.245 A 
ATOM     16  C   UNL     1      16.677   7.297  20.008  0.00  0.00    +0.204 A 
ENDROOT
BRANCH  16  18
ATOM      6  N   UNL     1      19.701   6.642  22.072  0.00  0.00    -0.254 NA
ATOM     18  C   UNL     1      17.903   6.701  20.457  0.00  0.00    +0.041 A 
ATOM     22  C   UNL     1      18.483   5.646  19.761  0.00  0.00    +0.015 A 
ATOM     23  C   UNL     1      18.545   7.159  21.595  0.00  0.00    +0.123 A 
ATOM     24  C   UNL     1      19.671   5.089  20.220  0.00  0.00    +0.029 A 
ATOM     25  C   UNL     1      20.235   5.618  21.370  0.00  0.00    +0.074 A 
BRANCH  25  26
ATOM      7  N   UNL     1      22.961   3.236  22.254  0.00  0.00    -0.243 NA
ATOM      8  N   UNL     1      23.526   5.416  23.108  0.00  0.00    -0.243 NA
ATOM     26  C   UNL     1      21.467   5.090  21.904  0.00  0.00    +0.037 A 
ATOM     27  C   UNL     1      21.820   3.763  21.765  0.00  0.00    +0.124 A 
ATOM     28  C   UNL     1      22.368   5.878  22.593  0.00  0.00    +0.124 A 
ATOM     29  C   UNL     1      23.757   4.106  22.905  0.00  0.00    +0.221 A 
ENDBRANCH  25  26
ENDBRANCH  16  18
BRANCH  14   9
ATOM      2  N   UNL     1      12.634   8.425  18.496  0.00  0.00    -0.286 NA
ATOM      9  C   UNL     1      13.728   7.558  18.016  0.00  0.00    +0.146 C 
ATOM     10  C   UNL     1      14.047   8.078  16.602  0.00  0.00    +0.030 C 
ATOM     11  C   UNL     1      13.043   9.195  16.352  0.00  0.00    +0.017 C 
ATOM     12  C   UNL     1      11.910   8.874  17.307  0.00  0.00    +0.085 C 
BRANCH   2  13
ATOM     13  C   UNL     1      11.757   7.765  19.455  0.00  0.00    +0.140 C 
BRANCH  13  15
ATOM      5  N   UNL     1      10.770   8.079  21.655  0.00  0.00    -0.259 NA
ATOM     15  C   UNL     1      11.457   8.645  20.639  0.00  0.00    +0.055 A 
ATOM     17  C   UNL     1      11.890   9.961  20.634  0.00  0.00    +0.024 A 
ATOM     19  C   UNL     1      11.597  10.748  21.743  0.00  0.00    +0.003 A 
ATOM     20  C   UNL     1      10.503   8.874  22.717  0.00  0.00    +0.111 A 
ATOM     21  C   UNL     1      10.890  10.200  22.808  0.00  0.00    +0.020 A 
ENDBRANCH  13  15
ENDBRANCH   2  13
ENDBRANCH  14   9
TORSDOF 5
ENDMDL
MODEL 4
REMARK VINA RESULT:      -7.2     17.865     19.667
REMARK  Name = 51136912
REMARK  5 active torsions:
REMARK  status: ('A' for Active; 'I' for Inactive)
REMARK    1  A    between atoms: N_2  and  C_13
REMARK    2  A    between atoms: C_9  and  C_14
REMARK    3  A    between atoms: C_13  and  C_15
REMARK    4  A    between atoms: C_16  and  C_18
REMARK    5  A    between atoms: C_25  and  C_26
REMARK                            x       y       z     vdW  Elec       q    Type
REMARK                         _______ _______ _______ _____ _____    ______ ____
ROOT
ATOM      1  O   UNL     1      -4.896 -11.601  17.022  0.00  0.00    -0.336 OA
ATOM      3  N   UNL     1      -5.513 -10.144  15.437  0.00  0.00    -0.190 NA
ATOM      4  N   UNL     1      -6.193 -11.190  17.355  0.00  0.00    -0.056 NA
ATOM     14  C   UNL     1      -4.572 -10.937  15.881  0.00  0.00    +0.245 A 
ATOM     16  C   UNL     1      -6.488 -10.332  16.374  0.00  0.00    +0.204 A 
ENDROOT
BRANCH  16  18
ATOM      6  N   UNL     1      -9.647  -8.952  14.978  0.00  0.00    -0.254 NA
ATOM     18  C   UNL     1      -7.745  -9.645  16.301  0.00  0.00    +0.041 A 
ATOM     22  C   UNL     1      -8.287  -9.021  17.420  0.00  0.00    +0.015 A 
ATOM     23  C   UNL     1      -8.458  -9.582  15.114  0.00  0.00    +0.123 A 
ATOM     24  C   UNL     1      -9.507  -8.363  17.319  0.00  0.00    +0.029 A 
ATOM     25  C   UNL     1     -10.141  -8.358  16.087  0.00  0.00    +0.074 A 
BRANCH  25  26
ATOM      7  N   UNL     1     -13.797  -7.642  16.220  0.00  0.00    -0.243 NA
ATOM      8  N   UNL     1     -12.692  -5.837  15.069  0.00  0.00    -0.243 NA
ATOM     26  C   UNL     1     -11.411  -7.694  15.908  0.00  0.00    +0.037 A 
ATOM     27  C   UNL     1     -12.593  -8.233  16.372  0.00  0.00    +0.124 A 
ATOM     28  C   UNL     1     -11.522  -6.482  15.256  0.00  0.00    +0.124 A 
ATOM     29  C   UNL     1     -13.773  -6.463  15.568  0.00  0.00    +0.221 A 
ENDBRANCH  25  26
ENDBRANCH  16  18
BRANCH  14   9
ATOM      2  N   UNL     1      -2.951 -10.483  14.048  0.00  0.00    -0.286 NA
ATOM      9  C   UNL     1      -3.199 -11.214  15.307  0.00  0.00    +0.146 C 
ATOM     10  C   UNL     1      -2.062 -10.771  16.247  0.00  0.00    +0.030 C 
ATOM     11  C   UNL     1      -1.194  -9.840  15.411  0.00  0.00    +0.017 C 
ATOM     12  C   UNL     1      -1.509 -10.246  13.985  0.00  0.00    +0.085 C 
BRANCH   2  13
ATOM     13  C   UNL     1      -3.444 -11.184  12.870  0.00  0.00    +0.140 C 
BRANCH  13  15
ATOM      5  N   UNL     1      -5.102  -9.630  12.005  0.00  0.00    -0.259 NA
ATOM     15  C   UNL     1      -3.908 -10.230  11.802  0.00  0.00    +0.055 A 
ATOM     17  C   UNL     1      -3.111 -10.015  10.690  0.00  0.00    +0.024 A 
ATOM     19  C   UNL     1      -3.569  -9.127   9.722  0.00  0.00    +0.003 A 
ATOM     20  C   UNL     1      -5.515  -8.773  11.042  0.00  0.00    +0.111 A 
ATOM     21  C   UNL     1      -4.793  -8.491   9.895  0.00  0.00    +0.020 A 
ENDBRANCH  13  15
ENDBRANCH   2  13
ENDBRANCH  14   9
TORSDOF 5
ENDMDL
MODEL 5
REMARK VINA RESULT:      -6.9     18.456     19.703
REMARK  Name = 51136912
REMARK  5 active torsions:
REMARK  status: ('A' for Active; 'I' for Inactive)
REMARK    1  A    between atoms: N_2  and  C_13
REMARK    2  A    between atoms: C_9  and  C_14
REMARK    3  A    between atoms: C_13  and  C_15
REMARK    4  A    between atoms: C_16  and  C_18
REMARK    5  A    between atoms: C_25  and  C_26
REMARK                            x       y       z     vdW  Elec       q    Type
REMARK                         _______ _______ _______ _____ _____    ______ ____
ROOT
ATOM      1  O   UNL     1      -5.086  -9.730  15.930  0.00  0.00    -0.336 OA
ATOM      3  N   UNL     1      -5.265 -11.735  16.913  0.00  0.00    -0.190 NA
ATOM      4  N   UNL     1      -6.287  -9.705  16.650  0.00  0.00    -0.056 NA
ATOM     14  C   UNL     1      -4.547 -10.961  16.139  0.00  0.00    +0.245 A 
ATOM     16  C   UNL     1      -6.322 -10.921  17.202  0.00  0.00    +0.204 A 
ENDROOT
BRANCH  16  18
ATOM      6  N   UNL     1      -9.679 -11.071  18.794  0.00  0.00    -0.254 NA
ATOM     18  C   UNL     1      -7.398 -11.356  18.044  0.00  0.00    +0.041 A 
ATOM     22  C   UNL     1      -7.242 -12.436  18.907  0.00  0.00    +0.015 A 
ATOM     23  C   UNL     1      -8.625 -10.713  18.026  0.00  0.00    +0.123 A 
ATOM     24  C   UNL     1      -8.303 -12.834  19.712  0.00  0.00    +0.029 A 
ATOM     25  C   UNL     1      -9.490 -12.126  19.619  0.00  0.00    +0.074 A 
BRANCH  25  26
ATOM      7  N   UNL     1     -11.689 -13.957  22.007  0.00  0.00    -0.243 NA
ATOM      8  N   UNL     1     -12.883 -12.044  21.159  0.00  0.00    -0.243 NA
ATOM     26  C   UNL     1     -10.633 -12.482  20.424  0.00  0.00    +0.037 A 
ATOM     27  C   UNL     1     -10.637 -13.593  21.243  0.00  0.00    +0.124 A 
ATOM     28  C   UNL     1     -11.796 -11.738  20.422  0.00  0.00    +0.124 A 
ATOM     29  C   UNL     1     -12.764 -13.150  21.917  0.00  0.00    +0.221 A 
ENDBRANCH  25  26
ENDBRANCH  16  18
BRANCH  14   9
ATOM      2  N   UNL     1      -3.070 -10.503  14.190  0.00  0.00    -0.286 NA
ATOM      9  C   UNL     1      -3.225 -11.243  15.459  0.00  0.00    +0.146 C 
ATOM     10  C   UNL     1      -2.016 -10.816  16.311  0.00  0.00    +0.030 C 
ATOM     11  C   UNL     1      -1.208  -9.885  15.418  0.00  0.00    +0.017 C 
ATOM     12  C   UNL     1      -1.635 -10.275  14.017  0.00  0.00    +0.085 C 
BRANCH   2  13
ATOM     13  C   UNL     1      -3.657 -11.191  13.048  0.00  0.00    +0.140 C 
BRANCH  13  15
ATOM      5  N   UNL     1      -5.254  -9.602  12.130  0.00  0.00    -0.259 NA
ATOM     15  C   UNL     1      -4.068 -10.229  11.965  0.00  0.00    +0.055 A 
ATOM     17  C   UNL     1      -3.233 -10.034  10.876  0.00  0.00    +0.024 A 
ATOM     19  C   UNL     1      -3.641  -9.139   9.893  0.00  0.00    +0.003 A 
ATOM     20  C   UNL     1      -5.618  -8.739  11.154  0.00  0.00    +0.111 A 
ATOM     21  C   UNL     1      -4.856  -8.476  10.028  0.00  0.00    +0.020 A 
ENDBRANCH  13  15
ENDBRANCH   2  13
ENDBRANCH  14   9
TORSDOF 5
ENDMDL
MODEL 6
REMARK VINA RESULT:      -6.9     30.518     35.148
REMARK  Name = 51136912
REMARK  5 active torsions:
REMARK  status: ('A' for Active; 'I' for Inactive)
REMARK    1  A    between atoms: N_2  and  C_13
REMARK    2  A    between atoms: C_9  and  C_14
REMARK    3  A    between atoms: C_13  and  C_15
REMARK    4  A    between atoms: C_16  and  C_18
REMARK    5  A    between atoms: C_25  and  C_26
REMARK                            x       y       z     vdW  Elec       q    Type
REMARK                         _______ _______ _______ _____ _____    ______ ____
ROOT
ATOM      1  O   UNL     1      10.276   7.444  -0.528  0.00  0.00    -0.336 OA
ATOM      3  N   UNL     1      10.332   5.468   0.526  0.00  0.00    -0.190 NA
ATOM      4  N   UNL     1      10.060   7.720   0.828  0.00  0.00    -0.056 NA
ATOM     14  C   UNL     1      10.426   6.095  -0.618  0.00  0.00    +0.245 A 
ATOM     16  C   UNL     1      10.108   6.506   1.384  0.00  0.00    +0.204 A 
ENDROOT
BRANCH  16  18
ATOM      6  N   UNL     1      10.536   5.071   4.788  0.00  0.00    -0.254 NA
ATOM     18  C   UNL     1       9.934   6.295   2.792  0.00  0.00    +0.041 A 
ATOM     22  C   UNL     1       9.035   7.063   3.526  0.00  0.00    +0.015 A 
ATOM     23  C   UNL     1      10.653   5.320   3.464  0.00  0.00    +0.123 A 
ATOM     24  C   UNL     1       8.887   6.835   4.889  0.00  0.00    +0.029 A 
ATOM     25  C   UNL     1       9.654   5.837   5.468  0.00  0.00    +0.074 A 
BRANCH  25  26
ATOM      7  N   UNL     1       8.987   6.235   9.113  0.00  0.00    -0.243 NA
ATOM      8  N   UNL     1       9.839   4.017   8.715  0.00  0.00    -0.243 NA
ATOM     26  C   UNL     1       9.553   5.545   6.878  0.00  0.00    +0.037 A 
ATOM     27  C   UNL     1       9.091   6.472   7.789  0.00  0.00    +0.124 A 
ATOM     28  C   UNL     1       9.918   4.322   7.404  0.00  0.00    +0.124 A 
ATOM     29  C   UNL     1       9.373   5.004   9.502  0.00  0.00    +0.221 A 
ENDBRANCH  25  26
ENDBRANCH  16  18
BRANCH  14   9
ATOM      2  N   UNL     1      11.524   4.328  -1.983  0.00  0.00    -0.286 NA
ATOM      9  C   UNL     1      10.675   5.536  -2.003  0.00  0.00    +0.146 C 
ATOM     10  C   UNL     1       9.380   5.092  -2.706  0.00  0.00    +0.030 C 
ATOM     11  C   UNL     1       9.616   3.640  -3.098  0.00  0.00    +0.017 C 
ATOM     12  C   UNL     1      11.127   3.525  -3.139  0.00  0.00    +0.085 C 
BRANCH   2  13
ATOM     13  C   UNL     1      12.950   4.628  -1.987  0.00  0.00    +0.140 C 
BRANCH  13  15
ATOM      5  N   UNL     1      14.890   4.627  -0.519  0.00  0.00    -0.259 NA
ATOM     15  C   UNL     1      13.610   4.228  -0.694  0.00  0.00    +0.055 A 
ATOM     17  C   UNL     1      12.895   3.489   0.235  0.00  0.00    +0.024 A 
ATOM     19  C   UNL     1      13.534   3.136   1.419  0.00  0.00    +0.003 A 
ATOM     20  C   UNL     1      15.478   4.265   0.644  0.00  0.00    +0.111 A 
ATOM     21  C   UNL     1      14.851   3.528   1.634  0.00  0.00    +0.020 A 
ENDBRANCH  13  15
ENDBRANCH   2  13
ENDBRANCH  14   9
TORSDOF 5
ENDMDL
MODEL 7
REMARK VINA RESULT:      -6.8     29.832     33.493
REMARK  Name = 51136912
REMARK  5 active torsions:
REMARK  status: ('A' for Active; 'I' for Inactive)
REMARK    1  A    between atoms: N_2  and  C_13
REMARK    2  A    between atoms: C_9  and  C_14
REMARK    3  A    between atoms: C_13  and  C_15
REMARK    4  A    between atoms: C_16  and  C_18
REMARK    5  A    between atoms: C_25  and  C_26
REMARK                            x       y       z     vdW  Elec       q    Type
REMARK                         _______ _______ _______ _____ _____    ______ ____
ROOT
ATOM      1  O   UNL     1      14.323   6.694  19.851  0.00  0.00    -0.336 OA
ATOM      3  N   UNL     1      15.574   7.750  21.380  0.00  0.00    -0.190 NA
ATOM      4  N   UNL     1      15.622   6.191  19.706  0.00  0.00    -0.056 NA
ATOM     14  C   UNL     1      14.383   7.606  20.858  0.00  0.00    +0.245 A 
ATOM     16  C   UNL     1      16.300   6.861  20.641  0.00  0.00    +0.204 A 
ENDROOT
BRANCH  16  18
ATOM      6  N   UNL     1      19.685   7.193  22.147  0.00  0.00    -0.254 NA
ATOM     18  C   UNL     1      17.705   6.668  20.863  0.00  0.00    +0.041 A 
ATOM     22  C   UNL     1      18.446   5.810  20.057  0.00  0.00    +0.015 A 
ATOM     23  C   UNL     1      18.365   7.330  21.885  0.00  0.00    +0.123 A 
ATOM     24  C   UNL     1      19.805   5.644  20.295  0.00  0.00    +0.029 A 
ATOM     25  C   UNL     1      20.372   6.351  21.343  0.00  0.00    +0.074 A 
BRANCH  25  26
ATOM      7  N   UNL     1      23.629   4.909  22.441  0.00  0.00    -0.243 NA
ATOM      8  N   UNL     1      23.980   7.190  21.751  0.00  0.00    -0.243 NA
ATOM     26  C   UNL     1      21.777   6.227  21.649  0.00  0.00    +0.037 A 
ATOM     27  C   UNL     1      22.321   5.059  22.142  0.00  0.00    +0.124 A 
ATOM     28  C   UNL     1      22.663   7.271  21.473  0.00  0.00    +0.124 A 
ATOM     29  C   UNL     1      24.390   5.999  22.225  0.00  0.00    +0.221 A 
ENDBRANCH  25  26
ENDBRANCH  16  18
BRANCH  14   9
ATOM      2  N   UNL     1      12.338   8.754  20.025  0.00  0.00    -0.286 NA
ATOM      9  C   UNL     1      13.087   8.303  21.215  0.00  0.00    +0.146 C 
ATOM     10  C   UNL     1      12.107   7.384  21.968  0.00  0.00    +0.030 C 
ATOM     11  C   UNL     1      10.818   7.429  21.160  0.00  0.00    +0.017 C 
ATOM     12  C   UNL     1      10.923   8.733  20.394  0.00  0.00    +0.085 C 
BRANCH   2  13
ATOM     13  C   UNL     1      12.759  10.063  19.543  0.00  0.00    +0.140 C 
BRANCH  13  15
ATOM      5  N   UNL     1      13.118   8.838  17.473  0.00  0.00    -0.259 NA
ATOM     15  C   UNL     1      13.311   9.995  18.144  0.00  0.00    +0.055 A 
ATOM     17  C   UNL     1      13.973  11.094  17.620  0.00  0.00    +0.024 A 
ATOM     19  C   UNL     1      14.471  10.999  16.325  0.00  0.00    +0.003 A 
ATOM     20  C   UNL     1      13.616   8.782  16.216  0.00  0.00    +0.111 A 
ATOM     21  C   UNL     1      14.292   9.823  15.604  0.00  0.00    +0.020 A 
ENDBRANCH  13  15
ENDBRANCH   2  13
ENDBRANCH  14   9
TORSDOF 5
ENDMDL
MODEL 8
REMARK VINA RESULT:      -6.7     14.580     16.114
REMARK  Name = 51136912
REMARK  5 active torsions:
REMARK  status: ('A' for Active; 'I' for Inactive)
REMARK    1  A    between atoms: N_2  and  C_13
REMARK    2  A    between atoms: C_9  and  C_14
REMARK    3  A    between atoms: C_13  and  C_15
REMARK    4  A    between atoms: C_16  and  C_18
REMARK    5  A    between atoms: C_25  and  C_26
REMARK                            x       y       z     vdW  Elec       q    Type
REMARK                         _______ _______ _______ _____ _____    ______ ____
ROOT
ATOM      1  O   UNL     1     -13.375  -6.314  12.714  0.00  0.00    -0.336 OA
ATOM      3  N   UNL     1     -11.866  -5.411  14.099  0.00  0.00    -0.190 NA
ATOM      4  N   UNL     1     -12.827  -7.379  13.439  0.00  0.00    -0.056 NA
ATOM     14  C   UNL     1     -12.754  -5.192  13.164  0.00  0.00    +0.245 A 
ATOM     16  C   UNL     1     -11.946  -6.766  14.235  0.00  0.00    +0.204 A 
ENDROOT
BRANCH  16  18
ATOM      6  N   UNL     1      -9.696  -9.367  15.651  0.00  0.00    -0.254 NA
ATOM     18  C   UNL     1     -11.129  -7.479  15.175  0.00  0.00    +0.041 A 
ATOM     22  C   UNL     1     -10.964  -7.017  16.476  0.00  0.00    +0.015 A 
ATOM     23  C   UNL     1     -10.479  -8.649  14.815  0.00  0.00    +0.123 A 
ATOM     24  C   UNL     1     -10.167  -7.728  17.365  0.00  0.00    +0.029 A 
ATOM     25  C   UNL     1      -9.560  -8.887  16.908  0.00  0.00    +0.074 A 
BRANCH  25  26
ATOM      7  N   UNL     1      -8.477 -11.191  19.630  0.00  0.00    -0.243 NA
ATOM      8  N   UNL     1      -6.530 -10.436  18.429  0.00  0.00    -0.243 NA
ATOM     26  C   UNL     1      -8.718  -9.677  17.774  0.00  0.00    +0.037 A 
ATOM     27  C   UNL     1      -9.234 -10.443  18.799  0.00  0.00    +0.124 A 
ATOM     28  C   UNL     1      -7.345  -9.711  17.635  0.00  0.00    +0.124 A 
ATOM     29  C   UNL     1      -7.152 -11.141  19.392  0.00  0.00    +0.221 A 
ENDBRANCH  25  26
ENDBRANCH  16  18
BRANCH  14   9
ATOM      2  N   UNL     1     -13.127  -3.929  11.053  0.00  0.00    -0.286 NA
ATOM      9  C   UNL     1     -13.178  -3.885  12.528  0.00  0.00    +0.146 C 
ATOM     10  C   UNL     1     -14.634  -3.509  12.858  0.00  0.00    +0.030 C 
ATOM     11  C   UNL     1     -15.308  -3.302  11.509  0.00  0.00    +0.017 C 
ATOM     12  C   UNL     1     -14.152  -3.000  10.576  0.00  0.00    +0.085 C 
BRANCH   2  13
ATOM     13  C   UNL     1     -11.811  -3.616  10.514  0.00  0.00    +0.140 C 
BRANCH  13  15
ATOM      5  N   UNL     1     -11.953  -5.905   9.704  0.00  0.00    -0.259 NA
ATOM     15  C   UNL     1     -11.265  -4.742   9.676  0.00  0.00    +0.055 A 
ATOM     17  C   UNL     1     -10.113  -4.540   8.934  0.00  0.00    +0.024 A 
ATOM     19  C   UNL     1      -9.635  -5.601   8.171  0.00  0.00    +0.003 A 
ATOM     20  C   UNL     1     -11.459  -6.913   8.950  0.00  0.00    +0.111 A 
ATOM     21  C   UNL     1     -10.316  -6.813   8.175  0.00  0.00    +0.020 A 
ENDBRANCH  13  15
ENDBRANCH   2  13
ENDBRANCH  14   9
TORSDOF 5
ENDMDL
MODEL 9
REMARK VINA RESULT:      -6.7     29.174     33.005
REMARK  Name = 51136912
REMARK  5 active torsions:
REMARK  status: ('A' for Active; 'I' for Inactive)
REMARK    1  A    between atoms: N_2  and  C_13
REMARK    2  A    between atoms: C_9  and  C_14
REMARK    3  A    between atoms: C_13  and  C_15
REMARK    4  A    between atoms: C_16  and  C_18
REMARK    5  A    between atoms: C_25  and  C_26
REMARK                            x       y       z     vdW  Elec       q    Type
REMARK                         _______ _______ _______ _____ _____    ______ ____
ROOT
ATOM      1  O   UNL     1      13.313   7.658  19.863  0.00  0.00    -0.336 OA
ATOM      3  N   UNL     1      15.168   8.913  19.875  0.00  0.00    -0.190 NA
ATOM      4  N   UNL     1      14.385   6.767  20.010  0.00  0.00    -0.056 NA
ATOM     14  C   UNL     1      13.862   8.899  19.791  0.00  0.00    +0.245 A 
ATOM     16  C   UNL     1      15.443   7.583  20.009  0.00  0.00    +0.204 A 
ENDROOT
BRANCH  16  18
ATOM      6  N   UNL     1      18.960   7.291  21.182  0.00  0.00    -0.254 NA
ATOM     18  C   UNL     1      16.788   7.101  20.137  0.00  0.00    +0.041 A 
ATOM     22  C   UNL     1      17.238   6.021  19.384  0.00  0.00    +0.015 A 
ATOM     23  C   UNL     1      17.681   7.696  21.014  0.00  0.00    +0.123 A 
ATOM     24  C   UNL     1      18.546   5.577  19.529  0.00  0.00    +0.029 A 
ATOM     25  C   UNL     1      19.360   6.239  20.433  0.00  0.00    +0.074 A 
BRANCH  25  26
ATOM      7  N   UNL     1      22.347   4.108  21.086  0.00  0.00    -0.243 NA
ATOM      8  N   UNL     1      23.068   6.386  20.785  0.00  0.00    -0.243 NA
ATOM     26  C   UNL     1      20.730   5.833  20.636  0.00  0.00    +0.037 A 
ATOM     27  C   UNL     1      21.078   4.522  20.889  0.00  0.00    +0.124 A 
ATOM     28  C   UNL     1      21.778   6.731  20.597  0.00  0.00    +0.124 A 
ATOM     29  C   UNL     1      23.279   5.078  21.022  0.00  0.00    +0.221 A 
ENDBRANCH  25  26
ENDBRANCH  16  18
BRANCH  14   9
ATOM      2  N   UNL     1      12.830  10.910  20.831  0.00  0.00    -0.286 NA
ATOM      9  C   UNL     1      12.898  10.055  19.629  0.00  0.00    +0.146 C 
ATOM     10  C   UNL     1      13.301  11.010  18.491  0.00  0.00    +0.030 C 
ATOM     11  C   UNL     1      13.377  12.387  19.135  0.00  0.00    +0.017 C 
ATOM     12  C   UNL     1      12.497  12.255  20.362  0.00  0.00    +0.085 C 
BRANCH   2  13
ATOM     13  C   UNL     1      11.883  10.427  21.827  0.00  0.00    +0.140 C 
BRANCH  13  15
ATOM      5  N   UNL     1      13.267  11.283  23.634  0.00  0.00    -0.259 NA
ATOM     15  C   UNL     1      12.018  11.164  23.133  0.00  0.00    +0.055 A 
ATOM     17  C   UNL     1      10.885  11.675  23.745  0.00  0.00    +0.024 A 
ATOM     19  C   UNL     1      11.043  12.350  24.950  0.00  0.00    +0.003 A 
ATOM     20  C   UNL     1      13.383  11.946  24.808  0.00  0.00    +0.111 A 
ATOM     21  C   UNL     1      12.314  12.492  25.498  0.00  0.00    +0.020 A 
ENDBRANCH  13  15
ENDBRANCH   2  13
ENDBRANCH  14   9
TORSDOF 5
ENDMDL
MODEL 10
REMARK VINA RESULT:      -6.6     29.458     33.174
REMARK  Name = 51136912
REMARK  5 active torsions:
REMARK  status: ('A' for Active; 'I' for Inactive)
REMARK    1  A    between atoms: N_2  and  C_13
REMARK    2  A    between atoms: C_9  and  C_14
REMARK    3  A    between atoms: C_13  and  C_15
REMARK    4  A    between atoms: C_16  and  C_18
REMARK    5  A    between atoms: C_25  and  C_26
REMARK                            x       y       z     vdW  Elec       q    Type
REMARK                         _______ _______ _______ _____ _____    ______ ____
ROOT
ATOM      1  O   UNL     1      14.259   6.877  19.734  0.00  0.00    -0.336 OA
ATOM      3  N   UNL     1      15.581   7.352  21.478  0.00  0.00    -0.190 NA
ATOM      4  N   UNL     1      15.527   6.377  19.409  0.00  0.00    -0.056 NA
ATOM     14  C   UNL     1      14.379   7.436  20.968  0.00  0.00    +0.245 A 
ATOM     16  C   UNL     1      16.250   6.695  20.487  0.00  0.00    +0.204 A 
ENDROOT
BRANCH  16  18
ATOM      6  N   UNL     1      19.528   5.053  19.860  0.00  0.00    -0.254 NA
ATOM     18  C   UNL     1      17.643   6.373  20.603  0.00  0.00    +0.041 A 
ATOM     22  C   UNL     1      18.454   7.023  21.528  0.00  0.00    +0.015 A 
ATOM     23  C   UNL     1      18.223   5.404  19.801  0.00  0.00    +0.123 A 
ATOM     24  C   UNL     1      19.800   6.689  21.618  0.00  0.00    +0.029 A 
ATOM     25  C   UNL     1      20.284   5.707  20.770  0.00  0.00    +0.074 A 
BRANCH  25  26
ATOM      7  N   UNL     1      24.002   5.853  20.562  0.00  0.00    -0.243 NA
ATOM      8  N   UNL     1      23.344   3.613  21.153  0.00  0.00    -0.243 NA
ATOM     26  C   UNL     1      21.671   5.309  20.808  0.00  0.00    +0.037 A 
ATOM     27  C   UNL     1      22.696   6.192  20.538  0.00  0.00    +0.124 A 
ATOM     28  C   UNL     1      22.058   4.019  21.111  0.00  0.00    +0.124 A 
ATOM     29  C   UNL     1      24.251   4.566  20.871  0.00  0.00    +0.221 A 
ENDBRANCH  25  26
ENDBRANCH  16  18
BRANCH  14   9
ATOM      2  N   UNL     1      12.651   9.215  20.772  0.00  0.00    -0.286 NA
ATOM      9  C   UNL     1      13.128   8.055  21.552  0.00  0.00    +0.146 C 
ATOM     10  C   UNL     1      11.936   7.080  21.571  0.00  0.00    +0.030 C 
ATOM     11  C   UNL     1      10.818   7.802  20.832  0.00  0.00    +0.017 C 
ATOM     12  C   UNL     1      11.200   9.265  20.951  0.00  0.00    +0.085 C 
BRANCH   2  13
ATOM     13  C   UNL     1      13.293  10.466  21.153  0.00  0.00    +0.140 C 
BRANCH  13  15
ATOM      5  N   UNL     1      12.325  11.065  23.302  0.00  0.00    -0.259 NA
ATOM     15  C   UNL     1      12.382  11.335  21.979  0.00  0.00    +0.055 A 
ATOM     17  C   UNL     1      11.663  12.346  21.362  0.00  0.00    +0.024 A 
ATOM     19  C   UNL     1      10.831  13.131  22.153  0.00  0.00    +0.003 A 
ATOM     20  C   UNL     1      11.505  11.849  24.040  0.00  0.00    +0.111 A 
ATOM     21  C   UNL     1      10.745  12.883  23.519  0.00  0.00    +0.020 A 
ENDBRANCH  13  15
ENDBRANCH   2  13
ENDBRANCH  14   9
TORSDOF 5
ENDMDL
