MODEL 1
REMARK VINA RESULT:      -6.8      0.000      0.000
REMARK  Name = 75536682
REMARK  8 active torsions:
REMARK  status: ('A' for Active; 'I' for Inactive)
REMARK    1  A    between atoms: S_1  and  N_7
REMARK    2  A    between atoms: S_1  and  C_15
REMARK    3  A    between atoms: O_3  and  C_9
REMARK    4  A    between atoms: N_6  and  C_8
REMARK    5  A    between atoms: N_6  and  C_13
REMARK    6  A    between atoms: N_7  and  C_12
REMARK    7  A    between atoms: C_10  and  C_12
REMARK    8  A    between atoms: C_13  and  C_14
REMARK                            x       y       z     vdW  Elec       q    Type
REMARK                         _______ _______ _______ _____ _____    ______ ____
ROOT
ATOM      2  O   UNL     1      16.213   6.052  18.932  0.00  0.00    -0.371 OA
ATOM      8  C   UNL     1      17.238   6.341  21.054  0.00  0.00    +0.111 C 
ATOM      9  C   UNL     1      15.949   7.140  21.015  0.00  0.00    +0.164 C 
ATOM     10  C   UNL     1      15.207   6.445  19.881  0.00  0.00    +0.164 C 
ATOM     11  C   UNL     1      17.498   6.116  19.574  0.00  0.00    +0.181 C 
ENDROOT
BRANCH   9   3
ATOM      3  O   UNL     1      15.230   7.077  22.231  0.00  0.00    -0.388 OA
ATOM     27  H   UNL     1      14.303   7.308  22.050  0.00  0.00    +0.210 HD
ENDBRANCH   9   3
BRANCH   8   6
ATOM      6  N   UNL     1      18.331   7.030  21.722  0.00  0.00    -0.305 NA
ATOM     26  H   UNL     1      18.505   6.584  22.623  0.00  0.00    +0.123 HD
BRANCH   6  13
ATOM     13  C   UNL     1      19.551   6.976  20.925  0.00  0.00    +0.116 C 
BRANCH  13  14
ATOM     14  C   UNL     1      20.492   5.908  21.412  0.00  0.00    -0.034 A 
ATOM     16  C   UNL     1      21.147   6.059  22.635  0.00  0.00    +0.005 A 
ATOM     17  C   UNL     1      20.710   4.766  20.641  0.00  0.00    +0.005 A 
ATOM     20  C   UNL     1      22.018   5.068  23.086  0.00  0.00    +0.000 A 
ATOM     21  C   UNL     1      21.581   3.776  21.093  0.00  0.00    +0.000 A 
ATOM     22  C   UNL     1      22.236   3.926  22.315  0.00  0.00    +0.000 A 
ENDBRANCH  13  14
ENDBRANCH   6  13
ENDBRANCH   8   6
BRANCH  10  12
ATOM     12  C   UNL     1      14.180   7.332  19.202  0.00  0.00    +0.140 C 
BRANCH  12   7
ATOM      7  N   UNL     1      13.343   7.991  20.223  0.00  0.00    -0.187 NA
ATOM     28  H   UNL     1      13.261   7.496  21.120  0.00  0.00    +0.148 HD
BRANCH   7   1
ATOM      1  S   UNL     1      12.077   9.025  19.751  0.00  0.00    +0.058 S 
ATOM      4  O   UNL     1      12.054  10.186  20.621  0.00  0.00    -0.153 OA
ATOM      5  O   UNL     1      10.875   8.239  19.551  0.00  0.00    -0.153 OA
BRANCH   1  15
ATOM     15  C   UNL     1      12.620   9.554  18.153  0.00  0.00    +0.105 A 
ATOM     18  C   UNL     1      12.042   9.011  17.006  0.00  0.00    +0.028 A 
ATOM     19  C   UNL     1      13.628  10.511  18.040  0.00  0.00    +0.028 A 
ATOM     23  C   UNL     1      12.472   9.425  15.745  0.00  0.00    +0.002 A 
ATOM     24  C   UNL     1      14.058  10.925  16.779  0.00  0.00    +0.002 A 
ATOM     25  C   UNL     1      13.480  10.383  15.632  0.00  0.00    +0.000 A 
ENDBRANCH   1  15
ENDBRANCH   7   1
ENDBRANCH  12   7
ENDBRANCH  10  12
TORSDOF 8
ENDMDL
MODEL 2
REMARK VINA RESULT:      -6.8      2.311      3.321
REMARK  Name = 75536682
REMARK  8 active torsions:
REMARK  status: ('A' for Active; 'I' for Inactive)
REMARK    1  A    between atoms: S_1  and  N_7
REMARK    2  A    between atoms: S_1  and  C_15
REMARK    3  A    between atoms: O_3  and  C_9
REMARK    4  A    between atoms: N_6  and  C_8
REMARK    5  A    between atoms: N_6  and  C_13
REMARK    6  A    between atoms: N_7  and  C_12
REMARK    7  A    between atoms: C_10  and  C_12
REMARK    8  A    between atoms: C_13  and  C_14
REMARK                            x       y       z     vdW  Elec       q    Type
REMARK                         _______ _______ _______ _____ _____    ______ ____
ROOT
ATOM      2  O   UNL     1      16.761   7.711  20.793  0.00  0.00    -0.371 OA
ATOM      8  C   UNL     1      18.365   6.321  19.727  0.00  0.00    +0.111 C 
ATOM      9  C   UNL     1      16.973   5.828  19.377  0.00  0.00    +0.164 C 
ATOM     10  C   UNL     1      16.141   7.071  19.665  0.00  0.00    +0.164 C 
ATOM     11  C   UNL     1      18.084   7.171  20.955  0.00  0.00    +0.181 C 
ENDROOT
BRANCH   9   3
ATOM      3  O   UNL     1      16.861   5.420  18.028  0.00  0.00    -0.388 OA
ATOM     27  H   UNL     1      17.259   6.107  17.467  0.00  0.00    +0.210 HD
ENDBRANCH   9   3
BRANCH   8   6
ATOM      6  N   UNL     1      19.315   5.251  19.984  0.00  0.00    -0.305 NA
ATOM     26  H   UNL     1      19.830   5.050  19.126  0.00  0.00    +0.123 HD
BRANCH   6  13
ATOM     13  C   UNL     1      20.262   5.628  21.026  0.00  0.00    +0.116 C 
BRANCH  13  14
ATOM     14  C   UNL     1      21.552   4.860  20.917  0.00  0.00    -0.034 A 
ATOM     16  C   UNL     1      22.706   5.496  20.457  0.00  0.00    +0.005 A 
ATOM     17  C   UNL     1      21.594   3.513  21.275  0.00  0.00    +0.005 A 
ATOM     20  C   UNL     1      23.901   4.784  20.356  0.00  0.00    +0.000 A 
ATOM     21  C   UNL     1      22.789   2.802  21.174  0.00  0.00    +0.000 A 
ATOM     22  C   UNL     1      23.942   3.437  20.715  0.00  0.00    +0.000 A 
ENDBRANCH  13  14
ENDBRANCH   6  13
ENDBRANCH   8   6
BRANCH  10  12
ATOM     12  C   UNL     1      14.690   6.762  19.985  0.00  0.00    +0.140 C 
BRANCH  12   7
ATOM      7  N   UNL     1      13.811   7.688  19.244  0.00  0.00    -0.187 NA
ATOM     28  H   UNL     1      14.223   8.597  19.004  0.00  0.00    +0.148 HD
BRANCH   7   1
ATOM      1  S   UNL     1      12.122   7.586  19.423  0.00  0.00    +0.058 S 
ATOM      4  O   UNL     1      11.785   6.350  20.106  0.00  0.00    -0.153 OA
ATOM      5  O   UNL     1      11.493   7.915  18.158  0.00  0.00    -0.153 OA
BRANCH   1  15
ATOM     15  C   UNL     1      11.793   8.926  20.528  0.00  0.00    +0.105 A 
ATOM     18  C   UNL     1      12.338  10.185  20.277  0.00  0.00    +0.028 A 
ATOM     19  C   UNL     1      10.993   8.723  21.652  0.00  0.00    +0.028 A 
ATOM     23  C   UNL     1      12.082  11.242  21.151  0.00  0.00    +0.002 A 
ATOM     24  C   UNL     1      10.737   9.781  22.525  0.00  0.00    +0.002 A 
ATOM     25  C   UNL     1      11.281  11.040  22.275  0.00  0.00    +0.000 A 
ENDBRANCH   1  15
ENDBRANCH   7   1
ENDBRANCH  12   7
ENDBRANCH  10  12
TORSDOF 8
ENDMDL
MODEL 3
REMARK VINA RESULT:      -6.6     28.664     30.657
REMARK  Name = 75536682
REMARK  8 active torsions:
REMARK  status: ('A' for Active; 'I' for Inactive)
REMARK    1  A    between atoms: S_1  and  N_7
REMARK    2  A    between atoms: S_1  and  C_15
REMARK    3  A    between atoms: O_3  and  C_9
REMARK    4  A    between atoms: N_6  and  C_8
REMARK    5  A    between atoms: N_6  and  C_13
REMARK    6  A    between atoms: N_7  and  C_12
REMARK    7  A    between atoms: C_10  and  C_12
REMARK    8  A    between atoms: C_13  and  C_14
REMARK                            x       y       z     vdW  Elec       q    Type
REMARK                         _______ _______ _______ _____ _____    ______ ____
ROOT
ATOM      2  O   UNL     1     -12.323  -7.968  16.512  0.00  0.00    -0.371 OA
ATOM      8  C   UNL     1      -9.983  -7.719  16.834  0.00  0.00    +0.111 C 
ATOM      9  C   UNL     1     -10.389  -6.986  15.569  0.00  0.00    +0.164 C 
ATOM     10  C   UNL     1     -11.881  -6.796  15.806  0.00  0.00    +0.164 C 
ATOM     11  C   UNL     1     -11.169  -8.647  17.038  0.00  0.00    +0.181 C 
ENDROOT
BRANCH   9   3
ATOM      3  O   UNL     1      -9.718  -5.750  15.415  0.00  0.00    -0.388 OA
ATOM     27  H   UNL     1      -9.892  -5.208  16.203  0.00  0.00    +0.210 HD
ENDBRANCH   9   3
BRANCH   8   6
ATOM      6  N   UNL     1      -8.721  -8.432  16.715  0.00  0.00    -0.305 NA
ATOM     26  H   UNL     1      -7.972  -7.847  17.087  0.00  0.00    +0.123 HD
BRANCH   6  13
ATOM     13  C   UNL     1      -8.754  -9.686  17.459  0.00  0.00    +0.116 C 
BRANCH  13  14
ATOM     14  C   UNL     1      -7.374 -10.145  17.845  0.00  0.00    -0.034 A 
ATOM     16  C   UNL     1      -7.149 -10.687  19.112  0.00  0.00    +0.005 A 
ATOM     17  C   UNL     1      -6.321 -10.029  16.939  0.00  0.00    +0.005 A 
ATOM     20  C   UNL     1      -5.870 -11.113  19.470  0.00  0.00    +0.000 A 
ATOM     21  C   UNL     1      -5.042 -10.455  17.298  0.00  0.00    +0.000 A 
ATOM     22  C   UNL     1      -4.816 -10.997  18.563  0.00  0.00    +0.000 A 
ENDBRANCH  13  14
ENDBRANCH   6  13
ENDBRANCH   8   6
BRANCH  10  12
ATOM     12  C   UNL     1     -12.678  -6.639  14.524  0.00  0.00    +0.140 C 
BRANCH  12   7
ATOM      7  N   UNL     1     -12.245  -5.417  13.819  0.00  0.00    -0.187 NA
ATOM     28  H   UNL     1     -11.554  -4.838  14.312  0.00  0.00    +0.148 HD
BRANCH   7   1
ATOM      1  S   UNL     1     -13.285  -4.662  12.704  0.00  0.00    +0.058 S 
ATOM      4  O   UNL     1     -13.495  -3.282  13.100  0.00  0.00    -0.153 OA
ATOM      5  O   UNL     1     -14.420  -5.530  12.456  0.00  0.00    -0.153 OA
BRANCH   1  15
ATOM     15  C   UNL     1     -12.303  -4.663  11.234  0.00  0.00    +0.105 A 
ATOM     18  C   UNL     1     -11.940  -5.871  10.640  0.00  0.00    +0.028 A 
ATOM     19  C   UNL     1     -11.888  -3.456  10.672  0.00  0.00    +0.028 A 
ATOM     23  C   UNL     1     -11.161  -5.872   9.482  0.00  0.00    +0.002 A 
ATOM     24  C   UNL     1     -11.109  -3.458   9.514  0.00  0.00    +0.002 A 
ATOM     25  C   UNL     1     -10.746  -4.665   8.919  0.00  0.00    +0.000 A 
ENDBRANCH   1  15
ENDBRANCH   7   1
ENDBRANCH  12   7
ENDBRANCH  10  12
TORSDOF 8
ENDMDL
MODEL 4
REMARK VINA RESULT:      -6.6     26.796     29.507
REMARK  Name = 75536682
REMARK  8 active torsions:
REMARK  status: ('A' for Active; 'I' for Inactive)
REMARK    1  A    between atoms: S_1  and  N_7
REMARK    2  A    between atoms: S_1  and  C_15
REMARK    3  A    between atoms: O_3  and  C_9
REMARK    4  A    between atoms: N_6  and  C_8
REMARK    5  A    between atoms: N_6  and  C_13
REMARK    6  A    between atoms: N_7  and  C_12
REMARK    7  A    between atoms: C_10  and  C_12
REMARK    8  A    between atoms: C_13  and  C_14
REMARK                            x       y       z     vdW  Elec       q    Type
REMARK                         _______ _______ _______ _____ _____    ______ ____
ROOT
ATOM      2  O   UNL     1     -10.342  10.884  16.006  0.00  0.00    -0.371 OA
ATOM      8  C   UNL     1      -9.817   9.462  17.835  0.00  0.00    +0.111 C 
ATOM      9  C   UNL     1     -10.679   8.699  16.846  0.00  0.00    +0.164 C 
ATOM     10  C   UNL     1     -10.467   9.517  15.579  0.00  0.00    +0.164 C 
ATOM     11  C   UNL     1     -10.086  10.900  17.421  0.00  0.00    +0.181 C 
ENDROOT
BRANCH   9   3
ATOM      3  O   UNL     1     -10.265   7.357  16.682  0.00  0.00    -0.388 OA
ATOM     27  H   UNL     1      -9.714   7.112  17.445  0.00  0.00    +0.210 HD
ENDBRANCH   9   3
BRANCH   8   6
ATOM      6  N   UNL     1     -10.154   9.200  19.225  0.00  0.00    -0.305 NA
ATOM     26  H   UNL     1      -9.555   9.769  19.825  0.00  0.00    +0.123 HD
BRANCH   6  13
ATOM     13  C   UNL     1     -11.547   9.531  19.499  0.00  0.00    +0.116 C 
BRANCH  13  14
ATOM     14  C   UNL     1     -12.267   8.403  20.187  0.00  0.00    -0.034 A 
ATOM     16  C   UNL     1     -11.555   7.285  20.625  0.00  0.00    +0.005 A 
ATOM     17  C   UNL     1     -13.645   8.473  20.388  0.00  0.00    +0.005 A 
ATOM     20  C   UNL     1     -12.221   6.240  21.264  0.00  0.00    +0.000 A 
ATOM     21  C   UNL     1     -14.311   7.427  21.026  0.00  0.00    +0.000 A 
ATOM     22  C   UNL     1     -13.600   6.311  21.464  0.00  0.00    +0.000 A 
ENDBRANCH  13  14
ENDBRANCH   6  13
ENDBRANCH   8   6
BRANCH  10  12
ATOM     12  C   UNL     1     -11.608   9.392  14.586  0.00  0.00    +0.140 C 
BRANCH  12   7
ATOM      7  N   UNL     1     -12.099   8.001  14.568  0.00  0.00    -0.187 NA
ATOM     28  H   UNL     1     -11.386   7.274  14.709  0.00  0.00    +0.148 HD
BRANCH   7   1
ATOM      1  S   UNL     1     -13.498   7.601  13.686  0.00  0.00    +0.058 S 
ATOM      4  O   UNL     1     -13.342   6.279  13.109  0.00  0.00    -0.153 OA
ATOM      5  O   UNL     1     -13.862   8.725  12.844  0.00  0.00    -0.153 OA
BRANCH   1  15
ATOM     15  C   UNL     1     -14.715   7.497  14.964  0.00  0.00    +0.105 A 
ATOM     18  C   UNL     1     -14.465   8.069  16.211  0.00  0.00    +0.028 A 
ATOM     19  C   UNL     1     -15.922   6.841  14.726  0.00  0.00    +0.028 A 
ATOM     23  C   UNL     1     -15.423   7.984  17.222  0.00  0.00    +0.002 A 
ATOM     24  C   UNL     1     -16.880   6.756  15.737  0.00  0.00    +0.002 A 
ATOM     25  C   UNL     1     -16.631   7.328  16.984  0.00  0.00    +0.000 A 
ENDBRANCH   1  15
ENDBRANCH   7   1
ENDBRANCH  12   7
ENDBRANCH  10  12
TORSDOF 8
ENDMDL
MODEL 5
REMARK VINA RESULT:      -6.5      3.905      7.107
REMARK  Name = 75536682
REMARK  8 active torsions:
REMARK  status: ('A' for Active; 'I' for Inactive)
REMARK    1  A    between atoms: S_1  and  N_7
REMARK    2  A    between atoms: S_1  and  C_15
REMARK    3  A    between atoms: O_3  and  C_9
REMARK    4  A    between atoms: N_6  and  C_8
REMARK    5  A    between atoms: N_6  and  C_13
REMARK    6  A    between atoms: N_7  and  C_12
REMARK    7  A    between atoms: C_10  and  C_12
REMARK    8  A    between atoms: C_13  and  C_14
REMARK                            x       y       z     vdW  Elec       q    Type
REMARK                         _______ _______ _______ _____ _____    ______ ____
ROOT
ATOM      2  O   UNL     1      16.158   9.767  20.447  0.00  0.00    -0.371 OA
ATOM      8  C   UNL     1      15.042   9.713  22.543  0.00  0.00    +0.111 C 
ATOM      9  C   UNL     1      14.658   8.480  21.746  0.00  0.00    +0.164 C 
ATOM     10  C   UNL     1      15.807   8.407  20.748  0.00  0.00    +0.164 C 
ATOM     11  C   UNL     1      15.582  10.622  21.451  0.00  0.00    +0.181 C 
ENDROOT
BRANCH   9   3
ATOM      3  O   UNL     1      14.579   7.316  22.545  0.00  0.00    -0.388 OA
ATOM     27  H   UNL     1      15.483   7.022  22.746  0.00  0.00    +0.210 HD
ENDBRANCH   9   3
BRANCH   8   6
ATOM      6  N   UNL     1      13.932  10.304  23.273  0.00  0.00    -0.305 NA
ATOM     26  H   UNL     1      14.170  11.265  23.519  0.00  0.00    +0.123 HD
BRANCH   6  13
ATOM     13  C   UNL     1      12.717  10.311  22.466  0.00  0.00    +0.116 C 
BRANCH  13  14
ATOM     14  C   UNL     1      11.824  11.473  22.807  0.00  0.00    -0.034 A 
ATOM     16  C   UNL     1      11.357  11.635  24.113  0.00  0.00    +0.005 A 
ATOM     17  C   UNL     1      11.463  12.389  21.820  0.00  0.00    +0.005 A 
ATOM     20  C   UNL     1      10.530  12.712  24.429  0.00  0.00    +0.000 A 
ATOM     21  C   UNL     1      10.635  13.466  22.136  0.00  0.00    +0.000 A 
ATOM     22  C   UNL     1      10.169  13.628  23.440  0.00  0.00    +0.000 A 
ENDBRANCH  13  14
ENDBRANCH   6  13
ENDBRANCH   8   6
BRANCH  10  12
ATOM     12  C   UNL     1      15.444   7.675  19.468  0.00  0.00    +0.140 C 
BRANCH  12   7
ATOM      7  N   UNL     1      13.990   7.424  19.437  0.00  0.00    -0.187 NA
ATOM     28  H   UNL     1      13.663   6.626  19.995  0.00  0.00    +0.148 HD
BRANCH   7   1
ATOM      1  S   UNL     1      13.072   7.897  18.084  0.00  0.00    +0.058 S 
ATOM      4  O   UNL     1      11.661   7.835  18.415  0.00  0.00    -0.153 OA
ATOM      5  O   UNL     1      13.576   7.212  16.910  0.00  0.00    -0.153 OA
BRANCH   1  15
ATOM     15  C   UNL     1      13.519   9.599  17.921  0.00  0.00    +0.105 A 
ATOM     18  C   UNL     1      13.056  10.533  18.847  0.00  0.00    +0.028 A 
ATOM     19  C   UNL     1      14.333  10.009  16.864  0.00  0.00    +0.028 A 
ATOM     23  C   UNL     1      13.405  11.878  18.717  0.00  0.00    +0.002 A 
ATOM     24  C   UNL     1      14.682  11.354  16.734  0.00  0.00    +0.002 A 
ATOM     25  C   UNL     1      14.218  12.287  17.660  0.00  0.00    +0.000 A 
ENDBRANCH   1  15
ENDBRANCH   7   1
ENDBRANCH  12   7
ENDBRANCH  10  12
TORSDOF 8
ENDMDL
MODEL 6
REMARK VINA RESULT:      -6.4     26.892     29.224
REMARK  Name = 75536682
REMARK  8 active torsions:
REMARK  status: ('A' for Active; 'I' for Inactive)
REMARK    1  A    between atoms: S_1  and  N_7
REMARK    2  A    between atoms: S_1  and  C_15
REMARK    3  A    between atoms: O_3  and  C_9
REMARK    4  A    between atoms: N_6  and  C_8
REMARK    5  A    between atoms: N_6  and  C_13
REMARK    6  A    between atoms: N_7  and  C_12
REMARK    7  A    between atoms: C_10  and  C_12
REMARK    8  A    between atoms: C_13  and  C_14
REMARK                            x       y       z     vdW  Elec       q    Type
REMARK                         _______ _______ _______ _____ _____    ______ ____
ROOT
ATOM      2  O   UNL     1      -5.094 -11.327  15.685  0.00  0.00    -0.371 OA
ATOM      8  C   UNL     1      -2.988 -11.157  14.600  0.00  0.00    +0.111 C 
ATOM      9  C   UNL     1      -2.844 -10.689  16.037  0.00  0.00    +0.164 C 
ATOM     10  C   UNL     1      -4.059 -11.344  16.682  0.00  0.00    +0.164 C 
ATOM     11  C   UNL     1      -4.493 -11.069  14.404  0.00  0.00    +0.181 C 
ENDROOT
BRANCH   9   3
ATOM      3  O   UNL     1      -1.636 -11.118  16.632  0.00  0.00    -0.388 OA
ATOM     27  H   UNL     1      -0.928 -10.511  16.358  0.00  0.00    +0.210 HD
ENDBRANCH   9   3
BRANCH   8   6
ATOM      6  N   UNL     1      -2.245 -10.349  13.647  0.00  0.00    -0.305 NA
ATOM     26  H   UNL     1      -1.398 -10.000  14.096  0.00  0.00    +0.123 HD
BRANCH   6  13
ATOM     13  C   UNL     1      -1.870 -11.132  12.475  0.00  0.00    +0.116 C 
BRANCH  13  14
ATOM     14  C   UNL     1      -2.733 -10.809  11.285  0.00  0.00    -0.034 A 
ATOM     16  C   UNL     1      -3.477 -11.816  10.669  0.00  0.00    +0.005 A 
ATOM     17  C   UNL     1      -2.788  -9.504  10.798  0.00  0.00    +0.005 A 
ATOM     20  C   UNL     1      -4.277 -11.516   9.566  0.00  0.00    +0.000 A 
ATOM     21  C   UNL     1      -3.588  -9.204   9.695  0.00  0.00    +0.000 A 
ATOM     22  C   UNL     1      -4.332 -10.210   9.079  0.00  0.00    +0.000 A 
ENDBRANCH  13  14
ENDBRANCH   6  13
ENDBRANCH   8   6
BRANCH  10  12
ATOM     12  C   UNL     1      -4.537 -10.624  17.930  0.00  0.00    +0.140 C 
BRANCH  12   7
ATOM      7  N   UNL     1      -6.010 -10.526  17.911  0.00  0.00    -0.187 NA
ATOM     28  H   UNL     1      -6.394  -9.654  17.529  0.00  0.00    +0.148 HD
BRANCH   7   1
ATOM      1  S   UNL     1      -6.935 -11.389  19.048  0.00  0.00    +0.058 S 
ATOM      4  O   UNL     1      -6.479 -11.063  20.387  0.00  0.00    -0.153 OA
ATOM      5  O   UNL     1      -7.029 -12.774  18.627  0.00  0.00    -0.153 OA
BRANCH   1  15
ATOM     15  C   UNL     1      -8.537 -10.673  18.830  0.00  0.00    +0.105 A 
ATOM     18  C   UNL     1      -9.550 -10.939  19.750  0.00  0.00    +0.028 A 
ATOM     19  C   UNL     1      -8.787  -9.845  17.736  0.00  0.00    +0.028 A 
ATOM     23  C   UNL     1     -10.815 -10.377  19.576  0.00  0.00    +0.002 A 
ATOM     24  C   UNL     1     -10.053  -9.283  17.562  0.00  0.00    +0.002 A 
ATOM     25  C   UNL     1     -11.066  -9.549  18.482  0.00  0.00    +0.000 A 
ENDBRANCH   1  15
ENDBRANCH   7   1
ENDBRANCH  12   7
ENDBRANCH  10  12
TORSDOF 8
ENDMDL
MODEL 7
REMARK VINA RESULT:      -6.4     14.254     16.239
REMARK  Name = 75536682
REMARK  8 active torsions:
REMARK  status: ('A' for Active; 'I' for Inactive)
REMARK    1  A    between atoms: S_1  and  N_7
REMARK    2  A    between atoms: S_1  and  C_15
REMARK    3  A    between atoms: O_3  and  C_9
REMARK    4  A    between atoms: N_6  and  C_8
REMARK    5  A    between atoms: N_6  and  C_13
REMARK    6  A    between atoms: N_7  and  C_12
REMARK    7  A    between atoms: C_10  and  C_12
REMARK    8  A    between atoms: C_13  and  C_14
REMARK                            x       y       z     vdW  Elec       q    Type
REMARK                         _______ _______ _______ _____ _____    ______ ____
ROOT
ATOM      2  O   UNL     1      14.819   9.460   4.154  0.00  0.00    -0.371 OA
ATOM      8  C   UNL     1      14.130   9.003   6.381  0.00  0.00    +0.111 C 
ATOM      9  C   UNL     1      14.117   7.711   5.584  0.00  0.00    +0.164 C 
ATOM     10  C   UNL     1      15.047   8.068   4.431  0.00  0.00    +0.164 C 
ATOM     11  C   UNL     1      14.124  10.042   5.271  0.00  0.00    +0.181 C 
ENDROOT
BRANCH   9   3
ATOM      3  O   UNL     1      14.596   6.607   6.325  0.00  0.00    -0.388 OA
ATOM     27  H   UNL     1      14.178   6.623   7.202  0.00  0.00    +0.210 HD
ENDBRANCH   9   3
BRANCH   8   6
ATOM      6  N   UNL     1      13.003   9.139   7.289  0.00  0.00    -0.305 NA
ATOM     26  H   UNL     1      13.002  10.082   7.678  0.00  0.00    +0.123 HD
BRANCH   6  13
ATOM     13  C   UNL     1      11.740   8.911   6.596  0.00  0.00    +0.116 C 
BRANCH  13  14
ATOM     14  C   UNL     1      10.887   7.894   7.305  0.00  0.00    -0.034 A 
ATOM     16  C   UNL     1       9.590   8.224   7.699  0.00  0.00    +0.005 A 
ATOM     17  C   UNL     1      11.393   6.621   7.568  0.00  0.00    +0.005 A 
ATOM     20  C   UNL     1       8.799   7.281   8.356  0.00  0.00    +0.000 A 
ATOM     21  C   UNL     1      10.602   5.679   8.225  0.00  0.00    +0.000 A 
ATOM     22  C   UNL     1       9.306   6.008   8.619  0.00  0.00    +0.000 A 
ENDBRANCH  13  14
ENDBRANCH   6  13
ENDBRANCH   8   6
BRANCH  10  12
ATOM     12  C   UNL     1      14.795   7.248   3.179  0.00  0.00    +0.140 C 
BRANCH  12   7
ATOM      7  N   UNL     1      13.506   6.539   3.304  0.00  0.00    -0.187 NA
ATOM     28  H   UNL     1      13.567   5.542   3.548  0.00  0.00    +0.148 HD
BRANCH   7   1
ATOM      1  S   UNL     1      12.149   7.078   2.431  0.00  0.00    +0.058 S 
ATOM      4  O   UNL     1      12.079   6.370   1.167  0.00  0.00    -0.153 OA
ATOM      5  O   UNL     1      12.116   8.527   2.458  0.00  0.00    -0.153 OA
BRANCH   1  15
ATOM     15  C   UNL     1      10.817   6.512   3.447  0.00  0.00    +0.105 A 
ATOM     18  C   UNL     1       9.714   7.335   3.672  0.00  0.00    +0.028 A 
ATOM     19  C   UNL     1      10.871   5.244   4.026  0.00  0.00    +0.028 A 
ATOM     23  C   UNL     1       8.665   6.891   4.476  0.00  0.00    +0.002 A 
ATOM     24  C   UNL     1       9.821   4.800   4.830  0.00  0.00    +0.002 A 
ATOM     25  C   UNL     1       8.719   5.623   5.055  0.00  0.00    +0.000 A 
ENDBRANCH   1  15
ENDBRANCH   7   1
ENDBRANCH  12   7
ENDBRANCH  10  12
TORSDOF 8
ENDMDL
MODEL 8
REMARK VINA RESULT:      -6.4      2.879      4.128
REMARK  Name = 75536682
REMARK  8 active torsions:
REMARK  status: ('A' for Active; 'I' for Inactive)
REMARK    1  A    between atoms: S_1  and  N_7
REMARK    2  A    between atoms: S_1  and  C_15
REMARK    3  A    between atoms: O_3  and  C_9
REMARK    4  A    between atoms: N_6  and  C_8
REMARK    5  A    between atoms: N_6  and  C_13
REMARK    6  A    between atoms: N_7  and  C_12
REMARK    7  A    between atoms: C_10  and  C_12
REMARK    8  A    between atoms: C_13  and  C_14
REMARK                            x       y       z     vdW  Elec       q    Type
REMARK                         _______ _______ _______ _____ _____    ______ ____
ROOT
ATOM      2  O   UNL     1      19.184   7.693  21.931  0.00  0.00    -0.371 OA
ATOM      8  C   UNL     1      20.058   5.979  20.538  0.00  0.00    +0.111 C 
ATOM      9  C   UNL     1      18.553   6.045  20.356  0.00  0.00    +0.164 C 
ATOM     10  C   UNL     1      18.258   7.453  20.858  0.00  0.00    +0.164 C 
ATOM     11  C   UNL     1      20.234   6.713  21.858  0.00  0.00    +0.181 C 
ENDROOT
BRANCH   9   3
ATOM      3  O   UNL     1      18.158   5.873  19.009  0.00  0.00    -0.388 OA
ATOM     27  H   UNL     1      17.672   6.667  18.729  0.00  0.00    +0.210 HD
ENDBRANCH   9   3
BRANCH   8   6
ATOM      6  N   UNL     1      20.582   4.623  20.571  0.00  0.00    -0.305 NA
ATOM     26  H   UNL     1      20.987   4.401  19.661  0.00  0.00    +0.123 HD
BRANCH   6  13
ATOM     13  C   UNL     1      21.612   4.483  21.593  0.00  0.00    +0.116 C 
BRANCH  13  14
ATOM     14  C   UNL     1      22.874   3.879  21.038  0.00  0.00    -0.034 A 
ATOM     16  C   UNL     1      23.762   4.669  20.305  0.00  0.00    +0.005 A 
ATOM     17  C   UNL     1      23.157   2.531  21.256  0.00  0.00    +0.005 A 
ATOM     20  C   UNL     1      24.931   4.110  19.791  0.00  0.00    +0.000 A 
ATOM     21  C   UNL     1      24.327   1.972  20.742  0.00  0.00    +0.000 A 
ATOM     22  C   UNL     1      25.214   2.761  20.009  0.00  0.00    +0.000 A 
ENDBRANCH  13  14
ENDBRANCH   6  13
ENDBRANCH   8   6
BRANCH  10  12
ATOM     12  C   UNL     1      16.836   7.626  21.359  0.00  0.00    +0.140 C 
BRANCH  12   7
ATOM      7  N   UNL     1      16.071   8.451  20.403  0.00  0.00    -0.187 NA
ATOM     28  H   UNL     1      15.959   9.440  20.657  0.00  0.00    +0.148 HD
BRANCH   7   1
ATOM      1  S   UNL     1      14.893   7.731  19.410  0.00  0.00    +0.058 S 
ATOM      4  O   UNL     1      15.231   6.336  19.196  0.00  0.00    -0.153 OA
ATOM      5  O   UNL     1      14.635   8.599  18.278  0.00  0.00    -0.153 OA
BRANCH   1  15
ATOM     15  C   UNL     1      13.461   7.791  20.445  0.00  0.00    +0.105 A 
ATOM     18  C   UNL     1      12.570   6.719  20.464  0.00  0.00    +0.028 A 
ATOM     19  C   UNL     1      13.221   8.912  21.239  0.00  0.00    +0.028 A 
ATOM     23  C   UNL     1      11.438   6.768  21.278  0.00  0.00    +0.002 A 
ATOM     24  C   UNL     1      12.089   8.961  22.053  0.00  0.00    +0.002 A 
ATOM     25  C   UNL     1      11.198   7.889  22.073  0.00  0.00    +0.000 A 
ENDBRANCH   1  15
ENDBRANCH   7   1
ENDBRANCH  12   7
ENDBRANCH  10  12
TORSDOF 8
ENDMDL
MODEL 9
REMARK VINA RESULT:      -6.4     26.767     29.883
REMARK  Name = 75536682
REMARK  8 active torsions:
REMARK  status: ('A' for Active; 'I' for Inactive)
REMARK    1  A    between atoms: S_1  and  N_7
REMARK    2  A    between atoms: S_1  and  C_15
REMARK    3  A    between atoms: O_3  and  C_9
REMARK    4  A    between atoms: N_6  and  C_8
REMARK    5  A    between atoms: N_6  and  C_13
REMARK    6  A    between atoms: N_7  and  C_12
REMARK    7  A    between atoms: C_10  and  C_12
REMARK    8  A    between atoms: C_13  and  C_14
REMARK                            x       y       z     vdW  Elec       q    Type
REMARK                         _______ _______ _______ _____ _____    ______ ____
ROOT
ATOM      2  O   UNL     1      -6.326 -11.686  18.314  0.00  0.00    -0.371 OA
ATOM      8  C   UNL     1      -8.073 -10.225  17.640  0.00  0.00    +0.111 C 
ATOM      9  C   UNL     1      -6.776  -9.775  16.995  0.00  0.00    +0.164 C 
ATOM     10  C   UNL     1      -5.947 -11.051  17.082  0.00  0.00    +0.164 C 
ATOM     11  C   UNL     1      -7.560 -11.103  18.770  0.00  0.00    +0.181 C 
ENDROOT
BRANCH   9   3
ATOM      3  O   UNL     1      -6.950  -9.350  15.657  0.00  0.00    -0.388 OA
ATOM     27  H   UNL     1      -6.377  -9.891  15.088  0.00  0.00    +0.210 HD
ENDBRANCH   9   3
BRANCH   8   6
ATOM      6  N   UNL     1      -8.902  -9.127  18.110  0.00  0.00    -0.305 NA
ATOM     26  H   UNL     1      -8.639  -8.275  17.613  0.00  0.00    +0.123 HD
BRANCH   6  13
ATOM     13  C   UNL     1     -10.315  -9.396  17.869  0.00  0.00    +0.116 C 
BRANCH  13  14
ATOM     14  C   UNL     1     -10.960  -8.312  17.048  0.00  0.00    -0.034 A 
ATOM     16  C   UNL     1     -12.333  -8.350  16.796  0.00  0.00    +0.005 A 
ATOM     17  C   UNL     1     -10.187  -7.270  16.537  0.00  0.00    +0.005 A 
ATOM     20  C   UNL     1     -12.931  -7.346  16.036  0.00  0.00    +0.000 A 
ATOM     21  C   UNL     1     -10.785  -6.266  15.777  0.00  0.00    +0.000 A 
ATOM     22  C   UNL     1     -12.156  -6.303  15.525  0.00  0.00    +0.000 A 
ENDBRANCH  13  14
ENDBRANCH   6  13
ENDBRANCH   8   6
BRANCH  10  12
ATOM     12  C   UNL     1      -4.451 -10.796  17.075  0.00  0.00    +0.140 C 
BRANCH  12   7
ATOM      7  N   UNL     1      -4.042 -10.283  15.753  0.00  0.00    -0.187 NA
ATOM     28  H   UNL     1      -4.777  -9.814  15.209  0.00  0.00    +0.148 HD
BRANCH   7   1
ATOM      1  S   UNL     1      -2.760 -11.020  14.912  0.00  0.00    +0.058 S 
ATOM      4  O   UNL     1      -2.917 -12.462  14.964  0.00  0.00    -0.153 OA
ATOM      5  O   UNL     1      -1.512 -10.408  15.323  0.00  0.00    -0.153 OA
BRANCH   1  15
ATOM     15  C   UNL     1      -3.069 -10.499  13.251  0.00  0.00    +0.105 A 
ATOM     18  C   UNL     1      -2.003 -10.296  12.375  0.00  0.00    +0.028 A 
ATOM     19  C   UNL     1      -4.378 -10.288  12.818  0.00  0.00    +0.028 A 
ATOM     23  C   UNL     1      -2.246  -9.881  11.065  0.00  0.00    +0.002 A 
ATOM     24  C   UNL     1      -4.621  -9.873  11.509  0.00  0.00    +0.002 A 
ATOM     25  C   UNL     1      -3.556  -9.670  10.632  0.00  0.00    +0.000 A 
ENDBRANCH   1  15
ENDBRANCH   7   1
ENDBRANCH  12   7
ENDBRANCH  10  12
TORSDOF 8
ENDMDL
MODEL 10
REMARK VINA RESULT:      -6.3     28.684     30.732
REMARK  Name = 75536682
REMARK  8 active torsions:
REMARK  status: ('A' for Active; 'I' for Inactive)
REMARK    1  A    between atoms: S_1  and  N_7
REMARK    2  A    between atoms: S_1  and  C_15
REMARK    3  A    between atoms: O_3  and  C_9
REMARK    4  A    between atoms: N_6  and  C_8
REMARK    5  A    between atoms: N_6  and  C_13
REMARK    6  A    between atoms: N_7  and  C_12
REMARK    7  A    between atoms: C_10  and  C_12
REMARK    8  A    between atoms: C_13  and  C_14
REMARK                            x       y       z     vdW  Elec       q    Type
REMARK                         _______ _______ _______ _____ _____    ______ ____
ROOT
ATOM      2  O   UNL     1     -10.945 -10.378  15.762  0.00  0.00    -0.371 OA
ATOM      8  C   UNL     1      -9.848  -9.713  17.761  0.00  0.00    +0.111 C 
ATOM      9  C   UNL     1      -9.839  -8.553  16.782  0.00  0.00    +0.164 C 
ATOM     10  C   UNL     1     -10.982  -8.944  15.853  0.00  0.00    +0.164 C 
ATOM     11  C   UNL     1     -10.134 -10.885  16.836  0.00  0.00    +0.181 C 
ENDROOT
BRANCH   9   3
ATOM      3  O   UNL     1     -10.073  -7.307  17.409  0.00  0.00    -0.388 OA
ATOM     27  H   UNL     1     -10.958  -6.998  17.154  0.00  0.00    +0.210 HD
ENDBRANCH   9   3
BRANCH   8   6
ATOM      6  N   UNL     1      -8.603  -9.863  18.497  0.00  0.00    -0.305 NA
ATOM     26  H   UNL     1      -8.535 -10.821  18.842  0.00  0.00    +0.123 HD
BRANCH   6  13
ATOM     13  C   UNL     1      -7.452  -9.586  17.645  0.00  0.00    +0.116 C 
BRANCH  13  14
ATOM     14  C   UNL     1      -6.244 -10.381  18.058  0.00  0.00    -0.034 A 
ATOM     16  C   UNL     1      -5.190 -10.567  17.161  0.00  0.00    +0.005 A 
ATOM     17  C   UNL     1      -6.175 -10.933  19.337  0.00  0.00    +0.005 A 
ATOM     20  C   UNL     1      -4.070 -11.304  17.544  0.00  0.00    +0.000 A 
ATOM     21  C   UNL     1      -5.055 -11.670  19.720  0.00  0.00    +0.000 A 
ATOM     22  C   UNL     1      -4.002 -11.856  18.824  0.00  0.00    +0.000 A 
ENDBRANCH  13  14
ENDBRANCH   6  13
ENDBRANCH   8   6
BRANCH  10  12
ATOM     12  C   UNL     1     -10.863  -8.339  14.466  0.00  0.00    +0.140 C 
BRANCH  12   7
ATOM      7  N   UNL     1     -12.094  -7.590  14.147  0.00  0.00    -0.187 NA
ATOM     28  H   UNL     1     -12.420  -7.661  13.175  0.00  0.00    +0.148 HD
BRANCH   7   1
ATOM      1  S   UNL     1     -12.500  -6.198  15.037  0.00  0.00    +0.058 S 
ATOM      4  O   UNL     1     -11.294  -5.616  15.595  0.00  0.00    -0.153 OA
ATOM      5  O   UNL     1     -13.629  -6.499  15.895  0.00  0.00    -0.153 OA
BRANCH   1  15
ATOM     15  C   UNL     1     -13.088  -5.116  13.768  0.00  0.00    +0.105 A 
ATOM     18  C   UNL     1     -12.183  -4.372  13.012  0.00  0.00    +0.028 A 
ATOM     19  C   UNL     1     -14.457  -5.005  13.526  0.00  0.00    +0.028 A 
ATOM     23  C   UNL     1     -12.647  -3.515  12.013  0.00  0.00    +0.002 A 
ATOM     24  C   UNL     1     -14.921  -4.148  12.527  0.00  0.00    +0.002 A 
ATOM     25  C   UNL     1     -14.016  -3.404  11.771  0.00  0.00    +0.000 A 
ENDBRANCH   1  15
ENDBRANCH   7   1
ENDBRANCH  12   7
ENDBRANCH  10  12
TORSDOF 8
ENDMDL
