MODEL 1
REMARK VINA RESULT:      -7.9      0.000      0.000
REMARK  Name = 11867589
REMARK  8 active torsions:
REMARK  status: ('A' for Active; 'I' for Inactive)
REMARK    1  A    between atoms: N_4  and  C_11
REMARK    2  A    between atoms: N_5  and  C_12
REMARK    3  A    between atoms: N_8  and  C_30
REMARK    4  A    between atoms: N_8  and  C_31
REMARK    5  A    between atoms: N_8  and  C_32
REMARK    6  A    between atoms: C_15  and  C_18
REMARK    7  A    between atoms: C_18  and  C_22
REMARK    8  A    between atoms: C_24  and  C_25
REMARK                            x       y       z     vdW  Elec       q    Type
REMARK                         _______ _______ _______ _____ _____    ______ ____
ROOT
ATOM      1  O   UNL     1     -16.233   3.821  22.267  0.00  0.00    -0.370 OA
ATOM      2  O   UNL     1     -17.539   5.735  24.392  0.00  0.00    -0.370 OA
ATOM      9  C   UNL     1     -16.224   5.632  23.817  0.00  0.00    +0.175 C 
ATOM     10  C   UNL     1     -15.932   4.156  23.631  0.00  0.00    +0.171 C 
ATOM     11  C   UNL     1     -16.229   6.204  22.413  0.00  0.00    +0.166 C 
ATOM     12  C   UNL     1     -16.897   3.462  24.566  0.00  0.00    +0.130 C 
ATOM     13  C   UNL     1     -16.618   5.005  21.555  0.00  0.00    +0.190 C 
ATOM     14  C   UNL     1     -18.075   4.418  24.582  0.00  0.00    +0.185 C 
ENDROOT
BRANCH  11   4
ATOM      4  N   UNL     1     -14.955   6.833  22.057  0.00  0.00    -0.244 N 
ATOM      6  N   UNL     1     -14.718   8.119  22.360  0.00  0.00    -0.065 NA
ATOM      7  N   UNL     1     -13.501   8.412  21.916  0.00  0.00    -0.134 NA
ATOM     19  C   UNL     1     -13.898   6.267  21.412  0.00  0.00    +0.134 A 
ATOM     22  C   UNL     1     -13.010   7.288  21.343  0.00  0.00    +0.083 A 
BRANCH  22  18
ATOM     18  C   UNL     1     -11.642   7.285  20.739  0.00  0.00    +0.062 C 
BRANCH  18  15
ATOM     15  C   UNL     1     -11.538   8.218  19.534  0.00  0.00    -0.005 C 
ATOM     16  C   UNL     1     -11.256   7.421  18.253  0.00  0.00    +0.004 C 
ATOM     17  C   UNL     1     -10.457   9.283  19.765  0.00  0.00    +0.004 C 
ATOM     20  C   UNL     1     -11.095   8.338  17.042  0.00  0.00    +0.000 C 
ATOM     21  C   UNL     1     -10.298  10.197  18.551  0.00  0.00    +0.000 C 
ATOM     23  C   UNL     1     -10.026   9.400  17.279  0.00  0.00    +0.000 C 
ENDBRANCH  18  15
ENDBRANCH  22  18
ENDBRANCH  11   4
BRANCH  12   5
ATOM      3  O   UNL     1     -17.722   1.593  26.584  0.00  0.00    -0.270 OA
ATOM      5  N   UNL     1     -16.329   3.311  25.883  0.00  0.00    -0.304 N 
ATOM     24  C   UNL     1     -16.797   2.374  26.795  0.00  0.00    +0.244 C 
ATOM     33  H   UNL     1     -15.640   3.999  26.168  0.00  0.00    +0.149 HD
BRANCH  24  25
ATOM     25  C   UNL     1     -16.124   2.361  28.119  0.00  0.00    +0.037 A 
ATOM     26  C   UNL     1     -15.676   3.553  28.649  0.00  0.00    +0.015 A 
ATOM     27  C   UNL     1     -15.969   1.158  28.776  0.00  0.00    +0.015 A 
ATOM     28  C   UNL     1     -15.045   3.541  29.894  0.00  0.00    +0.024 A 
ATOM     29  C   UNL     1     -15.339   1.146  30.020  0.00  0.00    +0.024 A 
ATOM     30  C   UNL     1     -14.877   2.337  30.579  0.00  0.00    +0.029 A 
BRANCH  30   8
ATOM      8  N   UNL     1     -14.240   2.325  31.837  0.00  0.00    -0.336 N 
ATOM     31  C   UNL     1     -14.747   1.490  32.908  0.00  0.00    +0.129 C 
ATOM     32  C   UNL     1     -13.080   3.159  32.081  0.00  0.00    +0.129 C 
ENDBRANCH  30   8
ENDBRANCH  24  25
ENDBRANCH  12   5
TORSDOF 6
ENDMDL
MODEL 2
REMARK VINA RESULT:      -7.6     28.809     32.382
REMARK  Name = 11867589
REMARK  8 active torsions:
REMARK  status: ('A' for Active; 'I' for Inactive)
REMARK    1  A    between atoms: N_4  and  C_11
REMARK    2  A    between atoms: N_5  and  C_12
REMARK    3  A    between atoms: N_8  and  C_30
REMARK    4  A    between atoms: N_8  and  C_31
REMARK    5  A    between atoms: N_8  and  C_32
REMARK    6  A    between atoms: C_15  and  C_18
REMARK    7  A    between atoms: C_18  and  C_22
REMARK    8  A    between atoms: C_24  and  C_25
REMARK                            x       y       z     vdW  Elec       q    Type
REMARK                         _______ _______ _______ _____ _____    ______ ____
ROOT
ATOM      1  O   UNL     1      13.172   7.318  17.311  0.00  0.00    -0.370 OA
ATOM      2  O   UNL     1      13.489   9.172  19.831  0.00  0.00    -0.370 OA
ATOM      9  C   UNL     1      14.077   9.165  18.517  0.00  0.00    +0.175 C 
ATOM     10  C   UNL     1      14.285   7.714  18.128  0.00  0.00    +0.171 C 
ATOM     11  C   UNL     1      13.080   9.696  17.505  0.00  0.00    +0.166 C 
ATOM     12  C   UNL     1      14.262   6.967  19.442  0.00  0.00    +0.130 C 
ATOM     13  C   UNL     1      12.314   8.445  17.088  0.00  0.00    +0.190 C 
ATOM     14  C   UNL     1      13.330   7.819  20.283  0.00  0.00    +0.185 C 
ENDROOT
BRANCH  11   4
ATOM      4  N   UNL     1      13.726  10.421  16.407  0.00  0.00    -0.244 N 
ATOM      6  N   UNL     1      13.181  10.432  15.180  0.00  0.00    -0.065 NA
ATOM      7  N   UNL     1      13.978  11.154  14.401  0.00  0.00    -0.134 NA
ATOM     19  C   UNL     1      14.885  11.133  16.448  0.00  0.00    +0.134 A 
ATOM     22  C   UNL     1      15.007  11.575  15.173  0.00  0.00    +0.083 A 
BRANCH  22  18
ATOM     18  C   UNL     1      16.093  12.421  14.587  0.00  0.00    +0.062 C 
BRANCH  18  15
ATOM     15  C   UNL     1      17.456  12.127  15.210  0.00  0.00    -0.005 C 
ATOM     16  C   UNL     1      17.908  13.292  16.101  0.00  0.00    +0.004 C 
ATOM     17  C   UNL     1      18.497  11.836  14.121  0.00  0.00    +0.004 C 
ATOM     20  C   UNL     1      19.294  13.045  16.693  0.00  0.00    +0.000 C 
ATOM     21  C   UNL     1      19.883  11.591  14.717  0.00  0.00    +0.000 C 
ATOM     23  C   UNL     1      20.325  12.747  15.608  0.00  0.00    +0.000 C 
ENDBRANCH  18  15
ENDBRANCH  22  18
ENDBRANCH  11   4
BRANCH  12   5
ATOM      3  O   UNL     1      16.539   5.572  18.387  0.00  0.00    -0.270 OA
ATOM      5  N   UNL     1      15.579   6.900  20.028  0.00  0.00    -0.304 N 
ATOM     24  C   UNL     1      16.622   6.197  19.441  0.00  0.00    +0.244 C 
ATOM     33  H   UNL     1      15.689   7.296  20.956  0.00  0.00    +0.149 HD
BRANCH  24  25
ATOM     25  C   UNL     1      17.909   6.203  20.182  0.00  0.00    +0.037 A 
ATOM     26  C   UNL     1      18.051   7.048  21.263  0.00  0.00    +0.015 A 
ATOM     27  C   UNL     1      18.921   5.362  19.767  0.00  0.00    +0.015 A 
ATOM     28  C   UNL     1      19.260   7.052  21.960  0.00  0.00    +0.024 A 
ATOM     29  C   UNL     1      20.129   5.365  20.464  0.00  0.00    +0.024 A 
ATOM     30  C   UNL     1      20.299   6.211  21.560  0.00  0.00    +0.029 A 
BRANCH  30   8
ATOM      8  N   UNL     1      21.520   6.214  22.266  0.00  0.00    -0.336 N 
ATOM     31  C   UNL     1      22.095   4.972  22.743  0.00  0.00    +0.129 C 
ATOM     32  C   UNL     1      22.209   7.460  22.535  0.00  0.00    +0.129 C 
ENDBRANCH  30   8
ENDBRANCH  24  25
ENDBRANCH  12   5
TORSDOF 6
ENDMDL
MODEL 3
REMARK VINA RESULT:      -7.4     18.532     20.132
REMARK  Name = 11867589
REMARK  8 active torsions:
REMARK  status: ('A' for Active; 'I' for Inactive)
REMARK    1  A    between atoms: N_4  and  C_11
REMARK    2  A    between atoms: N_5  and  C_12
REMARK    3  A    between atoms: N_8  and  C_30
REMARK    4  A    between atoms: N_8  and  C_31
REMARK    5  A    between atoms: N_8  and  C_32
REMARK    6  A    between atoms: C_15  and  C_18
REMARK    7  A    between atoms: C_18  and  C_22
REMARK    8  A    between atoms: C_24  and  C_25
REMARK                            x       y       z     vdW  Elec       q    Type
REMARK                         _______ _______ _______ _____ _____    ______ ____
ROOT
ATOM      1  O   UNL     1      -5.114 -10.486  18.285  0.00  0.00    -0.370 OA
ATOM      2  O   UNL     1      -7.171 -12.141  16.577  0.00  0.00    -0.370 OA
ATOM      9  C   UNL     1      -6.129 -11.203  16.250  0.00  0.00    +0.175 C 
ATOM     10  C   UNL     1      -6.131 -10.139  17.331  0.00  0.00    +0.171 C 
ATOM     11  C   UNL     1      -4.775 -11.874  16.373  0.00  0.00    +0.166 C 
ATOM     12  C   UNL     1      -7.500 -10.249  17.961  0.00  0.00    +0.130 C 
ATOM     13  C   UNL     1      -4.413 -11.654  17.837  0.00  0.00    +0.190 C 
ATOM     14  C   UNL     1      -7.822 -11.720  17.784  0.00  0.00    +0.185 C 
ENDROOT
BRANCH  11   4
ATOM      4  N   UNL     1      -3.801 -11.355  15.409  0.00  0.00    -0.244 N 
ATOM      6  N   UNL     1      -2.667 -10.771  15.829  0.00  0.00    -0.065 NA
ATOM      7  N   UNL     1      -1.991 -10.399  14.748  0.00  0.00    -0.134 NA
ATOM     19  C   UNL     1      -3.883 -11.373  14.050  0.00  0.00    +0.134 A 
ATOM     22  C   UNL     1      -2.731 -10.766  13.675  0.00  0.00    +0.083 A 
BRANCH  22  18
ATOM     18  C   UNL     1      -2.242 -10.485  12.289  0.00  0.00    +0.062 C 
BRANCH  18  15
ATOM     15  C   UNL     1      -3.386 -10.371  11.283  0.00  0.00    -0.005 C 
ATOM     16  C   UNL     1      -3.567 -11.689  10.517  0.00  0.00    +0.004 C 
ATOM     17  C   UNL     1      -3.142  -9.206  10.316  0.00  0.00    +0.004 C 
ATOM     20  C   UNL     1      -4.670 -11.584   9.467  0.00  0.00    +0.000 C 
ATOM     21  C   UNL     1      -4.248  -9.104   9.266  0.00  0.00    +0.000 C 
ATOM     23  C   UNL     1      -4.430 -10.418   8.512  0.00  0.00    +0.000 C 
ENDBRANCH  18  15
ENDBRANCH  22  18
ENDBRANCH  11   4
BRANCH  12   5
ATOM      3  O   UNL     1     -10.203  -9.716  18.775  0.00  0.00    -0.270 OA
ATOM      5  N   UNL     1      -8.459  -9.417  17.275  0.00  0.00    -0.304 N 
ATOM     24  C   UNL     1      -9.749  -9.218  17.748  0.00  0.00    +0.244 C 
ATOM     33  H   UNL     1      -8.192  -9.068  16.360  0.00  0.00    +0.149 HD
BRANCH  24  25
ATOM     25  C   UNL     1     -10.623  -8.356  16.912  0.00  0.00    +0.037 A 
ATOM     26  C   UNL     1     -10.044  -7.370  16.140  0.00  0.00    +0.015 A 
ATOM     27  C   UNL     1     -11.986  -8.570  16.932  0.00  0.00    +0.015 A 
ATOM     28  C   UNL     1     -10.865  -6.561  15.354  0.00  0.00    +0.024 A 
ATOM     29  C   UNL     1     -12.807  -7.763  16.146  0.00  0.00    +0.024 A 
ATOM     30  C   UNL     1     -12.246  -6.758  15.357  0.00  0.00    +0.029 A 
BRANCH  30   8
ATOM      8  N   UNL     1     -13.076  -5.941  14.561  0.00  0.00    -0.336 N 
ATOM     31  C   UNL     1     -14.508  -6.163  14.526  0.00  0.00    +0.129 C 
ATOM     32  C   UNL     1     -12.506  -4.879  13.756  0.00  0.00    +0.129 C 
ENDBRANCH  30   8
ENDBRANCH  24  25
ENDBRANCH  12   5
TORSDOF 6
ENDMDL
MODEL 4
REMARK VINA RESULT:      -7.2     33.040     36.423
REMARK  Name = 11867589
REMARK  8 active torsions:
REMARK  status: ('A' for Active; 'I' for Inactive)
REMARK    1  A    between atoms: N_4  and  C_11
REMARK    2  A    between atoms: N_5  and  C_12
REMARK    3  A    between atoms: N_8  and  C_30
REMARK    4  A    between atoms: N_8  and  C_31
REMARK    5  A    between atoms: N_8  and  C_32
REMARK    6  A    between atoms: C_15  and  C_18
REMARK    7  A    between atoms: C_18  and  C_22
REMARK    8  A    between atoms: C_24  and  C_25
REMARK                            x       y       z     vdW  Elec       q    Type
REMARK                         _______ _______ _______ _____ _____    ______ ____
ROOT
ATOM      1  O   UNL     1      24.112   1.851  22.783  0.00  0.00    -0.370 OA
ATOM      2  O   UNL     1      23.127   3.918  24.939  0.00  0.00    -0.370 OA
ATOM      9  C   UNL     1      22.654   2.630  24.501  0.00  0.00    +0.175 C 
ATOM     10  C   UNL     1      22.880   2.557  23.004  0.00  0.00    +0.171 C 
ATOM     11  C   UNL     1      23.531   1.536  25.078  0.00  0.00    +0.166 C 
ATOM     12  C   UNL     1      23.020   4.001  22.575  0.00  0.00    +0.130 C 
ATOM     13  C   UNL     1      24.639   1.401  24.039  0.00  0.00    +0.190 C 
ATOM     14  C   UNL     1      23.622   4.647  23.808  0.00  0.00    +0.185 C 
ENDROOT
BRANCH  11   4
ATOM      4  N   UNL     1      22.786   0.305  25.353  0.00  0.00    -0.244 N 
ATOM      6  N   UNL     1      23.427  -0.815  25.724  0.00  0.00    -0.065 NA
ATOM      7  N   UNL     1      22.508  -1.757  25.897  0.00  0.00    -0.134 NA
ATOM     19  C   UNL     1      21.441   0.111  25.278  0.00  0.00    +0.134 A 
ATOM     22  C   UNL     1      21.308  -1.191  25.626  0.00  0.00    +0.083 A 
BRANCH  22  18
ATOM     18  C   UNL     1      20.053  -1.998  25.729  0.00  0.00    +0.062 C 
BRANCH  18  15
ATOM     15  C   UNL     1      19.180  -1.874  24.481  0.00  0.00    -0.005 C 
ATOM     16  C   UNL     1      17.851  -1.184  24.816  0.00  0.00    +0.004 C 
ATOM     17  C   UNL     1      18.937  -3.252  23.851  0.00  0.00    +0.004 C 
ATOM     20  C   UNL     1      16.938  -1.096  23.595  0.00  0.00    +0.000 C 
ATOM     21  C   UNL     1      18.022  -3.160  22.631  0.00  0.00    +0.000 C 
ATOM     23  C   UNL     1      16.706  -2.466  22.966  0.00  0.00    +0.000 C 
ENDBRANCH  18  15
ENDBRANCH  22  18
ENDBRANCH  11   4
BRANCH  12   5
ATOM      3  O   UNL     1      22.268   5.254  20.103  0.00  0.00    -0.270 OA
ATOM      5  N   UNL     1      21.736   4.577  22.257  0.00  0.00    -0.304 N 
ATOM     24  C   UNL     1      21.465   5.164  21.029  0.00  0.00    +0.244 C 
ATOM     33  H   UNL     1      21.062   4.642  23.013  0.00  0.00    +0.149 HD
BRANCH  24  25
ATOM     25  C   UNL     1      20.104   5.736  20.867  0.00  0.00    +0.037 A 
ATOM     26  C   UNL     1      19.289   5.242  19.869  0.00  0.00    +0.015 A 
ATOM     27  C   UNL     1      19.698   6.741  21.720  0.00  0.00    +0.015 A 
ATOM     28  C   UNL     1      18.009   5.779  19.718  0.00  0.00    +0.024 A 
ATOM     29  C   UNL     1      18.419   7.277  21.570  0.00  0.00    +0.024 A 
ATOM     30  C   UNL     1      17.575   6.796  20.569  0.00  0.00    +0.029 A 
BRANCH  30   8
ATOM      8  N   UNL     1      16.281   7.338  20.417  0.00  0.00    -0.336 N 
ATOM     31  C   UNL     1      15.424   6.896  19.335  0.00  0.00    +0.129 C 
ATOM     32  C   UNL     1      15.798   8.352  21.332  0.00  0.00    +0.129 C 
ENDBRANCH  30   8
ENDBRANCH  24  25
ENDBRANCH  12   5
TORSDOF 6
ENDMDL
MODEL 5
REMARK VINA RESULT:      -7.1     16.593     18.164
REMARK  Name = 11867589
REMARK  8 active torsions:
REMARK  status: ('A' for Active; 'I' for Inactive)
REMARK    1  A    between atoms: N_4  and  C_11
REMARK    2  A    between atoms: N_5  and  C_12
REMARK    3  A    between atoms: N_8  and  C_30
REMARK    4  A    between atoms: N_8  and  C_31
REMARK    5  A    between atoms: N_8  and  C_32
REMARK    6  A    between atoms: C_15  and  C_18
REMARK    7  A    between atoms: C_18  and  C_22
REMARK    8  A    between atoms: C_24  and  C_25
REMARK                            x       y       z     vdW  Elec       q    Type
REMARK                         _______ _______ _______ _____ _____    ______ ____
ROOT
ATOM      1  O   UNL     1     -12.995  -7.691  14.395  0.00  0.00    -0.370 OA
ATOM      2  O   UNL     1     -11.028  -5.996  16.168  0.00  0.00    -0.370 OA
ATOM      9  C   UNL     1     -11.248  -6.109  14.750  0.00  0.00    +0.175 C 
ATOM     10  C   UNL     1     -11.566  -7.563  14.461  0.00  0.00    +0.171 C 
ATOM     11  C   UNL     1     -12.505  -5.355  14.362  0.00  0.00    +0.166 C 
ATOM     12  C   UNL     1     -11.027  -8.309  15.661  0.00  0.00    +0.130 C 
ATOM     13  C   UNL     1     -13.601  -6.400  14.541  0.00  0.00    +0.190 C 
ATOM     14  C   UNL     1     -11.180  -7.288  16.772  0.00  0.00    +0.185 C 
ENDROOT
BRANCH  11   4
ATOM      4  N   UNL     1     -12.419  -4.770  13.022  0.00  0.00    -0.244 N 
ATOM      6  N   UNL     1     -12.517  -3.443  12.847  0.00  0.00    -0.065 NA
ATOM      7  N   UNL     1     -12.411  -3.207  11.544  0.00  0.00    -0.134 NA
ATOM     19  C   UNL     1     -12.249  -5.421  11.839  0.00  0.00    +0.134 A 
ATOM     22  C   UNL     1     -12.249  -4.407  10.939  0.00  0.00    +0.083 A 
BRANCH  22  18
ATOM     18  C   UNL     1     -12.098  -4.489   9.453  0.00  0.00    +0.062 C 
BRANCH  18  15
ATOM     15  C   UNL     1     -11.081  -5.548   9.031  0.00  0.00    -0.005 C 
ATOM     16  C   UNL     1      -9.727  -4.901   8.708  0.00  0.00    +0.004 C 
ATOM     17  C   UNL     1     -11.602  -6.353   7.834  0.00  0.00    +0.004 C 
ATOM     20  C   UNL     1      -8.707  -5.933   8.232  0.00  0.00    +0.000 C 
ATOM     21  C   UNL     1     -10.579  -7.385   7.360  0.00  0.00    +0.000 C 
ATOM     23  C   UNL     1      -9.233  -6.738   7.047  0.00  0.00    +0.000 C 
ENDBRANCH  18  15
ENDBRANCH  22  18
ENDBRANCH  11   4
BRANCH  12   5
ATOM      3  O   UNL     1      -9.554 -10.278  17.145  0.00  0.00    -0.270 OA
ATOM      5  N   UNL     1      -9.645  -8.674  15.471  0.00  0.00    -0.304 N 
ATOM     24  C   UNL     1      -9.015  -9.642  16.241  0.00  0.00    +0.244 C 
ATOM     33  H   UNL     1      -9.106  -8.109  14.822  0.00  0.00    +0.149 HD
BRANCH  24  25
ATOM     25  C   UNL     1      -7.581  -9.883  15.940  0.00  0.00    +0.037 A 
ATOM     26  C   UNL     1      -6.669  -9.853  16.975  0.00  0.00    +0.015 A 
ATOM     27  C   UNL     1      -7.206 -10.129  14.635  0.00  0.00    +0.015 A 
ATOM     28  C   UNL     1      -5.322 -10.080  16.692  0.00  0.00    +0.024 A 
ATOM     29  C   UNL     1      -5.860 -10.357  14.352  0.00  0.00    +0.024 A 
ATOM     30  C   UNL     1      -4.918 -10.332  15.380  0.00  0.00    +0.029 A 
BRANCH  30   8
ATOM      8  N   UNL     1      -3.556 -10.563  15.094  0.00  0.00    -0.336 N 
ATOM     31  C   UNL     1      -3.102 -10.667  13.722  0.00  0.00    +0.129 C 
ATOM     32  C   UNL     1      -2.596 -10.714  16.169  0.00  0.00    +0.129 C 
ENDBRANCH  30   8
ENDBRANCH  24  25
ENDBRANCH  12   5
TORSDOF 6
ENDMDL
MODEL 6
REMARK VINA RESULT:      -7.0      2.001     10.338
REMARK  Name = 11867589
REMARK  8 active torsions:
REMARK  status: ('A' for Active; 'I' for Inactive)
REMARK    1  A    between atoms: N_4  and  C_11
REMARK    2  A    between atoms: N_5  and  C_12
REMARK    3  A    between atoms: N_8  and  C_30
REMARK    4  A    between atoms: N_8  and  C_31
REMARK    5  A    between atoms: N_8  and  C_32
REMARK    6  A    between atoms: C_15  and  C_18
REMARK    7  A    between atoms: C_18  and  C_22
REMARK    8  A    between atoms: C_24  and  C_25
REMARK                            x       y       z     vdW  Elec       q    Type
REMARK                         _______ _______ _______ _____ _____    ______ ____
ROOT
ATOM      1  O   UNL     1     -18.399   2.740  26.960  0.00  0.00    -0.370 OA
ATOM      2  O   UNL     1     -16.773   0.975  24.928  0.00  0.00    -0.370 OA
ATOM      9  C   UNL     1     -16.418   1.728  26.103  0.00  0.00    +0.175 C 
ATOM     10  C   UNL     1     -17.270   2.982  26.104  0.00  0.00    +0.171 C 
ATOM     11  C   UNL     1     -16.842   0.972  27.346  0.00  0.00    +0.166 C 
ATOM     12  C   UNL     1     -17.723   3.129  24.669  0.00  0.00    +0.130 C 
ATOM     13  C   UNL     1     -18.275   1.446  27.565  0.00  0.00    +0.190 C 
ATOM     14  C   UNL     1     -17.782   1.687  24.199  0.00  0.00    +0.185 C 
ENDROOT
BRANCH  11   4
ATOM      4  N   UNL     1     -15.937   1.194  28.476  0.00  0.00    -0.244 N 
ATOM      6  N   UNL     1     -15.531   0.168  29.241  0.00  0.00    -0.065 NA
ATOM      7  N   UNL     1     -14.732   0.666  30.178  0.00  0.00    -0.134 NA
ATOM     19  C   UNL     1     -15.411   2.376  28.902  0.00  0.00    +0.134 A 
ATOM     22  C   UNL     1     -14.664   2.001  29.968  0.00  0.00    +0.083 A 
BRANCH  22  18
ATOM     18  C   UNL     1     -13.834   2.865  30.865  0.00  0.00    +0.062 C 
BRANCH  18  15
ATOM     15  C   UNL     1     -14.672   3.901  31.611  0.00  0.00    -0.005 C 
ATOM     16  C   UNL     1     -13.772   4.853  32.410  0.00  0.00    +0.004 C 
ATOM     17  C   UNL     1     -15.692   3.213  32.528  0.00  0.00    +0.004 C 
ATOM     20  C   UNL     1     -14.590   5.866  33.207  0.00  0.00    +0.000 C 
ATOM     21  C   UNL     1     -16.508   4.230  33.326  0.00  0.00    +0.000 C 
ATOM     23  C   UNL     1     -15.610   5.180  34.112  0.00  0.00    +0.000 C 
ENDBRANCH  18  15
ENDBRANCH  22  18
ENDBRANCH  11   4
BRANCH  12   5
ATOM      3  O   UNL     1     -18.264   4.634  22.284  0.00  0.00    -0.270 OA
ATOM      5  N   UNL     1     -16.772   3.891  23.897  0.00  0.00    -0.304 N 
ATOM     24  C   UNL     1     -17.129   4.590  22.752  0.00  0.00    +0.244 C 
ATOM     33  H   UNL     1     -15.795   3.805  24.159  0.00  0.00    +0.149 HD
BRANCH  24  25
ATOM     25  C   UNL     1     -16.028   5.304  22.056  0.00  0.00    +0.037 A 
ATOM     26  C   UNL     1     -16.333   6.112  20.980  0.00  0.00    +0.015 A 
ATOM     27  C   UNL     1     -14.735   5.137  22.507  0.00  0.00    +0.015 A 
ATOM     28  C   UNL     1     -15.299   6.783  20.327  0.00  0.00    +0.024 A 
ATOM     29  C   UNL     1     -13.701   5.808  21.856  0.00  0.00    +0.024 A 
ATOM     30  C   UNL     1     -13.983   6.631  20.765  0.00  0.00    +0.029 A 
BRANCH  30   8
ATOM      8  N   UNL     1     -12.938   7.311  20.105  0.00  0.00    -0.336 N 
ATOM     31  C   UNL     1     -13.186   8.000  18.855  0.00  0.00    +0.129 C 
ATOM     32  C   UNL     1     -11.600   7.316  20.662  0.00  0.00    +0.129 C 
ENDBRANCH  30   8
ENDBRANCH  24  25
ENDBRANCH  12   5
TORSDOF 6
ENDMDL
MODEL 7
REMARK VINA RESULT:      -6.9     28.772     31.403
REMARK  Name = 11867589
REMARK  8 active torsions:
REMARK  status: ('A' for Active; 'I' for Inactive)
REMARK    1  A    between atoms: N_4  and  C_11
REMARK    2  A    between atoms: N_5  and  C_12
REMARK    3  A    between atoms: N_8  and  C_30
REMARK    4  A    between atoms: N_8  and  C_31
REMARK    5  A    between atoms: N_8  and  C_32
REMARK    6  A    between atoms: C_15  and  C_18
REMARK    7  A    between atoms: C_18  and  C_22
REMARK    8  A    between atoms: C_24  and  C_25
REMARK                            x       y       z     vdW  Elec       q    Type
REMARK                         _______ _______ _______ _____ _____    ______ ____
ROOT
ATOM      1  O   UNL     1      13.226   7.516  17.210  0.00  0.00    -0.370 OA
ATOM      2  O   UNL     1      13.318   9.036  19.962  0.00  0.00    -0.370 OA
ATOM      9  C   UNL     1      13.948   9.246  18.684  0.00  0.00    +0.175 C 
ATOM     10  C   UNL     1      14.279   7.878  18.119  0.00  0.00    +0.171 C 
ATOM     11  C   UNL     1      12.948   9.834  17.708  0.00  0.00    +0.166 C 
ATOM     12  C   UNL     1      14.269   6.963  19.322  0.00  0.00    +0.130 C 
ATOM     13  C   UNL     1      12.292   8.599  17.100  0.00  0.00    +0.190 C 
ATOM     14  C   UNL     1      13.248   7.627  20.226  0.00  0.00    +0.185 C 
ENDROOT
BRANCH  11   4
ATOM      4  N   UNL     1      13.572  10.743  16.743  0.00  0.00    -0.244 N 
ATOM      6  N   UNL     1      14.330  11.769  17.160  0.00  0.00    -0.065 NA
ATOM      7  N   UNL     1      14.751  12.414  16.079  0.00  0.00    -0.134 NA
ATOM     19  C   UNL     1      13.486  10.702  15.385  0.00  0.00    +0.134 A 
ATOM     22  C   UNL     1      14.238  11.765  15.008  0.00  0.00    +0.083 A 
BRANCH  22  18
ATOM     18  C   UNL     1      14.528  12.247  13.622  0.00  0.00    +0.062 C 
BRANCH  18  15
ATOM     15  C   UNL     1      13.255  12.514  12.822  0.00  0.00    -0.005 C 
ATOM     16  C   UNL     1      13.565  12.601  11.322  0.00  0.00    +0.004 C 
ATOM     17  C   UNL     1      12.566  13.794  13.313  0.00  0.00    +0.004 C 
ATOM     20  C   UNL     1      12.315  12.921  10.504  0.00  0.00    +0.000 C 
ATOM     21  C   UNL     1      11.316  14.112  12.493  0.00  0.00    +0.000 C 
ATOM     23  C   UNL     1      11.627  14.189  11.001  0.00  0.00    +0.000 C 
ENDBRANCH  18  15
ENDBRANCH  22  18
ENDBRANCH  11   4
BRANCH  12   5
ATOM      3  O   UNL     1      16.599   5.603  18.336  0.00  0.00    -0.270 OA
ATOM      5  N   UNL     1      15.567   6.912  19.950  0.00  0.00    -0.304 N 
ATOM     24  C   UNL     1      16.639   6.226  19.394  0.00  0.00    +0.244 C 
ATOM     33  H   UNL     1      15.642   7.306  20.882  0.00  0.00    +0.149 HD
BRANCH  24  25
ATOM     25  C   UNL     1      17.901   6.248  20.177  0.00  0.00    +0.037 A 
ATOM     26  C   UNL     1      18.017   7.131  21.230  0.00  0.00    +0.015 A 
ATOM     27  C   UNL     1      18.917   5.382  19.827  0.00  0.00    +0.015 A 
ATOM     28  C   UNL     1      19.203   7.150  21.966  0.00  0.00    +0.024 A 
ATOM     29  C   UNL     1      20.102   5.400  20.562  0.00  0.00    +0.024 A 
ATOM     30  C   UNL     1      20.245   6.284  21.631  0.00  0.00    +0.029 A 
BRANCH  30   8
ATOM      8  N   UNL     1      21.443   6.302  22.376  0.00  0.00    -0.336 N 
ATOM     31  C   UNL     1      22.059   5.062  22.803  0.00  0.00    +0.129 C 
ATOM     32  C   UNL     1      22.064   7.561  22.735  0.00  0.00    +0.129 C 
ENDBRANCH  30   8
ENDBRANCH  24  25
ENDBRANCH  12   5
TORSDOF 6
ENDMDL
MODEL 8
REMARK VINA RESULT:      -6.9      1.889     10.354
REMARK  Name = 11867589
REMARK  8 active torsions:
REMARK  status: ('A' for Active; 'I' for Inactive)
REMARK    1  A    between atoms: N_4  and  C_11
REMARK    2  A    between atoms: N_5  and  C_12
REMARK    3  A    between atoms: N_8  and  C_30
REMARK    4  A    between atoms: N_8  and  C_31
REMARK    5  A    between atoms: N_8  and  C_32
REMARK    6  A    between atoms: C_15  and  C_18
REMARK    7  A    between atoms: C_18  and  C_22
REMARK    8  A    between atoms: C_24  and  C_25
REMARK                            x       y       z     vdW  Elec       q    Type
REMARK                         _______ _______ _______ _____ _____    ______ ____
ROOT
ATOM      1  O   UNL     1     -18.968   3.426  24.683  0.00  0.00    -0.370 OA
ATOM      2  O   UNL     1     -17.179   1.555  22.899  0.00  0.00    -0.370 OA
ATOM      9  C   UNL     1     -16.968   2.246  24.145  0.00  0.00    +0.175 C 
ATOM     10  C   UNL     1     -17.690   3.576  24.045  0.00  0.00    +0.171 C 
ATOM     11  C   UNL     1     -17.672   1.509  25.268  0.00  0.00    +0.166 C 
ATOM     12  C   UNL     1     -17.868   3.794  22.560  0.00  0.00    +0.130 C 
ATOM     13  C   UNL     1     -19.071   2.114  25.253  0.00  0.00    +0.190 C 
ATOM     14  C   UNL     1     -17.975   2.375  22.034  0.00  0.00    +0.185 C 
ENDROOT
BRANCH  11   4
ATOM      4  N   UNL     1     -16.962   1.620  26.545  0.00  0.00    -0.244 N 
ATOM      6  N   UNL     1     -16.926   0.587  27.401  0.00  0.00    -0.065 NA
ATOM      7  N   UNL     1     -16.226   0.976  28.460  0.00  0.00    -0.134 NA
ATOM     19  C   UNL     1     -16.288   2.698  27.031  0.00  0.00    +0.134 A 
ATOM     22  C   UNL     1     -15.843   2.253  28.231  0.00  0.00    +0.083 A 
BRANCH  22  18
ATOM     18  C   UNL     1     -15.030   2.991  29.248  0.00  0.00    +0.062 C 
BRANCH  18  15
ATOM     15  C   UNL     1     -15.405   2.609  30.678  0.00  0.00    -0.005 C 
ATOM     16  C   UNL     1     -15.698   3.862  31.514  0.00  0.00    +0.004 C 
ATOM     17  C   UNL     1     -14.295   1.769  31.324  0.00  0.00    +0.004 C 
ATOM     20  C   UNL     1     -16.025   3.510  32.964  0.00  0.00    +0.000 C 
ATOM     21  C   UNL     1     -14.624   1.419  32.774  0.00  0.00    +0.000 C 
ATOM     23  C   UNL     1     -14.923   2.667  33.600  0.00  0.00    +0.000 C 
ENDBRANCH  18  15
ENDBRANCH  22  18
ENDBRANCH  11   4
BRANCH  12   5
ATOM      3  O   UNL     1     -17.279   6.599  22.755  0.00  0.00    -0.270 OA
ATOM      5  N   UNL     1     -16.731   4.477  21.993  0.00  0.00    -0.304 N 
ATOM     24  C   UNL     1     -16.530   5.843  22.141  0.00  0.00    +0.244 C 
ATOM     33  H   UNL     1     -16.133   3.938  21.375  0.00  0.00    +0.149 HD
BRANCH  24  25
ATOM     25  C   UNL     1     -15.325   6.399  21.473  0.00  0.00    +0.037 A 
ATOM     26  C   UNL     1     -14.079   5.987  21.897  0.00  0.00    +0.015 A 
ATOM     27  C   UNL     1     -15.490   7.310  20.451  0.00  0.00    +0.015 A 
ATOM     28  C   UNL     1     -12.947   6.509  21.270  0.00  0.00    +0.024 A 
ATOM     29  C   UNL     1     -14.360   7.832  19.822  0.00  0.00    +0.024 A 
ATOM     30  C   UNL     1     -13.088   7.431  20.232  0.00  0.00    +0.029 A 
BRANCH  30   8
ATOM      8  N   UNL     1     -11.944   7.958  19.597  0.00  0.00    -0.336 N 
ATOM     31  C   UNL     1     -11.216   7.167  18.625  0.00  0.00    +0.129 C 
ATOM     32  C   UNL     1     -11.474   9.290  19.918  0.00  0.00    +0.129 C 
ENDBRANCH  30   8
ENDBRANCH  24  25
ENDBRANCH  12   5
TORSDOF 6
ENDMDL
MODEL 9
REMARK VINA RESULT:      -6.8     16.897     18.434
REMARK  Name = 11867589
REMARK  8 active torsions:
REMARK  status: ('A' for Active; 'I' for Inactive)
REMARK    1  A    between atoms: N_4  and  C_11
REMARK    2  A    between atoms: N_5  and  C_12
REMARK    3  A    between atoms: N_8  and  C_30
REMARK    4  A    between atoms: N_8  and  C_31
REMARK    5  A    between atoms: N_8  and  C_32
REMARK    6  A    between atoms: C_15  and  C_18
REMARK    7  A    between atoms: C_18  and  C_22
REMARK    8  A    between atoms: C_24  and  C_25
REMARK                            x       y       z     vdW  Elec       q    Type
REMARK                         _______ _______ _______ _____ _____    ______ ____
ROOT
ATOM      1  O   UNL     1     -11.927  -9.937  15.737  0.00  0.00    -0.370 OA
ATOM      2  O   UNL     1     -10.122  -8.164  17.605  0.00  0.00    -0.370 OA
ATOM      9  C   UNL     1     -10.529  -8.069  16.227  0.00  0.00    +0.175 C 
ATOM     10  C   UNL     1     -10.567  -9.480  15.673  0.00  0.00    +0.171 C 
ATOM     11  C   UNL     1     -11.964  -7.585  16.146  0.00  0.00    +0.166 C 
ATOM     12  C   UNL     1      -9.701 -10.278  16.623  0.00  0.00    +0.130 C 
ATOM     13  C   UNL     1     -12.767  -8.879  16.218  0.00  0.00    +0.190 C 
ATOM     14  C   UNL     1      -9.897  -9.542  17.935  0.00  0.00    +0.185 C 
ENDROOT
BRANCH  11   4
ATOM      4  N   UNL     1     -12.215  -6.765  14.959  0.00  0.00    -0.244 N 
ATOM      6  N   UNL     1     -12.751  -7.306  13.853  0.00  0.00    -0.065 NA
ATOM      7  N   UNL     1     -12.855  -6.338  12.950  0.00  0.00    -0.134 NA
ATOM     19  C   UNL     1     -11.960  -5.438  14.794  0.00  0.00    +0.134 A 
ATOM     22  C   UNL     1     -12.375  -5.210  13.525  0.00  0.00    +0.083 A 
BRANCH  22  18
ATOM     18  C   UNL     1     -12.353  -3.925  12.760  0.00  0.00    +0.062 C 
BRANCH  18  15
ATOM     15  C   UNL     1     -12.899  -4.083  11.343  0.00  0.00    -0.005 C 
ATOM     16  C   UNL     1     -11.821  -3.741  10.305  0.00  0.00    +0.004 C 
ATOM     17  C   UNL     1     -14.146  -3.213  11.142  0.00  0.00    +0.004 C 
ATOM     20  C   UNL     1     -12.359  -3.841   8.879  0.00  0.00    +0.000 C 
ATOM     21  C   UNL     1     -14.681  -3.314   9.715  0.00  0.00    +0.000 C 
ATOM     23  C   UNL     1     -13.605  -2.981   8.686  0.00  0.00    +0.000 C 
ENDBRANCH  18  15
ENDBRANCH  22  18
ENDBRANCH  11   4
BRANCH  12   5
ATOM      3  O   UNL     1      -7.611 -12.019  17.543  0.00  0.00    -0.270 OA
ATOM      5  N   UNL     1      -8.318 -10.256  16.212  0.00  0.00    -0.304 N 
ATOM     24  C   UNL     1      -7.376 -11.142  16.715  0.00  0.00    +0.244 C 
ATOM     33  H   UNL     1      -8.028  -9.485  15.619  0.00  0.00    +0.149 HD
BRANCH  24  25
ATOM     25  C   UNL     1      -5.989 -10.972  16.211  0.00  0.00    +0.037 A 
ATOM     26  C   UNL     1      -4.949 -10.956  17.118  0.00  0.00    +0.015 A 
ATOM     27  C   UNL     1      -5.784 -10.837  14.854  0.00  0.00    +0.015 A 
ATOM     28  C   UNL     1      -3.646 -10.797  16.644  0.00  0.00    +0.024 A 
ATOM     29  C   UNL     1      -4.483 -10.679  14.380  0.00  0.00    +0.024 A 
ATOM     30  C   UNL     1      -3.413 -10.659  15.276  0.00  0.00    +0.029 A 
BRANCH  30   8
ATOM      8  N   UNL     1      -2.096 -10.500  14.797  0.00  0.00    -0.336 N 
ATOM     31  C   UNL     1      -0.986 -10.403  15.724  0.00  0.00    +0.129 C 
ATOM     32  C   UNL     1      -1.837 -10.418  13.374  0.00  0.00    +0.129 C 
ENDBRANCH  30   8
ENDBRANCH  24  25
ENDBRANCH  12   5
TORSDOF 6
ENDMDL
MODEL 10
REMARK VINA RESULT:      -6.7     29.921     34.984
REMARK  Name = 11867589
REMARK  8 active torsions:
REMARK  status: ('A' for Active; 'I' for Inactive)
REMARK    1  A    between atoms: N_4  and  C_11
REMARK    2  A    between atoms: N_5  and  C_12
REMARK    3  A    between atoms: N_8  and  C_30
REMARK    4  A    between atoms: N_8  and  C_31
REMARK    5  A    between atoms: N_8  and  C_32
REMARK    6  A    between atoms: C_15  and  C_18
REMARK    7  A    between atoms: C_18  and  C_22
REMARK    8  A    between atoms: C_24  and  C_25
REMARK                            x       y       z     vdW  Elec       q    Type
REMARK                         _______ _______ _______ _____ _____    ______ ____
ROOT
ATOM      1  O   UNL     1      13.468   5.722  -1.252  0.00  0.00    -0.370 OA
ATOM      2  O   UNL     1      13.019   2.914   0.091  0.00  0.00    -0.370 OA
ATOM      9  C   UNL     1      12.142   3.886  -0.507  0.00  0.00    +0.175 C 
ATOM     10  C   UNL     1      12.680   5.257  -0.145  0.00  0.00    +0.171 C 
ATOM     11  C   UNL     1      12.250   3.817  -2.018  0.00  0.00    +0.166 C 
ATOM     12  C   UNL     1      13.562   5.006   1.058  0.00  0.00    +0.130 C 
ATOM     13  C   UNL     1      13.398   4.772  -2.324  0.00  0.00    +0.190 C 
ATOM     14  C   UNL     1      14.059   3.595   0.807  0.00  0.00    +0.185 C 
ENDROOT
BRANCH  11   4
ATOM      4  N   UNL     1      10.985   4.132  -2.687  0.00  0.00    -0.244 N 
ATOM      6  N   UNL     1      10.013   3.211  -2.784  0.00  0.00    -0.065 NA
ATOM      7  N   UNL     1       9.002   3.772  -3.436  0.00  0.00    -0.134 NA
ATOM     19  C   UNL     1      10.624   5.306  -3.274  0.00  0.00    +0.134 A 
ATOM     22  C   UNL     1       9.377   5.038  -3.731  0.00  0.00    +0.083 A 
BRANCH  22  18
ATOM     18  C   UNL     1       8.449   5.947  -4.474  0.00  0.00    +0.062 C 
BRANCH  18  15
ATOM     15  C   UNL     1       6.992   5.751  -4.060  0.00  0.00    -0.005 C 
ATOM     16  C   UNL     1       6.084   5.668  -5.295  0.00  0.00    +0.004 C 
ATOM     17  C   UNL     1       6.538   6.878  -3.124  0.00  0.00    +0.004 C 
ATOM     20  C   UNL     1       4.614   5.526  -4.907  0.00  0.00    +0.000 C 
ATOM     21  C   UNL     1       5.067   6.733  -2.738  0.00  0.00    +0.000 C 
ATOM     23  C   UNL     1       4.169   6.643  -3.968  0.00  0.00    +0.000 C 
ENDBRANCH  18  15
ENDBRANCH  22  18
ENDBRANCH  11   4
BRANCH  12   5
ATOM      3  O   UNL     1      12.976   7.381   2.563  0.00  0.00    -0.270 OA
ATOM      5  N   UNL     1      12.807   5.084   2.284  0.00  0.00    -0.304 N 
ATOM     24  C   UNL     1      12.574   6.283   2.943  0.00  0.00    +0.244 C 
ATOM     33  H   UNL     1      12.543   4.205   2.718  0.00  0.00    +0.149 HD
BRANCH  24  25
ATOM     25  C   UNL     1      11.801   6.192   4.209  0.00  0.00    +0.037 A 
ATOM     26  C   UNL     1      10.714   5.345   4.265  0.00  0.00    +0.015 A 
ATOM     27  C   UNL     1      12.197   6.955   5.288  0.00  0.00    +0.015 A 
ATOM     28  C   UNL     1       9.989   5.258   5.454  0.00  0.00    +0.024 A 
ATOM     29  C   UNL     1      11.473   6.868   6.476  0.00  0.00    +0.024 A 
ATOM     30  C   UNL     1      10.369   6.020   6.560  0.00  0.00    +0.029 A 
BRANCH  30   8
ATOM      8  N   UNL     1       9.637   5.931   7.762  0.00  0.00    -0.336 N 
ATOM     31  C   UNL     1       8.866   7.062   8.237  0.00  0.00    +0.129 C 
ATOM     32  C   UNL     1       9.659   4.712   8.546  0.00  0.00    +0.129 C 
ENDBRANCH  30   8
ENDBRANCH  24  25
ENDBRANCH  12   5
TORSDOF 6
ENDMDL
