MODEL 1
REMARK VINA RESULT:      -6.1      0.000      0.000
REMARK  Name = 75537133
REMARK  4 active torsions:
REMARK  status: ('A' for Active; 'I' for Inactive)
REMARK    1  A    between atoms: N_2  and  C_8
REMARK    2  A    between atoms: N_4  and  C_19
REMARK    3  A    between atoms: N_5  and  C_23
REMARK    4  A    between atoms: C_19  and  C_20
REMARK                            x       y       z     vdW  Elec       q    Type
REMARK                         _______ _______ _______ _____ _____    ______ ____
ROOT
ATOM      1  O   UNL     1      20.488   7.709  22.556  0.00  0.00    -0.252 OA
ATOM      2  N   UNL     1      20.384   5.891  21.057  0.00  0.00    -0.281 N 
ATOM      3  N   UNL     1      18.699   7.376  21.070  0.00  0.00    -0.278 N 
ATOM      4  N   UNL     1      16.045   7.222  20.150  0.00  0.00    -0.295 NA
ATOM      7  C   UNL     1      18.386   6.483  19.974  0.00  0.00    +0.109 C 
ATOM      9  C   UNL     1      19.407   5.356  20.123  0.00  0.00    +0.133 C 
ATOM     10  C   UNL     1      16.926   6.041  20.048  0.00  0.00    +0.109 C 
ATOM     13  C   UNL     1      19.929   7.076  21.670  0.00  0.00    +0.305 C 
ATOM     14  C   UNL     1      17.815   8.487  21.352  0.00  0.00    +0.125 C 
ATOM     15  C   UNL     1      16.360   8.011  21.358  0.00  0.00    +0.104 C 
ENDROOT
BRANCH   2   8
ATOM      8  C   UNL     1      21.591   5.176  21.394  0.00  0.00    +0.078 C 
ATOM     11  C   UNL     1      22.793   5.778  20.662  0.00  0.00    +0.022 C 
ATOM     12  C   UNL     1      21.441   3.684  21.085  0.00  0.00    +0.022 C 
ATOM     16  C   UNL     1      24.076   5.008  20.960  0.00  0.00    +0.002 C 
ATOM     17  C   UNL     1      22.727   2.917  21.383  0.00  0.00    +0.002 C 
ATOM     18  C   UNL     1      23.924   3.520  20.655  0.00  0.00    +0.000 C 
ENDBRANCH   2   8
BRANCH   4  19
ATOM     19  C   UNL     1      14.642   6.812  20.160  0.00  0.00    +0.122 C 
BRANCH  19  20
ATOM      5  N   UNL     1      12.376   8.087  17.587  0.00  0.00    -0.274 N 
ATOM      6  N   UNL     1      13.472   7.997  16.813  0.00  0.00    -0.180 NA
ATOM     20  C   UNL     1      13.899   7.325  18.955  0.00  0.00    +0.004 A 
ATOM     21  C   UNL     1      12.579   7.697  18.878  0.00  0.00    +0.112 A 
ATOM     22  C   UNL     1      14.399   7.530  17.655  0.00  0.00    +0.139 A 
ATOM     23  C   UNL     1      11.137   8.564  17.022  0.00  0.00    +0.172 C 
ENDBRANCH  19  20
ENDBRANCH   4  19
TORSDOF 3
ENDMDL
MODEL 2
REMARK VINA RESULT:      -6.1     27.695     29.485
REMARK  Name = 75537133
REMARK  4 active torsions:
REMARK  status: ('A' for Active; 'I' for Inactive)
REMARK    1  A    between atoms: N_2  and  C_8
REMARK    2  A    between atoms: N_4  and  C_19
REMARK    3  A    between atoms: N_5  and  C_23
REMARK    4  A    between atoms: C_19  and  C_20
REMARK                            x       y       z     vdW  Elec       q    Type
REMARK                         _______ _______ _______ _____ _____    ______ ____
ROOT
ATOM      1  O   UNL     1      -1.783 -10.742  15.894  0.00  0.00    -0.252 OA
ATOM      2  N   UNL     1      -4.134 -10.708  15.711  0.00  0.00    -0.281 N 
ATOM      3  N   UNL     1      -2.908 -10.793  13.832  0.00  0.00    -0.278 N 
ATOM      4  N   UNL     1      -3.514 -10.171  11.157  0.00  0.00    -0.295 NA
ATOM      7  C   UNL     1      -4.277 -10.911  13.377  0.00  0.00    +0.109 C 
ATOM      9  C   UNL     1      -5.102 -10.621  14.630  0.00  0.00    +0.133 C 
ATOM     10  C   UNL     1      -4.532  -9.962  12.206  0.00  0.00    +0.109 C 
ATOM     13  C   UNL     1      -2.811 -10.751  15.230  0.00  0.00    +0.305 C 
ATOM     14  C   UNL     1      -1.833 -10.835  12.863  0.00  0.00    +0.125 C 
ATOM     15  C   UNL     1      -2.157  -9.918  11.682  0.00  0.00    +0.104 C 
ENDROOT
BRANCH   2   8
ATOM      8  C   UNL     1      -4.525 -10.603  17.096  0.00  0.00    +0.078 C 
ATOM     11  C   UNL     1      -4.112 -11.859  17.867  0.00  0.00    +0.022 C 
ATOM     12  C   UNL     1      -6.029 -10.345  17.217  0.00  0.00    +0.022 C 
ATOM     16  C   UNL     1      -4.559 -11.797  19.325  0.00  0.00    +0.002 C 
ATOM     17  C   UNL     1      -6.474 -10.285  18.676  0.00  0.00    +0.002 C 
ATOM     18  C   UNL     1      -6.059 -11.537  19.443  0.00  0.00    +0.000 C 
ENDBRANCH   2   8
BRANCH   4  19
ATOM     19  C   UNL     1      -3.785  -9.310  10.006  0.00  0.00    +0.122 C 
BRANCH  19  20
ATOM      5  N   UNL     1      -5.599 -10.615   7.111  0.00  0.00    -0.274 N 
ATOM      6  N   UNL     1      -5.154 -11.796   7.574  0.00  0.00    -0.180 NA
ATOM     20  C   UNL     1      -4.457 -10.062   8.889  0.00  0.00    +0.004 A 
ATOM     21  C   UNL     1      -5.210  -9.546   7.863  0.00  0.00    +0.112 A 
ATOM     22  C   UNL     1      -4.456 -11.452   8.660  0.00  0.00    +0.139 A 
ATOM     23  C   UNL     1      -6.413 -10.573   5.920  0.00  0.00    +0.172 C 
ENDBRANCH  19  20
ENDBRANCH   4  19
TORSDOF 3
ENDMDL
MODEL 3
REMARK VINA RESULT:      -5.9      1.991      8.606
REMARK  Name = 75537133
REMARK  4 active torsions:
REMARK  status: ('A' for Active; 'I' for Inactive)
REMARK    1  A    between atoms: N_2  and  C_8
REMARK    2  A    between atoms: N_4  and  C_19
REMARK    3  A    between atoms: N_5  and  C_23
REMARK    4  A    between atoms: C_19  and  C_20
REMARK                            x       y       z     vdW  Elec       q    Type
REMARK                         _______ _______ _______ _____ _____    ______ ____
ROOT
ATOM      1  O   UNL     1      16.138  10.295  20.866  0.00  0.00    -0.252 OA
ATOM      2  N   UNL     1      15.283   8.315  19.911  0.00  0.00    -0.281 N 
ATOM      3  N   UNL     1      17.214   8.215  21.053  0.00  0.00    -0.278 N 
ATOM      4  N   UNL     1      19.303   6.331  21.058  0.00  0.00    -0.295 NA
ATOM      7  C   UNL     1      16.918   6.837  20.719  0.00  0.00    +0.109 C 
ATOM      9  C   UNL     1      15.738   6.944  19.754  0.00  0.00    +0.133 C 
ATOM     10  C   UNL     1      18.157   6.151  20.144  0.00  0.00    +0.109 C 
ATOM     13  C   UNL     1      16.202   9.093  20.643  0.00  0.00    +0.305 C 
ATOM     14  C   UNL     1      18.402   8.517  21.823  0.00  0.00    +0.125 C 
ATOM     15  C   UNL     1      19.604   7.764  21.250  0.00  0.00    +0.104 C 
ENDROOT
BRANCH   2   8
ATOM      8  C   UNL     1      14.100   8.808  19.248  0.00  0.00    +0.078 C 
ATOM     11  C   UNL     1      12.857   8.068  19.747  0.00  0.00    +0.022 C 
ATOM     12  C   UNL     1      14.244   8.695  17.728  0.00  0.00    +0.022 C 
ATOM     16  C   UNL     1      11.596   8.535  19.023  0.00  0.00    +0.002 C 
ATOM     17  C   UNL     1      12.981   9.160  17.008  0.00  0.00    +0.002 C 
ATOM     18  C   UNL     1      11.742   8.423  17.508  0.00  0.00    +0.000 C 
ENDBRANCH   2   8
BRANCH   4  19
ATOM     19  C   UNL     1      20.478   5.626  20.547  0.00  0.00    +0.122 C 
BRANCH  19  20
ATOM      5  N   UNL     1      22.418   3.563  22.860  0.00  0.00    -0.274 N 
ATOM      6  N   UNL     1      22.283   4.631  23.664  0.00  0.00    -0.180 NA
ATOM     20  C   UNL     1      21.258   4.962  21.649  0.00  0.00    +0.004 A 
ATOM     21  C   UNL     1      21.822   3.710  21.643  0.00  0.00    +0.112 A 
ATOM     22  C   UNL     1      21.574   5.484  22.919  0.00  0.00    +0.139 A 
ATOM     23  C   UNL     1      23.142   2.403  23.324  0.00  0.00    +0.172 C 
ENDBRANCH  19  20
ENDBRANCH   4  19
TORSDOF 3
ENDMDL
MODEL 4
REMARK VINA RESULT:      -5.9     27.684     30.988
REMARK  Name = 75537133
REMARK  4 active torsions:
REMARK  status: ('A' for Active; 'I' for Inactive)
REMARK    1  A    between atoms: N_2  and  C_8
REMARK    2  A    between atoms: N_4  and  C_19
REMARK    3  A    between atoms: N_5  and  C_23
REMARK    4  A    between atoms: C_19  and  C_20
REMARK                            x       y       z     vdW  Elec       q    Type
REMARK                         _______ _______ _______ _____ _____    ______ ____
ROOT
ATOM      1  O   UNL     1      -8.572 -10.865  19.640  0.00  0.00    -0.252 OA
ATOM      2  N   UNL     1      -8.641  -9.851  17.512  0.00  0.00    -0.281 N 
ATOM      3  N   UNL     1      -6.916 -11.200  18.008  0.00  0.00    -0.278 N 
ATOM      4  N   UNL     1      -4.348 -11.464  16.890  0.00  0.00    -0.295 NA
ATOM      7  C   UNL     1      -6.717 -10.856  16.616  0.00  0.00    +0.109 C 
ATOM      9  C   UNL     1      -7.757  -9.765  16.361  0.00  0.00    +0.133 C 
ATOM     10  C   UNL     1      -5.270 -10.431  16.374  0.00  0.00    +0.109 C 
ATOM     13  C   UNL     1      -8.104 -10.668  18.527  0.00  0.00    +0.305 C 
ATOM     14  C   UNL     1      -5.979 -12.093  18.657  0.00  0.00    +0.125 C 
ATOM     15  C   UNL     1      -4.543 -11.667  18.340  0.00  0.00    +0.104 C 
ENDROOT
BRANCH   2   8
ATOM      8  C   UNL     1      -9.839  -9.054  17.616  0.00  0.00    +0.078 C 
ATOM     11  C   UNL     1     -11.079  -9.911  17.347  0.00  0.00    +0.022 C 
ATOM     12  C   UNL     1      -9.776  -7.853  16.668  0.00  0.00    +0.022 C 
ATOM     16  C   UNL     1     -12.359  -9.081  17.400  0.00  0.00    +0.002 C 
ATOM     17  C   UNL     1     -11.058  -7.027  16.722  0.00  0.00    +0.002 C 
ATOM     18  C   UNL     1     -12.292  -7.883  16.456  0.00  0.00    +0.000 C 
ENDBRANCH   2   8
BRANCH   4  19
ATOM     19  C   UNL     1      -2.962 -11.095  16.608  0.00  0.00    +0.122 C 
BRANCH  19  20
ATOM      5  N   UNL     1      -2.037 -11.012  13.070  0.00  0.00    -0.274 N 
ATOM      6  N   UNL     1      -2.218 -12.340  13.164  0.00  0.00    -0.180 NA
ATOM     20  C   UNL     1      -2.610 -11.298  15.159  0.00  0.00    +0.004 A 
ATOM     21  C   UNL     1      -2.260 -10.342  14.237  0.00  0.00    +0.112 A 
ATOM     22  C   UNL     1      -2.568 -12.510  14.442  0.00  0.00    +0.139 A 
ATOM     23  C   UNL     1      -1.644 -10.428  11.810  0.00  0.00    +0.172 C 
ENDBRANCH  19  20
ENDBRANCH   4  19
TORSDOF 3
ENDMDL
MODEL 5
REMARK VINA RESULT:      -5.9     27.511     30.372
REMARK  Name = 75537133
REMARK  4 active torsions:
REMARK  status: ('A' for Active; 'I' for Inactive)
REMARK    1  A    between atoms: N_2  and  C_8
REMARK    2  A    between atoms: N_4  and  C_19
REMARK    3  A    between atoms: N_5  and  C_23
REMARK    4  A    between atoms: C_19  and  C_20
REMARK                            x       y       z     vdW  Elec       q    Type
REMARK                         _______ _______ _______ _____ _____    ______ ____
ROOT
ATOM      1  O   UNL     1      -5.394 -12.397  17.966  0.00  0.00    -0.252 OA
ATOM      2  N   UNL     1      -5.229 -10.740  16.296  0.00  0.00    -0.281 N 
ATOM      3  N   UNL     1      -7.040 -10.756  17.624  0.00  0.00    -0.278 N 
ATOM      4  N   UNL     1      -9.599  -9.626  17.334  0.00  0.00    -0.295 NA
ATOM      7  C   UNL     1      -7.194  -9.565  16.816  0.00  0.00    +0.109 C 
ATOM      9  C   UNL     1      -6.087  -9.691  15.770  0.00  0.00    +0.133 C 
ATOM     10  C   UNL     1      -8.609  -9.487  16.246  0.00  0.00    +0.109 C 
ATOM     13  C   UNL     1      -5.831 -11.419  17.374  0.00  0.00    +0.305 C 
ATOM     14  C   UNL     1      -8.039 -11.067  18.624  0.00  0.00    +0.125 C 
ATOM     15  C   UNL     1      -9.441 -10.919  18.028  0.00  0.00    +0.104 C 
ENDROOT
BRANCH   2   8
ATOM      8  C   UNL     1      -3.988 -11.104  15.657  0.00  0.00    +0.078 C 
ATOM     11  C   UNL     1      -2.799 -10.511  16.418  0.00  0.00    +0.022 C 
ATOM     12  C   UNL     1      -3.984 -10.665  14.190  0.00  0.00    +0.022 C 
ATOM     16  C   UNL     1      -1.474 -10.838  15.734  0.00  0.00    +0.002 C 
ATOM     17  C   UNL     1      -2.657 -10.991  13.509  0.00  0.00    +0.002 C 
ATOM     18  C   UNL     1      -1.473 -10.402  14.271  0.00  0.00    +0.000 C 
ENDBRANCH   2   8
BRANCH   4  19
ATOM     19  C   UNL     1     -10.957  -9.493  16.806  0.00  0.00    +0.122 C 
BRANCH  19  20
ATOM      5  N   UNL     1     -11.781  -6.430  14.985  0.00  0.00    -0.274 N 
ATOM      6  N   UNL     1     -11.281  -5.840  16.084  0.00  0.00    -0.180 NA
ATOM     20  C   UNL     1     -11.209  -8.118  16.248  0.00  0.00    +0.004 A 
ATOM     21  C   UNL     1     -11.760  -7.793  15.033  0.00  0.00    +0.112 A 
ATOM     22  C   UNL     1     -10.933  -6.876  16.853  0.00  0.00    +0.139 A 
ATOM     23  C   UNL     1     -12.272  -5.619  13.896  0.00  0.00    +0.172 C 
ENDBRANCH  19  20
ENDBRANCH   4  19
TORSDOF 3
ENDMDL
MODEL 6
REMARK VINA RESULT:      -5.8     27.707     31.852
REMARK  Name = 75537133
REMARK  4 active torsions:
REMARK  status: ('A' for Active; 'I' for Inactive)
REMARK    1  A    between atoms: N_2  and  C_8
REMARK    2  A    between atoms: N_4  and  C_19
REMARK    3  A    between atoms: N_5  and  C_23
REMARK    4  A    between atoms: C_19  and  C_20
REMARK                            x       y       z     vdW  Elec       q    Type
REMARK                         _______ _______ _______ _____ _____    ______ ____
ROOT
ATOM      1  O   UNL     1     -10.845  -9.941  19.567  0.00  0.00    -0.252 OA
ATOM      2  N   UNL     1     -10.120  -9.111  17.481  0.00  0.00    -0.281 N 
ATOM      3  N   UNL     1      -8.895 -10.697  18.495  0.00  0.00    -0.278 N 
ATOM      4  N   UNL     1      -6.219 -11.501  18.177  0.00  0.00    -0.295 NA
ATOM      7  C   UNL     1      -8.254 -10.510  17.211  0.00  0.00    +0.109 C 
ATOM      9  C   UNL     1      -8.951  -9.279  16.634  0.00  0.00    +0.133 C 
ATOM     10  C   UNL     1      -6.743 -10.369  17.386  0.00  0.00    +0.109 C 
ATOM     13  C   UNL     1     -10.055  -9.923  18.631  0.00  0.00    +0.305 C 
ATOM     14  C   UNL     1      -8.367 -11.684  19.414  0.00  0.00    +0.125 C 
ATOM     15  C   UNL     1      -6.846 -11.545  19.513  0.00  0.00    +0.104 C 
ENDROOT
BRANCH   2   8
ATOM      8  C   UNL     1     -11.123  -8.110  17.211  0.00  0.00    +0.078 C 
ATOM     11  C   UNL     1     -12.358  -8.747  16.570  0.00  0.00    +0.022 C 
ATOM     12  C   UNL     1     -10.552  -6.995  16.331  0.00  0.00    +0.022 C 
ATOM     16  C   UNL     1     -13.416  -7.702  16.225  0.00  0.00    +0.002 C 
ATOM     17  C   UNL     1     -11.612  -5.952  15.986  0.00  0.00    +0.002 C 
ATOM     18  C   UNL     1     -12.844  -6.589  15.350  0.00  0.00    +0.000 C 
ENDBRANCH   2   8
BRANCH   4  19
ATOM     19  C   UNL     1      -4.764 -11.407  18.299  0.00  0.00    +0.122 C 
BRANCH  19  20
ATOM      5  N   UNL     1      -2.849 -11.105  15.197  0.00  0.00    -0.274 N 
ATOM      6  N   UNL     1      -3.479 -12.253  14.892  0.00  0.00    -0.180 NA
ATOM     20  C   UNL     1      -4.083 -11.487  16.959  0.00  0.00    +0.004 A 
ATOM     21  C   UNL     1      -3.177 -10.606  16.423  0.00  0.00    +0.112 A 
ATOM     22  C   UNL     1      -4.232 -12.482  15.972  0.00  0.00    +0.139 A 
ATOM     23  C   UNL     1      -1.927 -10.521  14.253  0.00  0.00    +0.172 C 
ENDBRANCH  19  20
ENDBRANCH   4  19
TORSDOF 3
ENDMDL
MODEL 7
REMARK VINA RESULT:      -5.8     28.021     30.586
REMARK  Name = 75537133
REMARK  4 active torsions:
REMARK  status: ('A' for Active; 'I' for Inactive)
REMARK    1  A    between atoms: N_2  and  C_8
REMARK    2  A    between atoms: N_4  and  C_19
REMARK    3  A    between atoms: N_5  and  C_23
REMARK    4  A    between atoms: C_19  and  C_20
REMARK                            x       y       z     vdW  Elec       q    Type
REMARK                         _______ _______ _______ _____ _____    ______ ____
ROOT
ATOM      1  O   UNL     1      -6.338 -10.292  19.378  0.00  0.00    -0.252 OA
ATOM      2  N   UNL     1      -7.481  -9.959  17.343  0.00  0.00    -0.281 N 
ATOM      3  N   UNL     1      -5.436 -10.885  17.291  0.00  0.00    -0.278 N 
ATOM      4  N   UNL     1      -3.540 -11.151  15.231  0.00  0.00    -0.295 NA
ATOM      7  C   UNL     1      -5.894 -10.941  15.919  0.00  0.00    +0.109 C 
ATOM      9  C   UNL     1      -7.174 -10.106  15.930  0.00  0.00    +0.133 C 
ATOM     10  C   UNL     1      -4.806 -10.434  14.974  0.00  0.00    +0.109 C 
ATOM     13  C   UNL     1      -6.410 -10.373  18.159  0.00  0.00    +0.305 C 
ATOM     14  C   UNL     1      -4.138 -11.430  17.627  0.00  0.00    +0.125 C 
ATOM     15  C   UNL     1      -3.091 -10.945  16.622  0.00  0.00    +0.104 C 
ENDROOT
BRANCH   2   8
ATOM      8  C   UNL     1      -8.691  -9.317  17.799  0.00  0.00    +0.078 C 
ATOM     11  C   UNL     1      -9.715 -10.361  18.250  0.00  0.00    +0.022 C 
ATOM     12  C   UNL     1      -9.266  -8.407  16.710  0.00  0.00    +0.022 C 
ATOM     16  C   UNL     1     -11.024  -9.711  18.689  0.00  0.00    +0.002 C 
ATOM     17  C   UNL     1     -10.576  -7.761  17.152  0.00  0.00    +0.002 C 
ATOM     18  C   UNL     1     -11.595  -8.803  17.603  0.00  0.00    +0.000 C 
ENDBRANCH   2   8
BRANCH   4  19
ATOM     19  C   UNL     1      -2.508 -10.716  14.290  0.00  0.00    +0.122 C 
BRANCH  19  20
ATOM      5  N   UNL     1      -3.463 -12.128  11.054  0.00  0.00    -0.274 N 
ATOM      6  N   UNL     1      -3.175 -10.891  10.617  0.00  0.00    -0.180 NA
ATOM     20  C   UNL     1      -2.853 -11.080  12.871  0.00  0.00    +0.004 A 
ATOM     21  C   UNL     1      -3.287 -12.294  12.397  0.00  0.00    +0.112 A 
ATOM     22  C   UNL     1      -2.802 -10.254  11.731  0.00  0.00    +0.139 A 
ATOM     23  C   UNL     1      -3.911 -13.133  10.120  0.00  0.00    +0.172 C 
ENDBRANCH  19  20
ENDBRANCH   4  19
TORSDOF 3
ENDMDL
MODEL 8
REMARK VINA RESULT:      -5.7     27.351     29.897
REMARK  Name = 75537133
REMARK  4 active torsions:
REMARK  status: ('A' for Active; 'I' for Inactive)
REMARK    1  A    between atoms: N_2  and  C_8
REMARK    2  A    between atoms: N_4  and  C_19
REMARK    3  A    between atoms: N_5  and  C_23
REMARK    4  A    between atoms: C_19  and  C_20
REMARK                            x       y       z     vdW  Elec       q    Type
REMARK                         _______ _______ _______ _____ _____    ______ ____
ROOT
ATOM      1  O   UNL     1      -1.469 -10.202  12.035  0.00  0.00    -0.252 OA
ATOM      2  N   UNL     1      -3.759 -10.611  11.649  0.00  0.00    -0.281 N 
ATOM      3  N   UNL     1      -3.037 -10.444  13.768  0.00  0.00    -0.278 N 
ATOM      4  N   UNL     1      -4.141 -11.305  16.208  0.00  0.00    -0.295 NA
ATOM      7  C   UNL     1      -4.475 -10.566  13.884  0.00  0.00    +0.109 C 
ATOM      9  C   UNL     1      -4.925 -10.908  12.464  0.00  0.00    +0.133 C 
ATOM     10  C   UNL     1      -4.837 -11.609  14.941  0.00  0.00    +0.109 C 
ATOM     13  C   UNL     1      -2.611 -10.390  12.434  0.00  0.00    +0.305 C 
ATOM     14  C   UNL     1      -2.240 -10.292  14.968  0.00  0.00    +0.125 C 
ATOM     15  C   UNL     1      -2.677 -11.315  16.019  0.00  0.00    +0.104 C 
ENDROOT
BRANCH   2   8
ATOM      8  C   UNL     1      -3.793 -10.696  10.209  0.00  0.00    +0.078 C 
ATOM     11  C   UNL     1      -4.724  -9.628   9.630  0.00  0.00    +0.022 C 
ATOM     12  C   UNL     1      -4.206 -12.099   9.757  0.00  0.00    +0.022 C 
ATOM     16  C   UNL     1      -4.819  -9.728   8.110  0.00  0.00    +0.002 C 
ATOM     17  C   UNL     1      -4.302 -12.195   8.237  0.00  0.00    +0.002 C 
ATOM     18  C   UNL     1      -5.229 -11.128   7.662  0.00  0.00    +0.000 C 
ENDBRANCH   2   8
BRANCH   4  19
ATOM     19  C   UNL     1      -4.529 -12.262  17.243  0.00  0.00    +0.122 C 
BRANCH  19  20
ATOM      5  N   UNL     1      -7.504 -11.152  19.059  0.00  0.00    -0.274 N 
ATOM      6  N   UNL     1      -6.592 -10.632  19.899  0.00  0.00    -0.180 NA
ATOM     20  C   UNL     1      -5.599 -11.709  18.146  0.00  0.00    +0.004 A 
ATOM     21  C   UNL     1      -6.960 -11.807  17.993  0.00  0.00    +0.112 A 
ATOM     22  C   UNL     1      -5.430 -10.976  19.337  0.00  0.00    +0.139 A 
ATOM     23  C   UNL     1      -8.910 -10.984  19.333  0.00  0.00    +0.172 C 
ENDBRANCH  19  20
ENDBRANCH   4  19
TORSDOF 3
ENDMDL
MODEL 9
REMARK VINA RESULT:      -5.7     30.458     34.293
REMARK  Name = 75537133
REMARK  4 active torsions:
REMARK  status: ('A' for Active; 'I' for Inactive)
REMARK    1  A    between atoms: N_2  and  C_8
REMARK    2  A    between atoms: N_4  and  C_19
REMARK    3  A    between atoms: N_5  and  C_23
REMARK    4  A    between atoms: C_19  and  C_20
REMARK                            x       y       z     vdW  Elec       q    Type
REMARK                         _______ _______ _______ _____ _____    ______ ____
ROOT
ATOM      1  O   UNL     1     -16.190   8.107  22.121  0.00  0.00    -0.252 OA
ATOM      2  N   UNL     1     -14.449   6.566  21.729  0.00  0.00    -0.281 N 
ATOM      3  N   UNL     1     -16.179   5.934  23.014  0.00  0.00    -0.278 N 
ATOM      4  N   UNL     1     -16.466   3.871  24.904  0.00  0.00    -0.295 NA
ATOM      7  C   UNL     1     -15.373   4.739  22.877  0.00  0.00    +0.109 C 
ATOM      9  C   UNL     1     -14.096   5.238  22.202  0.00  0.00    +0.133 C 
ATOM     10  C   UNL     1     -15.163   4.079  24.239  0.00  0.00    +0.109 C 
ATOM     13  C   UNL     1     -15.675   7.007  22.266  0.00  0.00    +0.305 C 
ATOM     14  C   UNL     1     -17.407   5.876  23.777  0.00  0.00    +0.125 C 
ATOM     15  C   UNL     1     -17.165   5.156  25.105  0.00  0.00    +0.104 C 
ENDROOT
BRANCH   2   8
ATOM      8  C   UNL     1     -13.545   7.357  20.929  0.00  0.00    +0.078 C 
ATOM     11  C   UNL     1     -14.067   7.484  19.496  0.00  0.00    +0.022 C 
ATOM     12  C   UNL     1     -12.134   6.764  20.958  0.00  0.00    +0.022 C 
ATOM     16  C   UNL     1     -13.103   8.273  18.614  0.00  0.00    +0.002 C 
ATOM     17  C   UNL     1     -11.174   7.554  20.073  0.00  0.00    +0.002 C 
ATOM     18  C   UNL     1     -11.697   7.681  18.646  0.00  0.00    +0.000 C 
ENDBRANCH   2   8
BRANCH   4  19
ATOM     19  C   UNL     1     -16.281   3.185  26.182  0.00  0.00    +0.122 C 
BRANCH  19  20
ATOM      5  N   UNL     1     -18.524   0.406  26.971  0.00  0.00    -0.274 N 
ATOM      6  N   UNL     1     -18.156  -0.019  25.750  0.00  0.00    -0.180 NA
ATOM     20  C   UNL     1     -17.145   1.958  26.291  0.00  0.00    +0.004 A 
ATOM     21  C   UNL     1     -17.947   1.585  27.342  0.00  0.00    +0.112 A 
ATOM     22  C   UNL     1     -17.313   0.933  25.339  0.00  0.00    +0.139 A 
ATOM     23  C   UNL     1     -19.451  -0.376  27.753  0.00  0.00    +0.172 C 
ENDBRANCH  19  20
ENDBRANCH   4  19
TORSDOF 3
ENDMDL
MODEL 10
REMARK VINA RESULT:      -5.4     27.604     31.110
REMARK  Name = 75537133
REMARK  4 active torsions:
REMARK  status: ('A' for Active; 'I' for Inactive)
REMARK    1  A    between atoms: N_2  and  C_8
REMARK    2  A    between atoms: N_4  and  C_19
REMARK    3  A    between atoms: N_5  and  C_23
REMARK    4  A    between atoms: C_19  and  C_20
REMARK                            x       y       z     vdW  Elec       q    Type
REMARK                         _______ _______ _______ _____ _____    ______ ____
ROOT
ATOM      1  O   UNL     1      -5.846 -13.403  16.060  0.00  0.00    -0.252 OA
ATOM      2  N   UNL     1      -5.011 -11.209  16.288  0.00  0.00    -0.281 N 
ATOM      3  N   UNL     1      -7.016 -11.696  17.174  0.00  0.00    -0.278 N 
ATOM      4  N   UNL     1      -9.175 -10.072  17.955  0.00  0.00    -0.295 NA
ATOM      7  C   UNL     1      -6.755 -10.336  17.594  0.00  0.00    +0.109 C 
ATOM      9  C   UNL     1      -5.510  -9.944  16.800  0.00  0.00    +0.133 C 
ATOM     10  C   UNL     1      -7.979  -9.457  17.343  0.00  0.00    +0.109 C 
ATOM     13  C   UNL     1      -5.944 -12.251  16.461  0.00  0.00    +0.305 C 
ATOM     14  C   UNL     1      -8.238 -12.346  17.597  0.00  0.00    +0.125 C 
ATOM     15  C   UNL     1      -9.430 -11.409  17.384  0.00  0.00    +0.104 C 
ENDROOT
BRANCH   2   8
ATOM      8  C   UNL     1      -3.768 -11.303  15.561  0.00  0.00    +0.078 C 
ATOM     11  C   UNL     1      -2.631 -10.658  16.357  0.00  0.00    +0.022 C 
ATOM     12  C   UNL     1      -3.903 -10.672  14.172  0.00  0.00    +0.022 C 
ATOM     16  C   UNL     1      -1.313 -10.697  15.588  0.00  0.00    +0.002 C 
ATOM     17  C   UNL     1      -2.583 -10.710  13.407  0.00  0.00    +0.002 C 
ATOM     18  C   UNL     1      -1.450 -10.069  14.203  0.00  0.00    +0.000 C 
ENDBRANCH   2   8
BRANCH   4  19
ATOM     19  C   UNL     1     -10.341  -9.208  17.773  0.00  0.00    +0.122 C 
BRANCH  19  20
ATOM      5  N   UNL     1     -13.386  -9.929  19.667  0.00  0.00    -0.274 N 
ATOM      6  N   UNL     1     -12.513 -10.156  20.663  0.00  0.00    -0.180 NA
ATOM     20  C   UNL     1     -11.447  -9.548  18.736  0.00  0.00    +0.004 A 
ATOM     21  C   UNL     1     -12.798  -9.562  18.492  0.00  0.00    +0.112 A 
ATOM     22  C   UNL     1     -11.329  -9.922  20.089  0.00  0.00    +0.139 A 
ATOM     23  C   UNL     1     -14.801 -10.082  19.904  0.00  0.00    +0.172 C 
ENDBRANCH  19  20
ENDBRANCH   4  19
TORSDOF 3
ENDMDL
