MODEL 1
REMARK VINA RESULT:      -7.1      0.000      0.000
REMARK  Name = 45784114
REMARK  12 active torsions:
REMARK  status: ('A' for Active; 'I' for Inactive)
REMARK    1  A    between atoms: N_3  and  C_15
REMARK    2  A    between atoms: N_3  and  C_21
REMARK    3  A    between atoms: N_7  and  C_27
REMARK    4  A    between atoms: C_8  and  C_12
REMARK    5  A    between atoms: C_9  and  C_15
REMARK    6  A    between atoms: C_11  and  C_16
REMARK    7  A    between atoms: C_12  and  C_17
REMARK    8  A    between atoms: C_12  and  C_18
REMARK    9  A    between atoms: C_13  and  C_19
REMARK   10  A    between atoms: C_16  and  C_20
REMARK   11  A    between atoms: C_22  and  C_26
REMARK   12  A    between atoms: C_28  and  C_29
REMARK                            x       y       z     vdW  Elec       q    Type
REMARK                         _______ _______ _______ _____ _____    ______ ____
ROOT
ATOM      8  C   UNL     1      14.188   9.512  19.847  0.00  0.00    +0.000 C 
ATOM      9  C   UNL     1      12.989   8.637  20.291  0.00  0.00    +0.032 C 
ATOM     10  C   UNL     1      13.725  10.599  18.865  0.00  0.00    +0.012 C 
ATOM     11  C   UNL     1      13.062  10.005  17.608  0.00  0.00    +0.024 C 
ATOM     13  C   UNL     1      12.050   8.932  17.958  0.00  0.00    -0.073 C 
ATOM     14  C   UNL     1      12.023   8.343  19.166  0.00  0.00    -0.022 C 
ATOM     19  C   UNL     1      11.038   8.586  16.902  0.00  0.00    +0.039 C 
ENDROOT
BRANCH   8  12
ATOM     12  C   UNL     1      14.892  10.160  21.043  0.00  0.00    -0.013 C 
ATOM     17  C   UNL     1      16.060  11.020  20.571  0.00  0.00    +0.007 C 
ATOM     18  C   UNL     1      13.905  10.989  21.858  0.00  0.00    +0.007 C 
ENDBRANCH   8  12
BRANCH   9  15
ATOM     15  C   UNL     1      13.465   7.320  20.914  0.00  0.00    +0.109 C 
BRANCH  15   3
ATOM      3  N   UNL     1      14.252   6.593  19.955  0.00  0.00    -0.342 N 
ATOM     30  H   UNL     1      13.795   6.129  19.179  0.00  0.00    +0.146 HD
BRANCH   3  21
ATOM      6  N   UNL     1      17.719   5.875  18.962  0.00  0.00    -0.238 NA
ATOM     21  C   UNL     1      15.630   6.438  20.043  0.00  0.00    +0.046 A 
ATOM     23  C   UNL     1      16.302   6.671  21.238  0.00  0.00    +0.028 A 
ATOM     24  C   UNL     1      16.377   6.045  18.944  0.00  0.00    +0.135 A 
ATOM     25  C   UNL     1      17.683   6.507  21.296  0.00  0.00    +0.045 A 
ATOM     27  C   UNL     1      18.338   6.112  20.141  0.00  0.00    +0.125 A 
BRANCH  27   7
ATOM      2  O   UNL     1      20.490   8.033  21.006  0.00  0.00    -0.276 OA
ATOM      7  N   UNL     1      19.727   5.951  20.209  0.00  0.00    -0.271 N 
ATOM     28  C   UNL     1      20.682   6.883  20.622  0.00  0.00    +0.215 C 
ATOM     29  C   UNL     1      22.078   6.316  20.552  0.00  0.00    +0.109 C 
ATOM     31  H   UNL     1      20.075   5.038  19.921  0.00  0.00    +0.156 HD
ENDBRANCH  27   7
ENDBRANCH   3  21
ENDBRANCH  15   3
ENDBRANCH   9  15
BRANCH  11  16
ATOM     16  C   UNL     1      14.115   9.468  16.631  0.00  0.00    +0.105 C 
BRANCH  16  20
ATOM      1  O   UNL     1      15.522  10.749  15.105  0.00  0.00    -0.425 OA
ATOM      4  N   UNL     1      13.337  10.846  14.635  0.00  0.00    -0.112 NA
ATOM      5  N   UNL     1      14.009  11.611  13.700  0.00  0.00    -0.113 NA
ATOM     20  C   UNL     1      14.259  10.363  15.435  0.00  0.00    +0.218 A 
ATOM     22  C   UNL     1      15.281  11.525  14.012  0.00  0.00    +0.214 A 
ATOM     26  C   UNL     1      16.448  12.137  13.364  0.00  0.00    +0.111 C 
ENDBRANCH  16  20
ENDBRANCH  11  16
TORSDOF 7
ENDMDL
MODEL 2
REMARK VINA RESULT:      -6.9      2.353      3.322
REMARK  Name = 45784114
REMARK  12 active torsions:
REMARK  status: ('A' for Active; 'I' for Inactive)
REMARK    1  A    between atoms: N_3  and  C_15
REMARK    2  A    between atoms: N_3  and  C_21
REMARK    3  A    between atoms: N_7  and  C_27
REMARK    4  A    between atoms: C_8  and  C_12
REMARK    5  A    between atoms: C_9  and  C_15
REMARK    6  A    between atoms: C_11  and  C_16
REMARK    7  A    between atoms: C_12  and  C_17
REMARK    8  A    between atoms: C_12  and  C_18
REMARK    9  A    between atoms: C_13  and  C_19
REMARK   10  A    between atoms: C_16  and  C_20
REMARK   11  A    between atoms: C_22  and  C_26
REMARK   12  A    between atoms: C_28  and  C_29
REMARK                            x       y       z     vdW  Elec       q    Type
REMARK                         _______ _______ _______ _____ _____    ______ ____
ROOT
ATOM      8  C   UNL     1      12.916  10.269  21.182  0.00  0.00    +0.000 C 
ATOM      9  C   UNL     1      13.787   9.236  21.938  0.00  0.00    +0.032 C 
ATOM     10  C   UNL     1      11.424   9.967  21.388  0.00  0.00    +0.012 C 
ATOM     11  C   UNL     1      11.041   8.557  20.899  0.00  0.00    +0.024 C 
ATOM     13  C   UNL     1      12.019   7.507  21.390  0.00  0.00    -0.073 C 
ATOM     14  C   UNL     1      13.235   7.830  21.863  0.00  0.00    -0.022 C 
ATOM     19  C   UNL     1      11.548   6.080  21.367  0.00  0.00    +0.039 C 
ENDROOT
BRANCH   8  12
ATOM     12  C   UNL     1      13.221  11.703  21.626  0.00  0.00    -0.013 C 
ATOM     17  C   UNL     1      12.340  12.693  20.870  0.00  0.00    +0.007 C 
ATOM     18  C   UNL     1      13.026  11.847  23.132  0.00  0.00    +0.007 C 
ENDBRANCH   8  12
BRANCH   9  15
ATOM     15  C   UNL     1      15.231   9.246  21.424  0.00  0.00    +0.109 C 
BRANCH  15   3
ATOM      3  N   UNL     1      15.462   8.075  20.623  0.00  0.00    -0.342 N 
ATOM     30  H   UNL     1      14.693   7.655  20.113  0.00  0.00    +0.146 HD
BRANCH   3  21
ATOM      6  N   UNL     1      18.979   7.226  21.281  0.00  0.00    -0.238 NA
ATOM     21  C   UNL     1      16.689   7.430  20.529  0.00  0.00    +0.046 A 
ATOM     23  C   UNL     1      16.882   6.381  19.636  0.00  0.00    +0.028 A 
ATOM     24  C   UNL     1      17.760   7.810  21.322  0.00  0.00    +0.135 A 
ATOM     25  C   UNL     1      18.122   5.754  19.565  0.00  0.00    +0.045 A 
ATOM     27  C   UNL     1      19.128   6.210  20.401  0.00  0.00    +0.125 A 
BRANCH  27   7
ATOM      2  O   UNL     1      20.990   5.282  22.578  0.00  0.00    -0.276 OA
ATOM      7  N   UNL     1      20.372   5.572  20.323  0.00  0.00    -0.271 N 
ATOM     28  C   UNL     1      21.195   5.162  21.374  0.00  0.00    +0.215 C 
ATOM     29  C   UNL     1      22.456   4.506  20.869  0.00  0.00    +0.109 C 
ATOM     31  H   UNL     1      20.709   5.388  19.380  0.00  0.00    +0.156 HD
ENDBRANCH  27   7
ENDBRANCH   3  21
ENDBRANCH  15   3
ENDBRANCH   9  15
BRANCH  11  16
ATOM     16  C   UNL     1      10.913   8.517  19.373  0.00  0.00    +0.105 C 
BRANCH  16  20
ATOM      1  O   UNL     1      12.672   9.761  18.227  0.00  0.00    -0.425 OA
ATOM      4  N   UNL     1      13.124   7.588  18.512  0.00  0.00    -0.112 NA
ATOM      5  N   UNL     1      14.195   8.165  17.854  0.00  0.00    -0.113 NA
ATOM     20  C   UNL     1      12.259   8.557  18.709  0.00  0.00    +0.218 A 
ATOM     22  C   UNL     1      13.888   9.433  17.710  0.00  0.00    +0.214 A 
ATOM     26  C   UNL     1      14.655  10.515  17.081  0.00  0.00    +0.111 C 
ENDBRANCH  16  20
ENDBRANCH  11  16
TORSDOF 7
ENDMDL
MODEL 3
REMARK VINA RESULT:      -6.7     26.575     29.306
REMARK  Name = 45784114
REMARK  12 active torsions:
REMARK  status: ('A' for Active; 'I' for Inactive)
REMARK    1  A    between atoms: N_3  and  C_15
REMARK    2  A    between atoms: N_3  and  C_21
REMARK    3  A    between atoms: N_7  and  C_27
REMARK    4  A    between atoms: C_8  and  C_12
REMARK    5  A    between atoms: C_9  and  C_15
REMARK    6  A    between atoms: C_11  and  C_16
REMARK    7  A    between atoms: C_12  and  C_17
REMARK    8  A    between atoms: C_12  and  C_18
REMARK    9  A    between atoms: C_13  and  C_19
REMARK   10  A    between atoms: C_16  and  C_20
REMARK   11  A    between atoms: C_22  and  C_26
REMARK   12  A    between atoms: C_28  and  C_29
REMARK                            x       y       z     vdW  Elec       q    Type
REMARK                         _______ _______ _______ _____ _____    ______ ____
ROOT
ATOM      8  C   UNL     1      -3.380 -12.315  13.831  0.00  0.00    +0.000 C 
ATOM      9  C   UNL     1      -2.139 -11.620  14.443  0.00  0.00    +0.032 C 
ATOM     10  C   UNL     1      -3.171 -12.563  12.329  0.00  0.00    +0.012 C 
ATOM     11  C   UNL     1      -2.912 -11.258  11.553  0.00  0.00    +0.024 C 
ATOM     13  C   UNL     1      -1.883 -10.387  12.245  0.00  0.00    -0.073 C 
ATOM     14  C   UNL     1      -1.540 -10.572  13.532  0.00  0.00    -0.022 C 
ATOM     19  C   UNL     1      -1.221  -9.327  11.410  0.00  0.00    +0.039 C 
ENDROOT
BRANCH   8  12
ATOM     12  C   UNL     1      -3.696 -13.638  14.536  0.00  0.00    -0.013 C 
ATOM     17  C   UNL     1      -5.095 -13.597  15.142  0.00  0.00    +0.007 C 
ATOM     18  C   UNL     1      -3.562 -14.805  13.564  0.00  0.00    +0.007 C 
ENDBRANCH   8  12
BRANCH   9  15
ATOM     15  C   UNL     1      -2.469 -10.988  15.799  0.00  0.00    +0.109 C 
BRANCH  15   3
ATOM      3  N   UNL     1      -3.611 -10.125  15.661  0.00  0.00    -0.342 N 
ATOM     30  H   UNL     1      -3.621  -9.419  14.935  0.00  0.00    +0.146 HD
BRANCH   3  21
ATOM      6  N   UNL     1      -7.021  -9.559  16.916  0.00  0.00    -0.238 NA
ATOM     21  C   UNL     1      -4.715 -10.160  16.505  0.00  0.00    +0.046 A 
ATOM     23  C   UNL     1      -4.653 -10.795  17.740  0.00  0.00    +0.028 A 
ATOM     24  C   UNL     1      -5.911  -9.562  16.143  0.00  0.00    +0.135 A 
ATOM     25  C   UNL     1      -5.774 -10.814  18.564  0.00  0.00    +0.045 A 
ATOM     27  C   UNL     1      -6.922 -10.187  18.110  0.00  0.00    +0.125 A 
BRANCH  27   7
ATOM      2  O   UNL     1      -9.073 -12.270  18.434  0.00  0.00    -0.276 OA
ATOM      7  N   UNL     1      -8.045 -10.212  18.945  0.00  0.00    -0.271 N 
ATOM     28  C   UNL     1      -9.015 -11.212  19.053  0.00  0.00    +0.215 C 
ATOM     29  C   UNL     1     -10.066 -10.859  20.076  0.00  0.00    +0.109 C 
ATOM     31  H   UNL     1      -8.162  -9.397  19.544  0.00  0.00    +0.156 HD
ENDBRANCH  27   7
ENDBRANCH   3  21
ENDBRANCH  15   3
ENDBRANCH   9  15
BRANCH  11  16
ATOM     16  C   UNL     1      -4.215 -10.487  11.319  0.00  0.00    +0.105 C 
BRANCH  16  20
ATOM      1  O   UNL     1      -4.305 -11.448   9.078  0.00  0.00    -0.425 OA
ATOM      4  N   UNL     1      -4.958  -9.310   9.185  0.00  0.00    -0.112 NA
ATOM      5  N   UNL     1      -5.057  -9.722   7.869  0.00  0.00    -0.113 NA
ATOM     20  C   UNL     1      -4.515 -10.349   9.854  0.00  0.00    +0.218 A 
ATOM     22  C   UNL     1      -4.667 -10.975   7.853  0.00  0.00    +0.214 A 
ATOM     26  C   UNL     1      -4.567 -11.910   6.726  0.00  0.00    +0.111 C 
ENDBRANCH  16  20
ENDBRANCH  11  16
TORSDOF 7
ENDMDL
MODEL 4
REMARK VINA RESULT:      -6.6     26.881     29.926
REMARK  Name = 45784114
REMARK  12 active torsions:
REMARK  status: ('A' for Active; 'I' for Inactive)
REMARK    1  A    between atoms: N_3  and  C_15
REMARK    2  A    between atoms: N_3  and  C_21
REMARK    3  A    between atoms: N_7  and  C_27
REMARK    4  A    between atoms: C_8  and  C_12
REMARK    5  A    between atoms: C_9  and  C_15
REMARK    6  A    between atoms: C_11  and  C_16
REMARK    7  A    between atoms: C_12  and  C_17
REMARK    8  A    between atoms: C_12  and  C_18
REMARK    9  A    between atoms: C_13  and  C_19
REMARK   10  A    between atoms: C_16  and  C_20
REMARK   11  A    between atoms: C_22  and  C_26
REMARK   12  A    between atoms: C_28  and  C_29
REMARK                            x       y       z     vdW  Elec       q    Type
REMARK                         _______ _______ _______ _____ _____    ______ ____
ROOT
ATOM      8  C   UNL     1      -5.123 -11.224  13.900  0.00  0.00    +0.000 C 
ATOM      9  C   UNL     1      -3.772 -11.033  13.167  0.00  0.00    +0.032 C 
ATOM     10  C   UNL     1      -5.191 -10.325  15.143  0.00  0.00    +0.012 C 
ATOM     11  C   UNL     1      -4.052 -10.617  16.138  0.00  0.00    +0.024 C 
ATOM     13  C   UNL     1      -2.708 -10.710  15.442  0.00  0.00    -0.073 C 
ATOM     14  C   UNL     1      -2.603 -10.882  14.113  0.00  0.00    -0.022 C 
ATOM     19  C   UNL     1      -1.487 -10.553  16.305  0.00  0.00    +0.039 C 
ENDROOT
BRANCH   8  12
ATOM     12  C   UNL     1      -6.314 -10.932  12.982  0.00  0.00    -0.013 C 
ATOM     17  C   UNL     1      -7.618 -11.353  13.652  0.00  0.00    +0.007 C 
ATOM     18  C   UNL     1      -6.350  -9.453  12.611  0.00  0.00    +0.007 C 
ENDBRANCH   8  12
BRANCH   9  15
ATOM     15  C   UNL     1      -3.498 -12.188  12.198  0.00  0.00    +0.109 C 
BRANCH  15   3
ATOM      3  N   UNL     1      -3.117 -11.659  10.916  0.00  0.00    -0.342 N 
ATOM     30  H   UNL     1      -2.190 -11.844  10.553  0.00  0.00    +0.146 HD
BRANCH   3  21
ATOM      6  N   UNL     1      -5.918 -10.619   8.772  0.00  0.00    -0.238 NA
ATOM     21  C   UNL     1      -3.935 -10.849  10.138  0.00  0.00    +0.046 A 
ATOM     23  C   UNL     1      -3.630  -9.508   9.934  0.00  0.00    +0.028 A 
ATOM     24  C   UNL     1      -5.080 -11.351   9.541  0.00  0.00    +0.135 A 
ATOM     25  C   UNL     1      -4.468  -8.721   9.149  0.00  0.00    +0.045 A 
ATOM     27  C   UNL     1      -5.588  -9.319   8.597  0.00  0.00    +0.125 A 
BRANCH  27   7
ATOM      2  O   UNL     1      -8.185  -7.950   9.272  0.00  0.00    -0.276 OA
ATOM      7  N   UNL     1      -6.426  -8.520   7.810  0.00  0.00    -0.271 N 
ATOM     28  C   UNL     1      -7.626  -7.907   8.180  0.00  0.00    +0.215 C 
ATOM     29  C   UNL     1      -8.225  -7.123   7.038  0.00  0.00    +0.109 C 
ATOM     31  H   UNL     1      -6.114  -8.371   6.852  0.00  0.00    +0.156 HD
ENDBRANCH  27   7
ENDBRANCH   3  21
ENDBRANCH  15   3
ENDBRANCH   9  15
BRANCH  11  16
ATOM     16  C   UNL     1      -4.338 -11.885  16.949  0.00  0.00    +0.105 C 
BRANCH  16  20
ATOM      1  O   UNL     1      -6.311 -12.492  18.250  0.00  0.00    -0.425 OA
ATOM      4  N   UNL     1      -5.292 -10.627  18.949  0.00  0.00    -0.112 NA
ATOM      5  N   UNL     1      -6.384 -10.849  19.767  0.00  0.00    -0.113 NA
ATOM     20  C   UNL     1      -5.289 -11.610  18.078  0.00  0.00    +0.218 A 
ATOM     22  C   UNL     1      -6.949 -11.947  19.323  0.00  0.00    +0.214 A 
ATOM     26  C   UNL     1      -8.143 -12.649  19.811  0.00  0.00    +0.111 C 
ENDBRANCH  16  20
ENDBRANCH  11  16
TORSDOF 7
ENDMDL
MODEL 5
REMARK VINA RESULT:      -6.5      1.724      2.451
REMARK  Name = 45784114
REMARK  12 active torsions:
REMARK  status: ('A' for Active; 'I' for Inactive)
REMARK    1  A    between atoms: N_3  and  C_15
REMARK    2  A    between atoms: N_3  and  C_21
REMARK    3  A    between atoms: N_7  and  C_27
REMARK    4  A    between atoms: C_8  and  C_12
REMARK    5  A    between atoms: C_9  and  C_15
REMARK    6  A    between atoms: C_11  and  C_16
REMARK    7  A    between atoms: C_12  and  C_17
REMARK    8  A    between atoms: C_12  and  C_18
REMARK    9  A    between atoms: C_13  and  C_19
REMARK   10  A    between atoms: C_16  and  C_20
REMARK   11  A    between atoms: C_22  and  C_26
REMARK   12  A    between atoms: C_28  and  C_29
REMARK                            x       y       z     vdW  Elec       q    Type
REMARK                         _______ _______ _______ _____ _____    ______ ____
ROOT
ATOM      8  C   UNL     1      12.545   8.592  20.933  0.00  0.00    +0.000 C 
ATOM      9  C   UNL     1      13.467   7.349  20.881  0.00  0.00    +0.032 C 
ATOM     10  C   UNL     1      11.690   8.680  19.659  0.00  0.00    +0.012 C 
ATOM     11  C   UNL     1      12.551   8.764  18.384  0.00  0.00    +0.024 C 
ATOM     13  C   UNL     1      13.660   7.732  18.386  0.00  0.00    -0.073 C 
ATOM     14  C   UNL     1      14.046   7.099  19.508  0.00  0.00    -0.022 C 
ATOM     19  C   UNL     1      14.285   7.408  17.057  0.00  0.00    +0.039 C 
ENDROOT
BRANCH   8  12
ATOM     12  C   UNL     1      11.637   8.575  22.167  0.00  0.00    -0.013 C 
ATOM     17  C   UNL     1      11.005   9.947  22.380  0.00  0.00    +0.007 C 
ATOM     18  C   UNL     1      10.563   7.502  22.023  0.00  0.00    +0.007 C 
ENDBRANCH   8  12
BRANCH   9  15
ATOM     15  C   UNL     1      14.604   7.458  21.903  0.00  0.00    +0.109 C 
BRANCH  15   3
ATOM      3  N   UNL     1      15.690   8.208  21.333  0.00  0.00    -0.342 N 
ATOM     30  H   UNL     1      15.537   9.162  21.029  0.00  0.00    +0.146 HD
BRANCH   3  21
ATOM      6  N   UNL     1      18.353   5.969  20.141  0.00  0.00    -0.238 NA
ATOM     21  C   UNL     1      16.961   7.689  21.118  0.00  0.00    +0.046 A 
ATOM     23  C   UNL     1      18.089   8.320  21.632  0.00  0.00    +0.028 A 
ATOM     24  C   UNL     1      17.145   6.527  20.386  0.00  0.00    +0.135 A 
ATOM     25  C   UNL     1      19.349   7.777  21.401  0.00  0.00    +0.045 A 
ATOM     27  C   UNL     1      19.426   6.611  20.657  0.00  0.00    +0.125 A 
BRANCH  27   7
ATOM      2  O   UNL     1      21.172   4.903  22.418  0.00  0.00    -0.276 OA
ATOM      7  N   UNL     1      20.698   6.073  20.428  0.00  0.00    -0.271 N 
ATOM     28  C   UNL     1      21.464   5.282  21.288  0.00  0.00    +0.215 C 
ATOM     29  C   UNL     1      22.783   4.900  20.664  0.00  0.00    +0.109 C 
ATOM     31  H   UNL     1      21.107   6.289  19.522  0.00  0.00    +0.156 HD
ENDBRANCH  27   7
ENDBRANCH   3  21
ENDBRANCH  15   3
ENDBRANCH   9  15
BRANCH  11  16
ATOM     16  C   UNL     1      13.115  10.176  18.192  0.00  0.00    +0.105 C 
BRANCH  16  20
ATOM      1  O   UNL     1      14.876  10.792  16.620  0.00  0.00    -0.425 OA
ATOM      4  N   UNL     1      12.933  10.251  15.652  0.00  0.00    -0.112 NA
ATOM      5  N   UNL     1      13.832  10.577  14.653  0.00  0.00    -0.113 NA
ATOM     20  C   UNL     1      13.586  10.390  16.782  0.00  0.00    +0.218 A 
ATOM     22  C   UNL     1      14.952  10.885  15.263  0.00  0.00    +0.214 A 
ATOM     26  C   UNL     1      16.240  11.308  14.699  0.00  0.00    +0.111 C 
ENDBRANCH  16  20
ENDBRANCH  11  16
TORSDOF 7
ENDMDL
MODEL 6
REMARK VINA RESULT:      -6.5     29.043     31.818
REMARK  Name = 45784114
REMARK  12 active torsions:
REMARK  status: ('A' for Active; 'I' for Inactive)
REMARK    1  A    between atoms: N_3  and  C_15
REMARK    2  A    between atoms: N_3  and  C_21
REMARK    3  A    between atoms: N_7  and  C_27
REMARK    4  A    between atoms: C_8  and  C_12
REMARK    5  A    between atoms: C_9  and  C_15
REMARK    6  A    between atoms: C_11  and  C_16
REMARK    7  A    between atoms: C_12  and  C_17
REMARK    8  A    between atoms: C_12  and  C_18
REMARK    9  A    between atoms: C_13  and  C_19
REMARK   10  A    between atoms: C_16  and  C_20
REMARK   11  A    between atoms: C_22  and  C_26
REMARK   12  A    between atoms: C_28  and  C_29
REMARK                            x       y       z     vdW  Elec       q    Type
REMARK                         _______ _______ _______ _____ _____    ______ ____
ROOT
ATOM      8  C   UNL     1     -12.497   8.367  34.832  0.00  0.00    +0.000 C 
ATOM      9  C   UNL     1     -13.773   7.909  34.084  0.00  0.00    +0.032 C 
ATOM     10  C   UNL     1     -12.145   9.815  34.456  0.00  0.00    +0.012 C 
ATOM     11  C   UNL     1     -11.911   9.984  32.943  0.00  0.00    +0.024 C 
ATOM     13  C   UNL     1     -13.001   9.318  32.127  0.00  0.00    -0.073 C 
ATOM     14  C   UNL     1     -13.832   8.404  32.657  0.00  0.00    -0.022 C 
ATOM     19  C   UNL     1     -13.144   9.763  30.698  0.00  0.00    +0.039 C 
ENDROOT
BRANCH   8  12
ATOM     12  C   UNL     1     -12.655   8.249  36.351  0.00  0.00    -0.013 C 
ATOM     17  C   UNL     1     -11.429   7.580  36.963  0.00  0.00    +0.007 C 
ATOM     18  C   UNL     1     -12.886   9.624  36.971  0.00  0.00    +0.007 C 
ENDBRANCH   8  12
BRANCH   9  15
ATOM     15  C   UNL     1     -13.908   6.382  34.101  0.00  0.00    +0.109 C 
BRANCH  15   3
ATOM      3  N   UNL     1     -14.616   5.950  32.926  0.00  0.00    -0.342 N 
ATOM     30  H   UNL     1     -15.414   6.481  32.598  0.00  0.00    +0.146 HD
BRANCH   3  21
ATOM      6  N   UNL     1     -14.676   3.407  30.271  0.00  0.00    -0.238 NA
ATOM     21  C   UNL     1     -14.305   4.799  32.214  0.00  0.00    +0.046 A 
ATOM     23  C   UNL     1     -13.355   3.899  32.686  0.00  0.00    +0.028 A 
ATOM     24  C   UNL     1     -14.931   4.509  31.012  0.00  0.00    +0.135 A 
ATOM     25  C   UNL     1     -13.064   2.754  31.951  0.00  0.00    +0.045 A 
ATOM     27  C   UNL     1     -13.746   2.557  30.762  0.00  0.00    +0.125 A 
BRANCH  27   7
ATOM      2  O   UNL     1     -14.650  -0.291  31.140  0.00  0.00    -0.276 OA
ATOM      7  N   UNL     1     -13.446   1.402  30.029  0.00  0.00    -0.271 N 
ATOM     28  C   UNL     1     -13.899   0.099  30.252  0.00  0.00    +0.215 C 
ATOM     29  C   UNL     1     -13.346  -0.864  29.231  0.00  0.00    +0.109 C 
ATOM     31  H   UNL     1     -12.821   1.538  29.237  0.00  0.00    +0.156 HD
ENDBRANCH  27   7
ENDBRANCH   3  21
ENDBRANCH  15   3
ENDBRANCH   9  15
BRANCH  11  16
ATOM     16  C   UNL     1     -10.527   9.465  32.537  0.00  0.00    +0.105 C 
BRANCH  16  20
ATOM      1  O   UNL     1      -8.864   9.748  34.299  0.00  0.00    -0.425 OA
ATOM      4  N   UNL     1      -8.922  11.423  32.817  0.00  0.00    -0.112 NA
ATOM      5  N   UNL     1      -7.944  11.712  33.751  0.00  0.00    -0.113 NA
ATOM     20  C   UNL     1      -9.432  10.268  33.177  0.00  0.00    +0.218 A 
ATOM     22  C   UNL     1      -7.945  10.708  34.596  0.00  0.00    +0.214 A 
ATOM     26  C   UNL     1      -7.115  10.486  35.787  0.00  0.00    +0.111 C 
ENDBRANCH  16  20
ENDBRANCH  11  16
TORSDOF 7
ENDMDL
MODEL 7
REMARK VINA RESULT:      -6.3     29.049     31.674
REMARK  Name = 45784114
REMARK  12 active torsions:
REMARK  status: ('A' for Active; 'I' for Inactive)
REMARK    1  A    between atoms: N_3  and  C_15
REMARK    2  A    between atoms: N_3  and  C_21
REMARK    3  A    between atoms: N_7  and  C_27
REMARK    4  A    between atoms: C_8  and  C_12
REMARK    5  A    between atoms: C_9  and  C_15
REMARK    6  A    between atoms: C_11  and  C_16
REMARK    7  A    between atoms: C_12  and  C_17
REMARK    8  A    between atoms: C_12  and  C_18
REMARK    9  A    between atoms: C_13  and  C_19
REMARK   10  A    between atoms: C_16  and  C_20
REMARK   11  A    between atoms: C_22  and  C_26
REMARK   12  A    between atoms: C_28  and  C_29
REMARK                            x       y       z     vdW  Elec       q    Type
REMARK                         _______ _______ _______ _____ _____    ______ ____
ROOT
ATOM      8  C   UNL     1     -12.551   8.616  33.920  0.00  0.00    +0.000 C 
ATOM      9  C   UNL     1     -14.009   8.104  33.809  0.00  0.00    +0.032 C 
ATOM     10  C   UNL     1     -12.435  10.035  33.343  0.00  0.00    +0.012 C 
ATOM     11  C   UNL     1     -12.863  10.101  31.865  0.00  0.00    +0.024 C 
ATOM     13  C   UNL     1     -14.174   9.378  31.626  0.00  0.00    -0.073 C 
ATOM     14  C   UNL     1     -14.677   8.500  32.512  0.00  0.00    -0.022 C 
ATOM     19  C   UNL     1     -14.917   9.723  30.365  0.00  0.00    +0.039 C 
ENDROOT
BRANCH   8  12
ATOM     12  C   UNL     1     -12.053   8.603  35.369  0.00  0.00    -0.013 C 
ATOM     17  C   UNL     1     -10.636   9.160  35.449  0.00  0.00    +0.007 C 
ATOM     18  C   UNL     1     -12.999   9.398  36.264  0.00  0.00    +0.007 C 
ENDBRANCH   8  12
BRANCH   9  15
ATOM     15  C   UNL     1     -14.076   6.582  33.974  0.00  0.00    +0.109 C 
BRANCH  15   3
ATOM      3  N   UNL     1     -14.811   6.013  32.877  0.00  0.00    -0.342 N 
ATOM     30  H   UNL     1     -15.681   6.440  32.581  0.00  0.00    +0.146 HD
BRANCH   3  21
ATOM      6  N   UNL     1     -14.948   3.150  30.574  0.00  0.00    -0.238 NA
ATOM     21  C   UNL     1     -14.429   4.860  32.204  0.00  0.00    +0.046 A 
ATOM     23  C   UNL     1     -13.200   4.258  32.453  0.00  0.00    +0.028 A 
ATOM     24  C   UNL     1     -15.259   4.271  31.263  0.00  0.00    +0.135 A 
ATOM     25  C   UNL     1     -12.843   3.104  31.764  0.00  0.00    +0.045 A 
ATOM     27  C   UNL     1     -13.744   2.595  30.843  0.00  0.00    +0.125 A 
BRANCH  27   7
ATOM      2  O   UNL     1     -14.710  -0.243  31.136  0.00  0.00    -0.276 OA
ATOM      7  N   UNL     1     -13.377   1.433  30.153  0.00  0.00    -0.271 N 
ATOM     28  C   UNL     1     -13.863   0.135  30.333  0.00  0.00    +0.215 C 
ATOM     29  C   UNL     1     -13.211  -0.838  29.383  0.00  0.00    +0.109 C 
ATOM     31  H   UNL     1     -12.668   1.559  29.433  0.00  0.00    +0.156 HD
ENDBRANCH  27   7
ENDBRANCH   3  21
ENDBRANCH  15   3
ENDBRANCH   9  15
BRANCH  11  16
ATOM     16  C   UNL     1     -11.762   9.559  30.947  0.00  0.00    +0.105 C 
BRANCH  16  20
ATOM      1  O   UNL     1     -11.306   9.786  28.561  0.00  0.00    -0.425 OA
ATOM      4  N   UNL     1     -11.662  11.728  29.615  0.00  0.00    -0.112 NA
ATOM      5  N   UNL     1     -11.418  12.003  28.282  0.00  0.00    -0.113 NA
ATOM     20  C   UNL     1     -11.587  10.422  29.731  0.00  0.00    +0.218 A 
ATOM     22  C   UNL     1     -11.216  10.841  27.706  0.00  0.00    +0.214 A 
ATOM     26  C   UNL     1     -10.911  10.533  26.303  0.00  0.00    +0.111 C 
ENDBRANCH  16  20
ENDBRANCH  11  16
TORSDOF 7
ENDMDL
MODEL 8
REMARK VINA RESULT:      -6.2      2.661      3.807
REMARK  Name = 45784114
REMARK  12 active torsions:
REMARK  status: ('A' for Active; 'I' for Inactive)
REMARK    1  A    between atoms: N_3  and  C_15
REMARK    2  A    between atoms: N_3  and  C_21
REMARK    3  A    between atoms: N_7  and  C_27
REMARK    4  A    between atoms: C_8  and  C_12
REMARK    5  A    between atoms: C_9  and  C_15
REMARK    6  A    between atoms: C_11  and  C_16
REMARK    7  A    between atoms: C_12  and  C_17
REMARK    8  A    between atoms: C_12  and  C_18
REMARK    9  A    between atoms: C_13  and  C_19
REMARK   10  A    between atoms: C_16  and  C_20
REMARK   11  A    between atoms: C_22  and  C_26
REMARK   12  A    between atoms: C_28  and  C_29
REMARK                            x       y       z     vdW  Elec       q    Type
REMARK                         _______ _______ _______ _____ _____    ______ ____
ROOT
ATOM      8  C   UNL     1      12.519   8.481  20.810  0.00  0.00    +0.000 C 
ATOM      9  C   UNL     1      13.499   7.313  20.541  0.00  0.00    +0.032 C 
ATOM     10  C   UNL     1      11.586   8.686  19.607  0.00  0.00    +0.012 C 
ATOM     11  C   UNL     1      12.361   8.988  18.311  0.00  0.00    +0.024 C 
ATOM     13  C   UNL     1      13.521   8.032  18.114  0.00  0.00    -0.073 C 
ATOM     14  C   UNL     1      14.007   7.282  19.118  0.00  0.00    -0.022 C 
ATOM     19  C   UNL     1      14.080   7.925  16.722  0.00  0.00    +0.039 C 
ENDROOT
BRANCH   8  12
ATOM     12  C   UNL     1      11.690   8.248  22.076  0.00  0.00    -0.013 C 
ATOM     17  C   UNL     1      11.049   9.552  22.540  0.00  0.00    +0.007 C 
ATOM     18  C   UNL     1      10.627   7.182  21.828  0.00  0.00    +0.007 C 
ENDBRANCH   8  12
BRANCH   9  15
ATOM     15  C   UNL     1      14.689   7.354  21.506  0.00  0.00    +0.109 C 
BRANCH  15   3
ATOM      3  N   UNL     1      15.812   7.974  20.857  0.00  0.00    -0.342 N 
ATOM     30  H   UNL     1      15.698   8.877  20.410  0.00  0.00    +0.146 HD
BRANCH   3  21
ATOM      6  N   UNL     1      18.479   5.682  19.784  0.00  0.00    -0.238 NA
ATOM     21  C   UNL     1      17.068   7.390  20.755  0.00  0.00    +0.046 A 
ATOM     23  C   UNL     1      18.149   7.882  21.478  0.00  0.00    +0.028 A 
ATOM     24  C   UNL     1      17.284   6.298  19.929  0.00  0.00    +0.135 A 
ATOM     25  C   UNL     1      19.395   7.276  21.356  0.00  0.00    +0.045 A 
ATOM     27  C   UNL     1      19.506   6.189  20.503  0.00  0.00    +0.125 A 
BRANCH  27   7
ATOM      2  O   UNL     1      21.246   4.872  22.578  0.00  0.00    -0.276 OA
ATOM      7  N   UNL     1      20.764   5.587  20.385  0.00  0.00    -0.271 N 
ATOM     28  C   UNL     1      21.529   4.987  21.390  0.00  0.00    +0.215 C 
ATOM     29  C   UNL     1      22.831   4.449  20.850  0.00  0.00    +0.109 C 
ATOM     31  H   UNL     1      21.164   5.590  19.449  0.00  0.00    +0.156 HD
ENDBRANCH  27   7
ENDBRANCH   3  21
ENDBRANCH  15   3
ENDBRANCH   9  15
BRANCH  11  16
ATOM     16  C   UNL     1      12.839  10.444  18.281  0.00  0.00    +0.105 C 
BRANCH  16  20
ATOM      1  O   UNL     1      13.497  11.261  20.484  0.00  0.00    -0.425 OA
ATOM      4  N   UNL     1      15.189  10.449  19.265  0.00  0.00    -0.112 NA
ATOM      5  N   UNL     1      15.701  10.874  20.477  0.00  0.00    -0.113 NA
ATOM     20  C   UNL     1      13.900  10.694  19.313  0.00  0.00    +0.218 A 
ATOM     22  C   UNL     1      14.679  11.340  21.156  0.00  0.00    +0.214 A 
ATOM     26  C   UNL     1      14.637  11.920  22.504  0.00  0.00    +0.111 C 
ENDBRANCH  16  20
ENDBRANCH  11  16
TORSDOF 7
ENDMDL
MODEL 9
REMARK VINA RESULT:      -6.1      3.920      5.778
REMARK  Name = 45784114
REMARK  12 active torsions:
REMARK  status: ('A' for Active; 'I' for Inactive)
REMARK    1  A    between atoms: N_3  and  C_15
REMARK    2  A    between atoms: N_3  and  C_21
REMARK    3  A    between atoms: N_7  and  C_27
REMARK    4  A    between atoms: C_8  and  C_12
REMARK    5  A    between atoms: C_9  and  C_15
REMARK    6  A    between atoms: C_11  and  C_16
REMARK    7  A    between atoms: C_12  and  C_17
REMARK    8  A    between atoms: C_12  and  C_18
REMARK    9  A    between atoms: C_13  and  C_19
REMARK   10  A    between atoms: C_16  and  C_20
REMARK   11  A    between atoms: C_22  and  C_26
REMARK   12  A    between atoms: C_28  and  C_29
REMARK                            x       y       z     vdW  Elec       q    Type
REMARK                         _______ _______ _______ _____ _____    ______ ____
ROOT
ATOM      8  C   UNL     1      16.042   8.497  20.658  0.00  0.00    +0.000 C 
ATOM      9  C   UNL     1      17.341   9.323  20.825  0.00  0.00    +0.032 C 
ATOM     10  C   UNL     1      14.950   9.343  19.985  0.00  0.00    +0.012 C 
ATOM     11  C   UNL     1      14.619  10.614  20.789  0.00  0.00    +0.024 C 
ATOM     13  C   UNL     1      15.873  11.347  21.223  0.00  0.00    -0.073 C 
ATOM     14  C   UNL     1      17.082  10.759  21.219  0.00  0.00    -0.022 C 
ATOM     19  C   UNL     1      15.711  12.789  21.617  0.00  0.00    +0.039 C 
ENDROOT
BRANCH   8  12
ATOM     12  C   UNL     1      16.281   7.219  19.849  0.00  0.00    -0.013 C 
ATOM     17  C   UNL     1      16.118   5.989  20.736  0.00  0.00    +0.007 C 
ATOM     18  C   UNL     1      15.329   7.157  18.658  0.00  0.00    +0.007 C 
ENDBRANCH   8  12
BRANCH   9  15
ATOM     15  C   UNL     1      18.283   8.676  21.845  0.00  0.00    +0.109 C 
BRANCH  15   3
ATOM      3  N   UNL     1      19.620   8.653  21.317  0.00  0.00    -0.342 N 
ATOM     30  H   UNL     1      20.067   9.521  21.045  0.00  0.00    +0.146 HD
BRANCH   3  21
ATOM      6  N   UNL     1      22.498   6.383  21.015  0.00  0.00    -0.238 NA
ATOM     21  C   UNL     1      20.349   7.490  21.102  0.00  0.00    +0.046 A 
ATOM     23  C   UNL     1      19.714   6.298  20.768  0.00  0.00    +0.028 A 
ATOM     24  C   UNL     1      21.730   7.479  21.212  0.00  0.00    +0.135 A 
ATOM     25  C   UNL     1      20.469   5.149  20.558  0.00  0.00    +0.045 A 
ATOM     27  C   UNL     1      21.845   5.244  20.693  0.00  0.00    +0.125 A 
BRANCH  27   7
ATOM      2  O   UNL     1      22.527   2.987  22.567  0.00  0.00    -0.276 OA
ATOM      7  N   UNL     1      22.596   4.082  20.481  0.00  0.00    -0.271 N 
ATOM     28  C   UNL     1      22.881   3.063  21.394  0.00  0.00    +0.215 C 
ATOM     29  C   UNL     1      23.723   1.978  20.771  0.00  0.00    +0.109 C 
ATOM     31  H   UNL     1      22.978   3.974  19.544  0.00  0.00    +0.156 HD
ENDBRANCH  27   7
ENDBRANCH   3  21
ENDBRANCH  15   3
ENDBRANCH   9  15
BRANCH  11  16
ATOM     16  C   UNL     1      13.729  10.290  21.993  0.00  0.00    +0.105 C 
BRANCH  16  20
ATOM      1  O   UNL     1      12.673   8.092  21.907  0.00  0.00    -0.425 OA
ATOM      4  N   UNL     1      11.454   9.730  20.991  0.00  0.00    -0.112 NA
ATOM      5  N   UNL     1      10.743   8.551  20.873  0.00  0.00    -0.113 NA
ATOM     20  C   UNL     1      12.574   9.415  21.601  0.00  0.00    +0.218 A 
ATOM     22  C   UNL     1      11.491   7.622  21.421  0.00  0.00    +0.214 A 
ATOM     26  C   UNL     1      11.236   6.184  21.575  0.00  0.00    +0.111 C 
ENDBRANCH  16  20
ENDBRANCH  11  16
TORSDOF 7
ENDMDL
MODEL 10
REMARK VINA RESULT:      -6.1     28.381     31.135
REMARK  Name = 45784114
REMARK  12 active torsions:
REMARK  status: ('A' for Active; 'I' for Inactive)
REMARK    1  A    between atoms: N_3  and  C_15
REMARK    2  A    between atoms: N_3  and  C_21
REMARK    3  A    between atoms: N_7  and  C_27
REMARK    4  A    between atoms: C_8  and  C_12
REMARK    5  A    between atoms: C_9  and  C_15
REMARK    6  A    between atoms: C_11  and  C_16
REMARK    7  A    between atoms: C_12  and  C_17
REMARK    8  A    between atoms: C_12  and  C_18
REMARK    9  A    between atoms: C_13  and  C_19
REMARK   10  A    between atoms: C_16  and  C_20
REMARK   11  A    between atoms: C_22  and  C_26
REMARK   12  A    between atoms: C_28  and  C_29
REMARK                            x       y       z     vdW  Elec       q    Type
REMARK                         _______ _______ _______ _____ _____    ______ ____
ROOT
ATOM      8  C   UNL     1      -9.860 -10.486  17.510  0.00  0.00    +0.000 C 
ATOM      9  C   UNL     1      -9.562 -11.068  18.914  0.00  0.00    +0.032 C 
ATOM     10  C   UNL     1     -10.553  -9.120  17.630  0.00  0.00    +0.012 C 
ATOM     11  C   UNL     1     -11.876  -9.204  18.414  0.00  0.00    +0.024 C 
ATOM     13  C   UNL     1     -11.722 -10.001  19.694  0.00  0.00    -0.073 C 
ATOM     14  C   UNL     1     -10.674 -10.817  19.906  0.00  0.00    -0.022 C 
ATOM     19  C   UNL     1     -12.776  -9.801  20.747  0.00  0.00    +0.039 C 
ENDROOT
BRANCH   8  12
ATOM     12  C   UNL     1      -8.587 -10.350  16.668  0.00  0.00    -0.013 C 
ATOM     17  C   UNL     1      -8.940 -10.097  15.206  0.00  0.00    +0.007 C 
ATOM     18  C   UNL     1      -7.706  -9.230  17.213  0.00  0.00    +0.007 C 
ENDBRANCH   8  12
BRANCH   9  15
ATOM     15  C   UNL     1      -9.271 -12.570  18.841  0.00  0.00    +0.109 C 
BRANCH  15   3
ATOM      3  N   UNL     1      -8.009 -12.846  19.471  0.00  0.00    -0.342 N 
ATOM     30  H   UNL     1      -7.989 -13.290  20.382  0.00  0.00    +0.146 HD
BRANCH   3  21
ATOM      6  N   UNL     1      -5.109 -12.826  17.211  0.00  0.00    -0.238 NA
ATOM     21  C   UNL     1      -6.779 -12.496  18.928  0.00  0.00    +0.046 A 
ATOM     23  C   UNL     1      -5.993 -11.507  19.512  0.00  0.00    +0.028 A 
ATOM     24  C   UNL     1      -6.295 -13.119  17.789  0.00  0.00    +0.135 A 
ATOM     25  C   UNL     1      -4.766 -11.177  18.946  0.00  0.00    +0.045 A 
ATOM     27  C   UNL     1      -4.373 -11.860  17.807  0.00  0.00    +0.125 A 
BRANCH  27   7
ATOM      2  O   UNL     1      -3.719 -10.496  15.203  0.00  0.00    -0.276 OA
ATOM      7  N   UNL     1      -3.137 -11.521  17.243  0.00  0.00    -0.271 N 
ATOM     28  C   UNL     1      -2.893 -10.883  16.024  0.00  0.00    +0.215 C 
ATOM     29  C   UNL     1      -1.417 -10.694  15.782  0.00  0.00    +0.109 C 
ATOM     31  H   UNL     1      -2.321 -11.772  17.798  0.00  0.00    +0.156 HD
ENDBRANCH  27   7
ENDBRANCH   3  21
ENDBRANCH  15   3
ENDBRANCH   9  15
BRANCH  11  16
ATOM     16  C   UNL     1     -12.998  -9.778  17.543  0.00  0.00    +0.105 C 
BRANCH  16  20
ATOM      1  O   UNL     1     -13.409  -7.752  16.247  0.00  0.00    -0.425 OA
ATOM      4  N   UNL     1     -12.882  -9.540  15.009  0.00  0.00    -0.112 NA
ATOM      5  N   UNL     1     -13.087  -8.473  14.154  0.00  0.00    -0.113 NA
ATOM     20  C   UNL     1     -13.080  -9.072  16.220  0.00  0.00    +0.218 A 
ATOM     22  C   UNL     1     -13.392  -7.452  14.919  0.00  0.00    +0.214 A 
ATOM     26  C   UNL     1     -13.711  -6.067  14.548  0.00  0.00    +0.111 C 
ENDBRANCH  16  20
ENDBRANCH  11  16
TORSDOF 7
ENDMDL
