MODEL 1
REMARK VINA RESULT:      -6.4      0.000      0.000
REMARK  Name = 38028873
REMARK  12 active torsions:
REMARK  status: ('A' for Active; 'I' for Inactive)
REMARK    1  A    between atoms: O_3  and  C_27
REMARK    2  A    between atoms: N_6  and  C_15
REMARK    3  A    between atoms: C_7  and  C_11
REMARK    4  A    between atoms: C_8  and  C_15
REMARK    5  A    between atoms: C_10  and  C_14
REMARK    6  A    between atoms: C_11  and  C_16
REMARK    7  A    between atoms: C_11  and  C_17
REMARK    8  A    between atoms: C_12  and  C_19
REMARK    9  A    between atoms: C_14  and  C_18
REMARK   10  A    between atoms: C_24  and  C_25
REMARK   11  A    between atoms: C_25  and  C_26
REMARK   12  A    between atoms: C_26  and  C_27
REMARK                            x       y       z     vdW  Elec       q    Type
REMARK                         _______ _______ _______ _____ _____    ______ ____
ROOT
ATOM      7  C   UNL     1      13.189  10.275  20.682  0.00  0.00    +0.000 C 
ATOM      8  C   UNL     1      13.308   9.650  22.094  0.00  0.00    +0.032 C 
ATOM      9  C   UNL     1      11.873   9.847  20.015  0.00  0.00    +0.012 C 
ATOM     10  C   UNL     1      11.758   8.316  19.882  0.00  0.00    +0.023 C 
ATOM     12  C   UNL     1      12.124   7.610  21.172  0.00  0.00    -0.073 C 
ATOM     13  C   UNL     1      12.806   8.227  22.155  0.00  0.00    -0.022 C 
ATOM     19  C   UNL     1      11.650   6.192  21.326  0.00  0.00    +0.039 C 
ENDROOT
BRANCH   7  11
ATOM     11  C   UNL     1      13.273  11.804  20.728  0.00  0.00    -0.013 C 
ATOM     16  C   UNL     1      13.745  12.352  19.384  0.00  0.00    +0.007 C 
ATOM     17  C   UNL     1      11.922  12.400  21.111  0.00  0.00    +0.007 C 
ENDBRANCH   7  11
BRANCH  10  14
ATOM     14  C   UNL     1      12.604   7.798  18.714  0.00  0.00    +0.103 C 
BRANCH  14  18
ATOM      1  O   UNL     1      10.924   8.004  17.037  0.00  0.00    -0.276 OA
ATOM      5  N   UNL     1      12.900   9.154  16.699  0.00  0.00    -0.301 N 
ATOM     18  C   UNL     1      12.055   8.322  17.412  0.00  0.00    +0.216 C 
ATOM     20  C   UNL     1      12.520   9.736  15.421  0.00  0.00    +0.108 C 
ATOM     21  C   UNL     1      14.243   9.571  17.088  0.00  0.00    +0.108 C 
ATOM     22  C   UNL     1      13.571  10.806  15.164  0.00  0.00    +0.020 C 
ATOM     23  C   UNL     1      14.810  10.234  15.840  0.00  0.00    +0.020 C 
ENDBRANCH  14  18
ENDBRANCH  10  14
BRANCH   8  15
ATOM     15  C   UNL     1      14.753   9.703  22.603  0.00  0.00    +0.112 C 
BRANCH  15   6
ATOM      2  O   UNL     1      16.856   9.578  20.619  0.00  0.00    -0.276 OA
ATOM      6  N   UNL     1      15.481   8.546  22.185  0.00  0.00    -0.315 N 
ATOM     24  C   UNL     1      16.485   8.571  21.216  0.00  0.00    +0.214 C 
ATOM     28  H   UNL     1      15.293   7.666  22.659  0.00  0.00    +0.149 HD
BRANCH  24  25
ATOM     25  C   UNL     1      17.082   7.196  20.976  0.00  0.00    +0.107 C 
BRANCH  25  26
ATOM     26  C   UNL     1      16.455   6.490  19.778  0.00  0.00    +0.129 C 
BRANCH  26  27
ATOM      4  O   UNL     1      18.534   5.256  19.498  0.00  0.00    -0.251 OA
ATOM     27  C   UNL     1      17.449   5.609  19.058  0.00  0.00    +0.305 C 
BRANCH  27   3
ATOM      3  O   UNL     1      16.989   5.241  17.832  0.00  0.00    -0.481 OA
ATOM     29  H   UNL     1      17.273   5.867  17.133  0.00  0.00    +0.295 HD
ENDBRANCH  27   3
ENDBRANCH  26  27
ENDBRANCH  25  26
ENDBRANCH  24  25
ENDBRANCH  15   6
ENDBRANCH   8  15
TORSDOF 9
ENDMDL
MODEL 2
REMARK VINA RESULT:      -6.0      2.608      5.511
REMARK  Name = 38028873
REMARK  12 active torsions:
REMARK  status: ('A' for Active; 'I' for Inactive)
REMARK    1  A    between atoms: O_3  and  C_27
REMARK    2  A    between atoms: N_6  and  C_15
REMARK    3  A    between atoms: C_7  and  C_11
REMARK    4  A    between atoms: C_8  and  C_15
REMARK    5  A    between atoms: C_10  and  C_14
REMARK    6  A    between atoms: C_11  and  C_16
REMARK    7  A    between atoms: C_11  and  C_17
REMARK    8  A    between atoms: C_12  and  C_19
REMARK    9  A    between atoms: C_14  and  C_18
REMARK   10  A    between atoms: C_24  and  C_25
REMARK   11  A    between atoms: C_25  and  C_26
REMARK   12  A    between atoms: C_26  and  C_27
REMARK                            x       y       z     vdW  Elec       q    Type
REMARK                         _______ _______ _______ _____ _____    ______ ____
ROOT
ATOM      7  C   UNL     1      14.120  11.665  21.992  0.00  0.00    +0.000 C 
ATOM      8  C   UNL     1      13.071  11.926  20.883  0.00  0.00    +0.032 C 
ATOM      9  C   UNL     1      15.512  11.457  21.374  0.00  0.00    +0.012 C 
ATOM     10  C   UNL     1      15.540  10.274  20.386  0.00  0.00    +0.023 C 
ATOM     12  C   UNL     1      14.371  10.317  19.424  0.00  0.00    -0.073 C 
ATOM     13  C   UNL     1      13.281  11.071  19.656  0.00  0.00    -0.022 C 
ATOM     19  C   UNL     1      14.502   9.507  18.164  0.00  0.00    +0.039 C 
ENDROOT
BRANCH   7  11
ATOM     11  C   UNL     1      14.172  12.810  23.008  0.00  0.00    -0.013 C 
ATOM     16  C   UNL     1      13.807  12.303  24.400  0.00  0.00    +0.007 C 
ATOM     17  C   UNL     1      15.553  13.457  23.012  0.00  0.00    +0.007 C 
ENDBRANCH   7  11
BRANCH  10  14
ATOM     14  C   UNL     1      15.589   8.935  21.131  0.00  0.00    +0.103 C 
BRANCH  14  18
ATOM      1  O   UNL     1      17.838   9.009  21.914  0.00  0.00    -0.276 OA
ATOM      5  N   UNL     1      17.296   7.334  20.418  0.00  0.00    -0.301 N 
ATOM     18  C   UNL     1      17.010   8.439  21.200  0.00  0.00    +0.216 C 
ATOM     20  C   UNL     1      18.622   6.738  20.369  0.00  0.00    +0.108 C 
ATOM     21  C   UNL     1      16.364   6.612  19.557  0.00  0.00    +0.108 C 
ATOM     22  C   UNL     1      18.413   5.400  19.675  0.00  0.00    +0.020 C 
ATOM     23  C   UNL     1      17.250   5.685  18.735  0.00  0.00    +0.020 C 
ENDBRANCH  14  18
ENDBRANCH  10  14
BRANCH   8  15
ATOM     15  C   UNL     1      11.646  11.718  21.411  0.00  0.00    +0.112 C 
BRANCH  15   6
ATOM      2  O   UNL     1      11.015  10.166  23.770  0.00  0.00    -0.276 OA
ATOM      6  N   UNL     1      11.325  10.327  21.470  0.00  0.00    -0.315 N 
ATOM     24  C   UNL     1      11.032   9.650  22.655  0.00  0.00    +0.214 C 
ATOM     28  H   UNL     1      11.254   9.815  20.595  0.00  0.00    +0.149 HD
BRANCH  24  25
ATOM     25  C   UNL     1      10.730   8.182  22.416  0.00  0.00    +0.107 C 
BRANCH  25  26
ATOM     26  C   UNL     1      10.872   7.789  20.948  0.00  0.00    +0.129 C 
BRANCH  26  27
ATOM      4  O   UNL     1      12.839   6.817  19.894  0.00  0.00    -0.251 OA
ATOM     27  C   UNL     1      11.960   6.761  20.743  0.00  0.00    +0.305 C 
BRANCH  27   3
ATOM      3  O   UNL     1      11.851   5.739  21.632  0.00  0.00    -0.481 OA
ATOM     29  H   UNL     1      12.728   5.387  21.893  0.00  0.00    +0.295 HD
ENDBRANCH  27   3
ENDBRANCH  26  27
ENDBRANCH  25  26
ENDBRANCH  24  25
ENDBRANCH  15   6
ENDBRANCH   8  15
TORSDOF 9
ENDMDL
MODEL 3
REMARK VINA RESULT:      -5.9      3.113      6.178
REMARK  Name = 38028873
REMARK  12 active torsions:
REMARK  status: ('A' for Active; 'I' for Inactive)
REMARK    1  A    between atoms: O_3  and  C_27
REMARK    2  A    between atoms: N_6  and  C_15
REMARK    3  A    between atoms: C_7  and  C_11
REMARK    4  A    between atoms: C_8  and  C_15
REMARK    5  A    between atoms: C_10  and  C_14
REMARK    6  A    between atoms: C_11  and  C_16
REMARK    7  A    between atoms: C_11  and  C_17
REMARK    8  A    between atoms: C_12  and  C_19
REMARK    9  A    between atoms: C_14  and  C_18
REMARK   10  A    between atoms: C_24  and  C_25
REMARK   11  A    between atoms: C_25  and  C_26
REMARK   12  A    between atoms: C_26  and  C_27
REMARK                            x       y       z     vdW  Elec       q    Type
REMARK                         _______ _______ _______ _____ _____    ______ ____
ROOT
ATOM      7  C   UNL     1      14.958   9.922  20.301  0.00  0.00    +0.000 C 
ATOM      8  C   UNL     1      15.758  11.110  19.713  0.00  0.00    +0.032 C 
ATOM      9  C   UNL     1      14.801   8.810  19.252  0.00  0.00    +0.012 C 
ATOM     10  C   UNL     1      14.080   9.304  17.983  0.00  0.00    +0.023 C 
ATOM     12  C   UNL     1      14.643  10.623  17.493  0.00  0.00    -0.073 C 
ATOM     13  C   UNL     1      15.402  11.411  18.276  0.00  0.00    -0.022 C 
ATOM     19  C   UNL     1      14.352  10.995  16.066  0.00  0.00    +0.039 C 
ENDROOT
BRANCH   7  11
ATOM     11  C   UNL     1      15.622   9.356  21.560  0.00  0.00    -0.013 C 
ATOM     16  C   UNL     1      14.750   8.267  22.178  0.00  0.00    +0.007 C 
ATOM     17  C   UNL     1      17.010   8.817  21.233  0.00  0.00    +0.007 C 
ENDBRANCH   7  11
BRANCH  10  14
ATOM     14  C   UNL     1      12.567   9.404  18.211  0.00  0.00    +0.103 C 
BRANCH  14  18
ATOM      1  O   UNL     1      12.125   7.070  18.387  0.00  0.00    -0.276 OA
ATOM      5  N   UNL     1      11.577   8.388  20.203  0.00  0.00    -0.301 N 
ATOM     18  C   UNL     1      12.075   8.175  18.930  0.00  0.00    +0.216 C 
ATOM     20  C   UNL     1      11.057   7.306  21.026  0.00  0.00    +0.108 C 
ATOM     21  C   UNL     1      11.493   9.666  20.904  0.00  0.00    +0.108 C 
ATOM     22  C   UNL     1      10.931   7.912  22.416  0.00  0.00    +0.020 C 
ATOM     23  C   UNL     1      10.626   9.374  22.121  0.00  0.00    +0.020 C 
ENDBRANCH  14  18
ENDBRANCH  10  14
BRANCH   8  15
ATOM     15  C   UNL     1      15.572  12.376  20.560  0.00  0.00    +0.112 C 
BRANCH  15   6
ATOM      2  O   UNL     1      14.833  12.958  23.296  0.00  0.00    -0.276 OA
ATOM      6  N   UNL     1      14.253  12.431  21.106  0.00  0.00    -0.315 N 
ATOM     24  C   UNL     1      13.981  12.720  22.444  0.00  0.00    +0.214 C 
ATOM     28  H   UNL     1      13.467  12.305  20.473  0.00  0.00    +0.149 HD
BRANCH  24  25
ATOM     25  C   UNL     1      12.491  12.708  22.740  0.00  0.00    +0.107 C 
BRANCH  25  26
ATOM     26  C   UNL     1      12.191  12.880  24.226  0.00  0.00    +0.129 C 
BRANCH  26  27
ATOM      4  O   UNL     1      11.184  11.044  25.468  0.00  0.00    -0.251 OA
ATOM     27  C   UNL     1      11.071  11.975  24.683  0.00  0.00    +0.305 C 
BRANCH  27   3
ATOM      3  O   UNL     1       9.888  12.321  24.108  0.00  0.00    -0.481 OA
ATOM     29  H   UNL     1       9.122  12.035  24.649  0.00  0.00    +0.295 HD
ENDBRANCH  27   3
ENDBRANCH  26  27
ENDBRANCH  25  26
ENDBRANCH  24  25
ENDBRANCH  15   6
ENDBRANCH   8  15
TORSDOF 9
ENDMDL
MODEL 4
REMARK VINA RESULT:      -5.9      2.603      5.349
REMARK  Name = 38028873
REMARK  12 active torsions:
REMARK  status: ('A' for Active; 'I' for Inactive)
REMARK    1  A    between atoms: O_3  and  C_27
REMARK    2  A    between atoms: N_6  and  C_15
REMARK    3  A    between atoms: C_7  and  C_11
REMARK    4  A    between atoms: C_8  and  C_15
REMARK    5  A    between atoms: C_10  and  C_14
REMARK    6  A    between atoms: C_11  and  C_16
REMARK    7  A    between atoms: C_11  and  C_17
REMARK    8  A    between atoms: C_12  and  C_19
REMARK    9  A    between atoms: C_14  and  C_18
REMARK   10  A    between atoms: C_24  and  C_25
REMARK   11  A    between atoms: C_25  and  C_26
REMARK   12  A    between atoms: C_26  and  C_27
REMARK                            x       y       z     vdW  Elec       q    Type
REMARK                         _______ _______ _______ _____ _____    ______ ____
ROOT
ATOM      7  C   UNL     1      14.692   8.842  20.480  0.00  0.00    +0.000 C 
ATOM      8  C   UNL     1      14.636   7.341  20.106  0.00  0.00    +0.032 C 
ATOM      9  C   UNL     1      14.054   9.075  21.858  0.00  0.00    +0.012 C 
ATOM     10  C   UNL     1      12.584   8.615  21.905  0.00  0.00    +0.023 C 
ATOM     12  C   UNL     1      12.407   7.236  21.301  0.00  0.00    -0.073 C 
ATOM     13  C   UNL     1      13.341   6.678  20.510  0.00  0.00    -0.022 C 
ATOM     19  C   UNL     1      11.151   6.495  21.664  0.00  0.00    +0.039 C 
ENDROOT
BRANCH   7  11
ATOM     11  C   UNL     1      16.128   9.377  20.478  0.00  0.00    -0.013 C 
ATOM     16  C   UNL     1      16.136  10.882  20.724  0.00  0.00    +0.007 C 
ATOM     17  C   UNL     1      16.967   8.652  21.524  0.00  0.00    +0.007 C 
ENDBRANCH   7  11
BRANCH  10  14
ATOM     14  C   UNL     1      11.664   9.635  21.225  0.00  0.00    +0.103 C 
BRANCH  14  18
ATOM      1  O   UNL     1      10.644  10.325  23.264  0.00  0.00    -0.276 OA
ATOM      5  N   UNL     1      11.481  11.982  21.889  0.00  0.00    -0.301 N 
ATOM     18  C   UNL     1      11.214  10.667  22.226  0.00  0.00    +0.216 C 
ATOM     20  C   UNL     1      11.105  13.096  22.746  0.00  0.00    +0.108 C 
ATOM     21  C   UNL     1      12.153  12.452  20.681  0.00  0.00    +0.108 C 
ATOM     22  C   UNL     1      11.857  14.287  22.173  0.00  0.00    +0.020 C 
ATOM     23  C   UNL     1      11.932  13.959  20.688  0.00  0.00    +0.020 C 
ENDBRANCH  14  18
ENDBRANCH  10  14
BRANCH   8  15
ATOM     15  C   UNL     1      14.867   7.136  18.604  0.00  0.00    +0.112 C 
BRANCH  15   6
ATOM      2  O   UNL     1      12.244   7.205  17.384  0.00  0.00    -0.276 OA
ATOM      6  N   UNL     1      14.291   8.206  17.852  0.00  0.00    -0.315 N 
ATOM     24  C   UNL     1      13.013   8.159  17.294  0.00  0.00    +0.214 C 
ATOM     28  H   UNL     1      14.821   9.069  17.765  0.00  0.00    +0.149 HD
BRANCH  24  25
ATOM     25  C   UNL     1      12.666   9.436  16.550  0.00  0.00    +0.107 C 
BRANCH  25  26
ATOM     26  C   UNL     1      13.784  10.472  16.618  0.00  0.00    +0.129 C 
BRANCH  26  27
ATOM      4  O   UNL     1      15.000   9.771  14.629  0.00  0.00    -0.251 OA
ATOM     27  C   UNL     1      14.465  10.656  15.282  0.00  0.00    +0.305 C 
BRANCH  27   3
ATOM      3  O   UNL     1      14.413  11.952  14.874  0.00  0.00    -0.481 OA
ATOM     29  H   UNL     1      14.681  12.050  13.936  0.00  0.00    +0.295 HD
ENDBRANCH  27   3
ENDBRANCH  26  27
ENDBRANCH  25  26
ENDBRANCH  24  25
ENDBRANCH  15   6
ENDBRANCH   8  15
TORSDOF 9
ENDMDL
MODEL 5
REMARK VINA RESULT:      -5.8      3.001      6.288
REMARK  Name = 38028873
REMARK  12 active torsions:
REMARK  status: ('A' for Active; 'I' for Inactive)
REMARK    1  A    between atoms: O_3  and  C_27
REMARK    2  A    between atoms: N_6  and  C_15
REMARK    3  A    between atoms: C_7  and  C_11
REMARK    4  A    between atoms: C_8  and  C_15
REMARK    5  A    between atoms: C_10  and  C_14
REMARK    6  A    between atoms: C_11  and  C_16
REMARK    7  A    between atoms: C_11  and  C_17
REMARK    8  A    between atoms: C_12  and  C_19
REMARK    9  A    between atoms: C_14  and  C_18
REMARK   10  A    between atoms: C_24  and  C_25
REMARK   11  A    between atoms: C_25  and  C_26
REMARK   12  A    between atoms: C_26  and  C_27
REMARK                            x       y       z     vdW  Elec       q    Type
REMARK                         _______ _______ _______ _____ _____    ______ ____
ROOT
ATOM      7  C   UNL     1      13.559  10.663  18.354  0.00  0.00    +0.000 C 
ATOM      8  C   UNL     1      14.804   9.887  18.850  0.00  0.00    +0.032 C 
ATOM      9  C   UNL     1      13.527  12.072  18.966  0.00  0.00    +0.012 C 
ATOM     10  C   UNL     1      13.500  12.039  20.506  0.00  0.00    +0.023 C 
ATOM     12  C   UNL     1      14.533  11.082  21.066  0.00  0.00    -0.073 C 
ATOM     13  C   UNL     1      15.114  10.135  20.308  0.00  0.00    -0.022 C 
ATOM     19  C   UNL     1      14.914  11.266  22.508  0.00  0.00    +0.039 C 
ENDROOT
BRANCH   7  11
ATOM     11  C   UNL     1      13.520  10.760  16.826  0.00  0.00    -0.013 C 
ATOM     16  C   UNL     1      14.935  10.841  16.262  0.00  0.00    +0.007 C 
ATOM     17  C   UNL     1      12.769   9.572  16.236  0.00  0.00    +0.007 C 
ENDBRANCH   7  11
BRANCH  10  14
ATOM     14  C   UNL     1      12.098  11.702  21.026  0.00  0.00    +0.103 C 
BRANCH  14  18
ATOM      1  O   UNL     1      11.092  13.849  20.794  0.00  0.00    -0.276 OA
ATOM      5  N   UNL     1      11.263  12.988  22.932  0.00  0.00    -0.301 N 
ATOM     18  C   UNL     1      11.437  12.946  21.560  0.00  0.00    +0.216 C 
ATOM     20  C   UNL     1      10.646  14.122  23.602  0.00  0.00    +0.108 C 
ATOM     21  C   UNL     1      11.643  11.955  23.890  0.00  0.00    +0.108 C 
ATOM     22  C   UNL     1      10.362  13.622  25.011  0.00  0.00    +0.020 C 
ATOM     23  C   UNL     1      11.486  12.624  25.249  0.00  0.00    +0.020 C 
ENDBRANCH  14  18
ENDBRANCH  10  14
BRANCH   8  15
ATOM     15  C   UNL     1      14.650   8.381  18.611  0.00  0.00    +0.112 C 
BRANCH  15   6
ATOM      2  O   UNL     1      12.138   6.966  18.359  0.00  0.00    -0.276 OA
ATOM      6  N   UNL     1      13.889   7.776  19.658  0.00  0.00    -0.315 N 
ATOM     24  C   UNL     1      12.680   7.109  19.452  0.00  0.00    +0.214 C 
ATOM     28  H   UNL     1      14.277   7.786  20.598  0.00  0.00    +0.149 HD
BRANCH  24  25
ATOM     25  C   UNL     1      12.096   6.570  20.745  0.00  0.00    +0.107 C 
BRANCH  25  26
ATOM     26  C   UNL     1      12.031   7.628  21.841  0.00  0.00    +0.129 C 
BRANCH  26  27
ATOM      4  O   UNL     1      10.263   9.194  22.430  0.00  0.00    -0.251 OA
ATOM     27  C   UNL     1      10.611   8.064  22.121  0.00  0.00    +0.305 C 
BRANCH  27   3
ATOM      3  O   UNL     1       9.740   7.029  21.985  0.00  0.00    -0.481 OA
ATOM     29  H   UNL     1      10.205   6.175  21.854  0.00  0.00    +0.295 HD
ENDBRANCH  27   3
ENDBRANCH  26  27
ENDBRANCH  25  26
ENDBRANCH  24  25
ENDBRANCH  15   6
ENDBRANCH   8  15
TORSDOF 9
ENDMDL
MODEL 6
REMARK VINA RESULT:      -5.7     26.202     29.113
REMARK  Name = 38028873
REMARK  12 active torsions:
REMARK  status: ('A' for Active; 'I' for Inactive)
REMARK    1  A    between atoms: O_3  and  C_27
REMARK    2  A    between atoms: N_6  and  C_15
REMARK    3  A    between atoms: C_7  and  C_11
REMARK    4  A    between atoms: C_8  and  C_15
REMARK    5  A    between atoms: C_10  and  C_14
REMARK    6  A    between atoms: C_11  and  C_16
REMARK    7  A    between atoms: C_11  and  C_17
REMARK    8  A    between atoms: C_12  and  C_19
REMARK    9  A    between atoms: C_14  and  C_18
REMARK   10  A    between atoms: C_24  and  C_25
REMARK   11  A    between atoms: C_25  and  C_26
REMARK   12  A    between atoms: C_26  and  C_27
REMARK                            x       y       z     vdW  Elec       q    Type
REMARK                         _______ _______ _______ _____ _____    ______ ____
ROOT
ATOM      7  C   UNL     1      -7.407 -11.678  16.873  0.00  0.00    +0.000 C 
ATOM      8  C   UNL     1      -7.573 -11.968  18.385  0.00  0.00    +0.032 C 
ATOM      9  C   UNL     1      -6.159 -12.387  16.325  0.00  0.00    +0.012 C 
ATOM     10  C   UNL     1      -4.873 -11.948  17.051  0.00  0.00    +0.023 C 
ATOM     12  C   UNL     1      -5.047 -11.951  18.556  0.00  0.00    -0.073 C 
ATOM     13  C   UNL     1      -6.261 -11.974  19.135  0.00  0.00    -0.022 C 
ATOM     19  C   UNL     1      -3.791 -11.973  19.382  0.00  0.00    +0.039 C 
ENDROOT
BRANCH   7  11
ATOM     11  C   UNL     1      -8.641 -12.107  16.072  0.00  0.00    -0.013 C 
ATOM     16  C   UNL     1      -8.702 -11.356  14.747  0.00  0.00    +0.007 C 
ATOM     17  C   UNL     1      -8.626 -13.614  15.840  0.00  0.00    +0.007 C 
ENDBRANCH   7  11
BRANCH  10  14
ATOM     14  C   UNL     1      -4.401 -10.576  16.555  0.00  0.00    +0.103 C 
BRANCH  14  18
ATOM      1  O   UNL     1      -2.037 -10.851  16.446  0.00  0.00    -0.276 OA
ATOM      5  N   UNL     1      -3.174 -10.684  14.442  0.00  0.00    -0.301 N 
ATOM     18  C   UNL     1      -3.092 -10.719  15.823  0.00  0.00    +0.216 C 
ATOM     20  C   UNL     1      -2.000 -10.802  13.591  0.00  0.00    +0.108 C 
ATOM     21  C   UNL     1      -4.387 -10.535  13.644  0.00  0.00    +0.108 C 
ATOM     22  C   UNL     1      -2.563 -11.041  12.198  0.00  0.00    +0.020 C 
ATOM     23  C   UNL     1      -3.882 -10.282  12.231  0.00  0.00    +0.020 C 
ENDBRANCH  14  18
ENDBRANCH  10  14
BRANCH   8  15
ATOM     15  C   UNL     1      -8.530 -10.965  19.040  0.00  0.00    +0.112 C 
BRANCH  15   6
ATOM      2  O   UNL     1     -10.957  -9.776  18.007  0.00  0.00    -0.276 OA
ATOM      6  N   UNL     1      -8.643  -9.782  18.247  0.00  0.00    -0.315 N 
ATOM     24  C   UNL     1      -9.858  -9.272  17.786  0.00  0.00    +0.214 C 
ATOM     28  H   UNL     1      -7.797  -9.252  18.054  0.00  0.00    +0.149 HD
BRANCH  24  25
ATOM     25  C   UNL     1      -9.674  -8.006  16.969  0.00  0.00    +0.107 C 
BRANCH  25  26
ATOM     26  C   UNL     1     -10.935  -7.148  16.931  0.00  0.00    +0.129 C 
BRANCH  26  27
ATOM      4  O   UNL     1     -11.901  -5.713  15.219  0.00  0.00    -0.251 OA
ATOM     27  C   UNL     1     -10.915  -6.167  15.782  0.00  0.00    +0.305 C 
BRANCH  27   3
ATOM      3  O   UNL     1      -9.643  -5.835  15.436  0.00  0.00    -0.481 OA
ATOM     29  H   UNL     1      -9.587  -4.921  15.085  0.00  0.00    +0.295 HD
ENDBRANCH  27   3
ENDBRANCH  26  27
ENDBRANCH  25  26
ENDBRANCH  24  25
ENDBRANCH  15   6
ENDBRANCH   8  15
TORSDOF 9
ENDMDL
MODEL 7
REMARK VINA RESULT:      -5.6     11.284     14.426
REMARK  Name = 38028873
REMARK  12 active torsions:
REMARK  status: ('A' for Active; 'I' for Inactive)
REMARK    1  A    between atoms: O_3  and  C_27
REMARK    2  A    between atoms: N_6  and  C_15
REMARK    3  A    between atoms: C_7  and  C_11
REMARK    4  A    between atoms: C_8  and  C_15
REMARK    5  A    between atoms: C_10  and  C_14
REMARK    6  A    between atoms: C_11  and  C_16
REMARK    7  A    between atoms: C_11  and  C_17
REMARK    8  A    between atoms: C_12  and  C_19
REMARK    9  A    between atoms: C_14  and  C_18
REMARK   10  A    between atoms: C_24  and  C_25
REMARK   11  A    between atoms: C_25  and  C_26
REMARK   12  A    between atoms: C_26  and  C_27
REMARK                            x       y       z     vdW  Elec       q    Type
REMARK                         _______ _______ _______ _____ _____    ______ ____
ROOT
ATOM      7  C   UNL     1       9.757   6.342   6.861  0.00  0.00    +0.000 C 
ATOM      8  C   UNL     1       9.248   5.685   5.554  0.00  0.00    +0.032 C 
ATOM      9  C   UNL     1       8.739   7.371   7.376  0.00  0.00    +0.012 C 
ATOM     10  C   UNL     1       8.463   8.483   6.346  0.00  0.00    +0.023 C 
ATOM     12  C   UNL     1       8.214   7.918   4.962  0.00  0.00    -0.073 C 
ATOM     13  C   UNL     1       8.560   6.661   4.630  0.00  0.00    -0.022 C 
ATOM     19  C   UNL     1       7.518   8.818   3.979  0.00  0.00    +0.039 C 
ENDROOT
BRANCH   7  11
ATOM     11  C   UNL     1      10.038   5.301   7.950  0.00  0.00    -0.013 C 
ATOM     16  C   UNL     1       9.309   5.670   9.238  0.00  0.00    +0.007 C 
ATOM     17  C   UNL     1       9.628   3.911   7.475  0.00  0.00    +0.007 C 
ENDBRANCH   7  11
BRANCH  10  14
ATOM     14  C   UNL     1       9.601   9.510   6.324  0.00  0.00    +0.103 C 
BRANCH  14  18
ATOM      1  O   UNL     1       8.444  11.549   5.900  0.00  0.00    -0.276 OA
ATOM      5  N   UNL     1       9.352  11.268   8.006  0.00  0.00    -0.301 N 
ATOM     18  C   UNL     1       9.073  10.867   6.712  0.00  0.00    +0.216 C 
ATOM     20  C   UNL     1       8.918  12.553   8.532  0.00  0.00    +0.108 C 
ATOM     21  C   UNL     1      10.086  10.509   9.014  0.00  0.00    +0.108 C 
ATOM     22  C   UNL     1       9.138  12.444  10.034  0.00  0.00    +0.020 C 
ATOM     23  C   UNL     1      10.338  11.511  10.133  0.00  0.00    +0.020 C 
ENDBRANCH  14  18
ENDBRANCH  10  14
BRANCH   8  15
ATOM     15  C   UNL     1      10.389   4.989   4.803  0.00  0.00    +0.112 C 
BRANCH  15   6
ATOM      2  O   UNL     1      11.483   6.637   2.691  0.00  0.00    -0.276 OA
ATOM      6  N   UNL     1      11.581   5.776   4.849  0.00  0.00    -0.315 N 
ATOM     24  C   UNL     1      12.042   6.547   3.781  0.00  0.00    +0.214 C 
ATOM     28  H   UNL     1      12.091   5.820   5.728  0.00  0.00    +0.149 HD
BRANCH  24  25
ATOM     25  C   UNL     1      13.331   7.276   4.115  0.00  0.00    +0.107 C 
BRANCH  25  26
ATOM     26  C   UNL     1      13.298   7.911   5.502  0.00  0.00    +0.129 C 
BRANCH  26  27
ATOM      4  O   UNL     1      15.444   7.620   6.613  0.00  0.00    -0.251 OA
ATOM     27  C   UNL     1      14.287   7.263   6.442  0.00  0.00    +0.305 C 
BRANCH  27   3
ATOM      3  O   UNL     1      13.731   6.209   7.097  0.00  0.00    -0.481 OA
ATOM     29  H   UNL     1      13.811   5.377   6.584  0.00  0.00    +0.295 HD
ENDBRANCH  27   3
ENDBRANCH  26  27
ENDBRANCH  25  26
ENDBRANCH  24  25
ENDBRANCH  15   6
ENDBRANCH   8  15
TORSDOF 9
ENDMDL
MODEL 8
REMARK VINA RESULT:      -5.6      2.989      6.518
REMARK  Name = 38028873
REMARK  12 active torsions:
REMARK  status: ('A' for Active; 'I' for Inactive)
REMARK    1  A    between atoms: O_3  and  C_27
REMARK    2  A    between atoms: N_6  and  C_15
REMARK    3  A    between atoms: C_7  and  C_11
REMARK    4  A    between atoms: C_8  and  C_15
REMARK    5  A    between atoms: C_10  and  C_14
REMARK    6  A    between atoms: C_11  and  C_16
REMARK    7  A    between atoms: C_11  and  C_17
REMARK    8  A    between atoms: C_12  and  C_19
REMARK    9  A    between atoms: C_14  and  C_18
REMARK   10  A    between atoms: C_24  and  C_25
REMARK   11  A    between atoms: C_25  and  C_26
REMARK   12  A    between atoms: C_26  and  C_27
REMARK                            x       y       z     vdW  Elec       q    Type
REMARK                         _______ _______ _______ _____ _____    ______ ____
ROOT
ATOM      7  C   UNL     1      16.587  10.195  22.013  0.00  0.00    +0.000 C 
ATOM      8  C   UNL     1      15.105  10.439  21.633  0.00  0.00    +0.032 C 
ATOM      9  C   UNL     1      17.368   9.655  20.805  0.00  0.00    +0.012 C 
ATOM     10  C   UNL     1      16.777   8.336  20.271  0.00  0.00    +0.023 C 
ATOM     12  C   UNL     1      15.271   8.413  20.124  0.00  0.00    -0.073 C 
ATOM     13  C   UNL     1      14.542   9.368  20.729  0.00  0.00    -0.022 C 
ATOM     19  C   UNL     1      14.626   7.393  19.228  0.00  0.00    +0.039 C 
ENDROOT
BRANCH   7  11
ATOM     11  C   UNL     1      17.258  11.470  22.536  0.00  0.00    -0.013 C 
ATOM     16  C   UNL     1      18.736  11.217  22.813  0.00  0.00    +0.007 C 
ATOM     17  C   UNL     1      17.081  12.611  21.540  0.00  0.00    +0.007 C 
ENDBRANCH   7  11
BRANCH  10  14
ATOM     14  C   UNL     1      17.182   7.152  21.156  0.00  0.00    +0.103 C 
BRANCH  14  18
ATOM      1  O   UNL     1      17.913   5.776  19.353  0.00  0.00    -0.276 OA
ATOM      5  N   UNL     1      19.409   6.144  21.074  0.00  0.00    -0.301 N 
ATOM     18  C   UNL     1      18.192   6.295  20.436  0.00  0.00    +0.216 C 
ATOM     20  C   UNL     1      20.487   5.343  20.513  0.00  0.00    +0.108 C 
ATOM     21  C   UNL     1      19.804   6.732  22.351  0.00  0.00    +0.108 C 
ATOM     22  C   UNL     1      21.707   5.710  21.344  0.00  0.00    +0.020 C 
ATOM     23  C   UNL     1      21.105   6.026  22.707  0.00  0.00    +0.020 C 
ENDBRANCH  14  18
ENDBRANCH  10  14
BRANCH   8  15
ATOM     15  C   UNL     1      14.227  10.566  22.883  0.00  0.00    +0.112 C 
BRANCH  15   6
ATOM      2  O   UNL     1      11.593  11.746  23.095  0.00  0.00    -0.276 OA
ATOM      6  N   UNL     1      12.969   9.916  22.686  0.00  0.00    -0.315 N 
ATOM     24  C   UNL     1      11.737  10.560  22.809  0.00  0.00    +0.214 C 
ATOM     28  H   UNL     1      12.975   8.944  22.388  0.00  0.00    +0.149 HD
BRANCH  24  25
ATOM     25  C   UNL     1      10.573   9.623  22.545  0.00  0.00    +0.107 C 
BRANCH  25  26
ATOM     26  C   UNL     1      10.998   8.158  22.521  0.00  0.00    +0.129 C 
BRANCH  26  27
ATOM      4  O   UNL     1      10.847   8.176  20.092  0.00  0.00    -0.251 OA
ATOM     27  C   UNL     1      10.859   7.553  21.144  0.00  0.00    +0.305 C 
BRANCH  27   3
ATOM      3  O   UNL     1      10.747   6.199  21.206  0.00  0.00    -0.481 OA
ATOM     29  H   UNL     1      10.890   5.863  22.116  0.00  0.00    +0.295 HD
ENDBRANCH  27   3
ENDBRANCH  26  27
ENDBRANCH  25  26
ENDBRANCH  24  25
ENDBRANCH  15   6
ENDBRANCH   8  15
TORSDOF 9
ENDMDL
MODEL 9
REMARK VINA RESULT:      -5.6     12.927     15.916
REMARK  Name = 38028873
REMARK  12 active torsions:
REMARK  status: ('A' for Active; 'I' for Inactive)
REMARK    1  A    between atoms: O_3  and  C_27
REMARK    2  A    between atoms: N_6  and  C_15
REMARK    3  A    between atoms: C_7  and  C_11
REMARK    4  A    between atoms: C_8  and  C_15
REMARK    5  A    between atoms: C_10  and  C_14
REMARK    6  A    between atoms: C_11  and  C_16
REMARK    7  A    between atoms: C_11  and  C_17
REMARK    8  A    between atoms: C_12  and  C_19
REMARK    9  A    between atoms: C_14  and  C_18
REMARK   10  A    between atoms: C_24  and  C_25
REMARK   11  A    between atoms: C_25  and  C_26
REMARK   12  A    between atoms: C_26  and  C_27
REMARK                            x       y       z     vdW  Elec       q    Type
REMARK                         _______ _______ _______ _____ _____    ______ ____
ROOT
ATOM      7  C   UNL     1      11.023   7.294   5.165  0.00  0.00    +0.000 C 
ATOM      8  C   UNL     1      11.029   5.751   5.037  0.00  0.00    +0.032 C 
ATOM      9  C   UNL     1      11.327   7.713   6.611  0.00  0.00    +0.012 C 
ATOM     10  C   UNL     1      10.308   7.136   7.612  0.00  0.00    +0.023 C 
ATOM     12  C   UNL     1      10.058   5.661   7.373  0.00  0.00    -0.073 C 
ATOM     13  C   UNL     1      10.399   5.056   6.220  0.00  0.00    -0.022 C 
ATOM     19  C   UNL     1       9.447   4.885   8.506  0.00  0.00    +0.039 C 
ENDROOT
BRANCH   7  11
ATOM     11  C   UNL     1      12.030   7.948   4.213  0.00  0.00    -0.013 C 
ATOM     16  C   UNL     1      11.939   9.468   4.305  0.00  0.00    +0.007 C 
ATOM     17  C   UNL     1      13.445   7.471   4.525  0.00  0.00    +0.007 C 
ENDBRANCH   7  11
BRANCH  10  14
ATOM     14  C   UNL     1       8.995   7.928   7.581  0.00  0.00    +0.103 C 
BRANCH  14  18
ATOM      1  O   UNL     1       9.820   9.911   8.612  0.00  0.00    -0.276 OA
ATOM      5  N   UNL     1       8.914  10.119   6.497  0.00  0.00    -0.301 N 
ATOM     18  C   UNL     1       9.287   9.405   7.622  0.00  0.00    +0.216 C 
ATOM     20  C   UNL     1       9.121  11.554   6.383  0.00  0.00    +0.108 C 
ATOM     21  C   UNL     1       8.285   9.582   5.293  0.00  0.00    +0.108 C 
ATOM     22  C   UNL     1       8.882  11.857   4.911  0.00  0.00    +0.020 C 
ATOM     23  C   UNL     1       7.846  10.815   4.515  0.00  0.00    +0.020 C 
ENDBRANCH  14  18
ENDBRANCH  10  14
BRANCH   8  15
ATOM     15  C   UNL     1      10.330   5.299   3.749  0.00  0.00    +0.112 C 
BRANCH  15   6
ATOM      2  O   UNL     1       9.796   4.299   1.086  0.00  0.00    -0.276 OA
ATOM      6  N   UNL     1      11.276   4.768   2.818  0.00  0.00    -0.315 N 
ATOM     24  C   UNL     1      10.934   4.304   1.547  0.00  0.00    +0.214 C 
ATOM     28  H   UNL     1      12.259   4.779   3.077  0.00  0.00    +0.149 HD
BRANCH  24  25
ATOM     25  C   UNL     1      12.142   3.796   0.780  0.00  0.00    +0.107 C 
BRANCH  25  26
ATOM     26  C   UNL     1      13.183   3.152   1.691  0.00  0.00    +0.129 C 
BRANCH  26  27
ATOM      4  O   UNL     1      14.913   4.073   0.248  0.00  0.00    -0.251 OA
ATOM     27  C   UNL     1      14.591   3.533   1.297  0.00  0.00    +0.305 C 
BRANCH  27   3
ATOM      3  O   UNL     1      15.484   3.200   2.266  0.00  0.00    -0.481 OA
ATOM     29  H   UNL     1      15.953   3.988   2.616  0.00  0.00    +0.295 HD
ENDBRANCH  27   3
ENDBRANCH  26  27
ENDBRANCH  25  26
ENDBRANCH  24  25
ENDBRANCH  15   6
ENDBRANCH   8  15
TORSDOF 9
ENDMDL
MODEL 10
REMARK VINA RESULT:      -5.6     25.755     28.447
REMARK  Name = 38028873
REMARK  12 active torsions:
REMARK  status: ('A' for Active; 'I' for Inactive)
REMARK    1  A    between atoms: O_3  and  C_27
REMARK    2  A    between atoms: N_6  and  C_15
REMARK    3  A    between atoms: C_7  and  C_11
REMARK    4  A    between atoms: C_8  and  C_15
REMARK    5  A    between atoms: C_10  and  C_14
REMARK    6  A    between atoms: C_11  and  C_16
REMARK    7  A    between atoms: C_11  and  C_17
REMARK    8  A    between atoms: C_12  and  C_19
REMARK    9  A    between atoms: C_14  and  C_18
REMARK   10  A    between atoms: C_24  and  C_25
REMARK   11  A    between atoms: C_25  and  C_26
REMARK   12  A    between atoms: C_26  and  C_27
REMARK                            x       y       z     vdW  Elec       q    Type
REMARK                         _______ _______ _______ _____ _____    ______ ____
ROOT
ATOM      7  C   UNL     1      -3.005 -12.217  12.427  0.00  0.00    +0.000 C 
ATOM      8  C   UNL     1      -1.977 -11.068  12.282  0.00  0.00    +0.032 C 
ATOM      9  C   UNL     1      -3.611 -12.569  11.060  0.00  0.00    +0.012 C 
ATOM     10  C   UNL     1      -4.315 -11.365  10.406  0.00  0.00    +0.023 C 
ATOM     12  C   UNL     1      -3.461 -10.114  10.466  0.00  0.00    -0.073 C 
ATOM     13  C   UNL     1      -2.412 -10.004  11.302  0.00  0.00    -0.022 C 
ATOM     19  C   UNL     1      -3.813  -9.008   9.511  0.00  0.00    +0.039 C 
ENDROOT
BRANCH   7  11
ATOM     11  C   UNL     1      -2.377 -13.467  13.053  0.00  0.00    -0.013 C 
ATOM     16  C   UNL     1      -3.139 -13.872  14.311  0.00  0.00    +0.007 C 
ATOM     17  C   UNL     1      -2.350 -14.610  12.044  0.00  0.00    +0.007 C 
ENDBRANCH   7  11
BRANCH  10  14
ATOM     14  C   UNL     1      -5.691 -11.121  11.035  0.00  0.00    +0.103 C 
BRANCH  14  18
ATOM      1  O   UNL     1      -6.917 -12.536   9.562  0.00  0.00    -0.276 OA
ATOM      5  N   UNL     1      -7.556 -10.319   9.672  0.00  0.00    -0.301 N 
ATOM     18  C   UNL     1      -6.773 -11.403  10.025  0.00  0.00    +0.216 C 
ATOM     20  C   UNL     1      -8.638 -10.424   8.705  0.00  0.00    +0.108 C 
ATOM     21  C   UNL     1      -7.441  -8.956  10.184  0.00  0.00    +0.108 C 
ATOM     22  C   UNL     1      -9.417  -9.126   8.863  0.00  0.00    +0.020 C 
ATOM     23  C   UNL     1      -8.339  -8.132   9.271  0.00  0.00    +0.020 C 
ENDBRANCH  14  18
ENDBRANCH  10  14
BRANCH   8  15
ATOM     15  C   UNL     1      -1.678 -10.418  13.639  0.00  0.00    +0.112 C 
BRANCH  15   6
ATOM      2  O   UNL     1      -1.748 -10.777  16.509  0.00  0.00    -0.276 OA
ATOM      6  N   UNL     1      -2.834 -10.445  14.479  0.00  0.00    -0.315 N 
ATOM     24  C   UNL     1      -2.781 -10.624  15.863  0.00  0.00    +0.214 C 
ATOM     28  H   UNL     1      -3.740 -10.270  14.052  0.00  0.00    +0.149 HD
BRANCH  24  25
ATOM     25  C   UNL     1      -4.162 -10.610  16.494  0.00  0.00    +0.107 C 
BRANCH  25  26
ATOM     26  C   UNL     1      -4.478 -11.906  17.234  0.00  0.00    +0.129 C 
BRANCH  26  27
ATOM      4  O   UNL     1      -5.146 -11.449  19.530  0.00  0.00    -0.251 OA
ATOM     27  C   UNL     1      -4.281 -11.766  18.726  0.00  0.00    +0.305 C 
BRANCH  27   3
ATOM      3  O   UNL     1      -2.999 -12.040  19.084  0.00  0.00    -0.481 OA
ATOM     29  H   UNL     1      -2.633 -11.355  19.683  0.00  0.00    +0.295 HD
ENDBRANCH  27   3
ENDBRANCH  26  27
ENDBRANCH  25  26
ENDBRANCH  24  25
ENDBRANCH  15   6
ENDBRANCH   8  15
TORSDOF 9
ENDMDL
