MODEL 1
REMARK VINA RESULT:      -7.4      0.000      0.000
REMARK  Name = 40480283
REMARK  4 active torsions:
REMARK  status: ('A' for Active; 'I' for Inactive)
REMARK    1  A    between atoms: N_6  and  C_18
REMARK    2  A    between atoms: C_17  and  C_20
REMARK    3  A    between atoms: C_23  and  C_27
REMARK    4  A    between atoms: C_32  and  C_33
REMARK                            x       y       z     vdW  Elec       q    Type
REMARK                         _______ _______ _______ _____ _____    ______ ____
ROOT
ATOM      1  O   UNL     1      15.770   6.182  18.973  0.00  0.00    -0.266 OA
ATOM      2  O   UNL     1      14.959  10.813  16.814  0.00  0.00    -0.270 OA
ATOM      4  N   UNL     1      13.233  10.433  18.349  0.00  0.00    -0.297 N 
ATOM      5  N   UNL     1      14.077   7.654  19.624  0.00  0.00    -0.310 N 
ATOM      8  C   UNL     1      12.090   8.234  18.114  0.00  0.00    +0.027 C 
ATOM      9  C   UNL     1      12.288   9.279  20.334  0.00  0.00    +0.054 C 
ATOM     10  C   UNL     1      11.351   8.487  19.424  0.00  0.00    +0.018 C 
ATOM     11  C   UNL     1      12.473   9.568  17.447  0.00  0.00    +0.113 C 
ATOM     12  C   UNL     1      13.317   7.360  18.401  0.00  0.00    +0.130 C 
ATOM     13  C   UNL     1      12.628  10.631  19.676  0.00  0.00    +0.117 C 
ATOM     14  C   UNL     1      13.565   8.508  20.607  0.00  0.00    +0.027 A 
ATOM     15  C   UNL     1      14.221   8.671  21.769  0.00  0.00    +0.024 A 
ATOM     16  C   UNL     1      15.288   6.957  19.801  0.00  0.00    +0.273 A 
ATOM     17  C   UNL     1      14.447  10.975  17.921  0.00  0.00    +0.247 C 
ATOM     18  C   UNL     1      16.003   7.188  21.096  0.00  0.00    +0.099 A 
ATOM     19  C   UNL     1      15.464   7.998  22.015  0.00  0.00    +0.030 A 
ENDROOT
BRANCH  17  20
ATOM     20  C   UNL     1      15.204  11.799  18.870  0.00  0.00    +0.037 A 
ATOM     21  C   UNL     1      15.035  13.183  18.883  0.00  0.00    +0.013 A 
ATOM     22  C   UNL     1      16.093  11.196  19.760  0.00  0.00    +0.013 A 
ATOM     24  C   UNL     1      15.755  13.965  19.786  0.00  0.00    +0.001 A 
ATOM     25  C   UNL     1      16.814  11.979  20.663  0.00  0.00    +0.001 A 
ATOM     26  C   UNL     1      16.644  13.364  20.675  0.00  0.00    +0.000 A 
ENDBRANCH  17  20
BRANCH  18   6
ATOM      3  O   UNL     1      18.600   8.360  20.936  0.00  0.00    -0.270 OA
ATOM      6  N   UNL     1      17.188   6.547  21.298  0.00  0.00    -0.277 N 
ATOM     23  C   UNL     1      18.423   7.173  21.205  0.00  0.00    +0.248 C 
ATOM     34  H   UNL     1      17.129   5.536  21.370  0.00  0.00    +0.155 HD
BRANCH  23  27
ATOM     27  C   UNL     1      19.605   6.315  21.481  0.00  0.00    +0.037 A 
ATOM     28  C   UNL     1      20.311   6.461  22.675  0.00  0.00    +0.014 A 
ATOM     29  C   UNL     1      20.007   5.362  20.545  0.00  0.00    +0.014 A 
ATOM     30  C   UNL     1      21.418   5.654  22.933  0.00  0.00    +0.019 A 
ATOM     31  C   UNL     1      21.115   4.555  20.804  0.00  0.00    +0.019 A 
ATOM     32  C   UNL     1      21.821   4.702  21.998  0.00  0.00    +0.052 A 
BRANCH  32  33
ATOM      7  N   UNL     1      23.877   3.203  22.478  0.00  0.00    -0.191 NA
ATOM     33  C   UNL     1      22.956   3.875  22.263  0.00  0.00    +0.099 C 
ENDBRANCH  32  33
ENDBRANCH  23  27
ENDBRANCH  18   6
TORSDOF 4
ENDMDL
MODEL 2
REMARK VINA RESULT:      -7.1     32.243     34.115
REMARK  Name = 40480283
REMARK  4 active torsions:
REMARK  status: ('A' for Active; 'I' for Inactive)
REMARK    1  A    between atoms: N_6  and  C_18
REMARK    2  A    between atoms: C_17  and  C_20
REMARK    3  A    between atoms: C_23  and  C_27
REMARK    4  A    between atoms: C_32  and  C_33
REMARK                            x       y       z     vdW  Elec       q    Type
REMARK                         _______ _______ _______ _____ _____    ______ ____
ROOT
ATOM      1  O   UNL     1     -12.123  -7.447   9.342  0.00  0.00    -0.266 OA
ATOM      2  O   UNL     1     -16.573  -5.028  10.396  0.00  0.00    -0.270 OA
ATOM      4  N   UNL     1     -14.950  -4.202  11.866  0.00  0.00    -0.297 N 
ATOM      5  N   UNL     1     -12.335  -5.705  10.885  0.00  0.00    -0.310 N 
ATOM      8  C   UNL     1     -13.647  -5.946  13.073  0.00  0.00    +0.027 C 
ATOM      9  C   UNL     1     -12.586  -3.797  12.510  0.00  0.00    +0.054 C 
ATOM     10  C   UNL     1     -12.701  -4.869  13.593  0.00  0.00    +0.018 C 
ATOM     11  C   UNL     1     -15.033  -5.345  12.775  0.00  0.00    +0.113 C 
ATOM     12  C   UNL     1     -13.021  -6.596  11.832  0.00  0.00    +0.130 C 
ATOM     13  C   UNL     1     -13.972  -3.172  12.252  0.00  0.00    +0.117 C 
ATOM     14  C   UNL     1     -12.041  -4.379  11.220  0.00  0.00    +0.027 A 
ATOM     15  C   UNL     1     -11.311  -3.618  10.388  0.00  0.00    +0.024 A 
ATOM     16  C   UNL     1     -11.903  -6.281   9.674  0.00  0.00    +0.273 A 
ATOM     17  C   UNL     1     -15.754  -4.171  10.725  0.00  0.00    +0.247 C 
ATOM     18  C   UNL     1     -11.118  -5.391   8.761  0.00  0.00    +0.099 A 
ATOM     19  C   UNL     1     -10.843  -4.136   9.133  0.00  0.00    +0.030 A 
ENDROOT
BRANCH  17  20
ATOM     20  C   UNL     1     -15.610  -3.031   9.814  0.00  0.00    +0.037 A 
ATOM     21  C   UNL     1     -16.382  -1.885  10.000  0.00  0.00    +0.013 A 
ATOM     22  C   UNL     1     -14.697  -3.093   8.760  0.00  0.00    +0.013 A 
ATOM     24  C   UNL     1     -16.243  -0.801   9.133  0.00  0.00    +0.001 A 
ATOM     25  C   UNL     1     -14.559  -2.009   7.892  0.00  0.00    +0.001 A 
ATOM     26  C   UNL     1     -15.332  -0.863   8.079  0.00  0.00    +0.000 A 
ENDBRANCH  17  20
BRANCH  18   6
ATOM      3  O   UNL     1      -8.642  -6.729   8.284  0.00  0.00    -0.270 OA
ATOM      6  N   UNL     1     -10.697  -5.905   7.570  0.00  0.00    -0.277 N 
ATOM     23  C   UNL     1      -9.478  -6.547   7.401  0.00  0.00    +0.248 C 
ATOM     34  H   UNL     1     -11.263  -5.656   6.766  0.00  0.00    +0.155 HD
BRANCH  23  27
ATOM     27  C   UNL     1      -9.204  -7.061   6.035  0.00  0.00    +0.037 A 
ATOM     28  C   UNL     1     -10.163  -6.922   5.031  0.00  0.00    +0.014 A 
ATOM     29  C   UNL     1      -7.987  -7.682   5.755  0.00  0.00    +0.014 A 
ATOM     30  C   UNL     1      -9.904  -7.403   3.748  0.00  0.00    +0.019 A 
ATOM     31  C   UNL     1      -7.728  -8.163   4.471  0.00  0.00    +0.019 A 
ATOM     32  C   UNL     1      -8.687  -8.024   3.468  0.00  0.00    +0.052 A 
BRANCH  32  33
ATOM      7  N   UNL     1      -8.207  -8.917   1.085  0.00  0.00    -0.191 NA
ATOM     33  C   UNL     1      -8.422  -8.517   2.153  0.00  0.00    +0.099 C 
ENDBRANCH  32  33
ENDBRANCH  23  27
ENDBRANCH  18   6
TORSDOF 4
ENDMDL
MODEL 3
REMARK VINA RESULT:      -6.9     27.958     31.518
REMARK  Name = 40480283
REMARK  4 active torsions:
REMARK  status: ('A' for Active; 'I' for Inactive)
REMARK    1  A    between atoms: N_6  and  C_18
REMARK    2  A    between atoms: C_17  and  C_20
REMARK    3  A    between atoms: C_23  and  C_27
REMARK    4  A    between atoms: C_32  and  C_33
REMARK                            x       y       z     vdW  Elec       q    Type
REMARK                         _______ _______ _______ _____ _____    ______ ____
ROOT
ATOM      1  O   UNL     1      -6.684  -9.996  14.491  0.00  0.00    -0.266 OA
ATOM      2  O   UNL     1      -4.752 -14.392  12.566  0.00  0.00    -0.270 OA
ATOM      4  N   UNL     1      -2.949 -13.054  13.229  0.00  0.00    -0.297 N 
ATOM      5  N   UNL     1      -4.415 -10.550  14.511  0.00  0.00    -0.310 N 
ATOM      8  C   UNL     1      -3.011 -10.717  12.374  0.00  0.00    +0.027 C 
ATOM      9  C   UNL     1      -1.979 -11.194  14.558  0.00  0.00    +0.054 C 
ATOM     10  C   UNL     1      -1.841 -10.361  13.285  0.00  0.00    +0.018 C 
ATOM     11  C   UNL     1      -2.986 -12.218  12.029  0.00  0.00    +0.113 C 
ATOM     12  C   UNL     1      -4.317 -10.305  13.066  0.00  0.00    +0.130 C 
ATOM     13  C   UNL     1      -1.908 -12.693  14.206  0.00  0.00    +0.117 C 
ATOM     14  C   UNL     1      -3.288 -10.896  15.265  0.00  0.00    +0.027 A 
ATOM     15  C   UNL     1      -3.375 -11.000  16.602  0.00  0.00    +0.024 A 
ATOM     16  C   UNL     1      -5.669 -10.319  15.110  0.00  0.00    +0.273 A 
ATOM     17  C   UNL     1      -3.879 -14.085  13.378  0.00  0.00    +0.247 C 
ATOM     18  C   UNL     1      -5.731 -10.473  16.598  0.00  0.00    +0.099 A 
ATOM     19  C   UNL     1      -4.623 -10.786  17.278  0.00  0.00    +0.030 A 
ENDROOT
BRANCH  17  20
ATOM     20  C   UNL     1      -3.840 -14.872  14.615  0.00  0.00    +0.037 A 
ATOM     21  C   UNL     1      -3.002 -15.982  14.711  0.00  0.00    +0.013 A 
ATOM     22  C   UNL     1      -4.643 -14.509  15.697  0.00  0.00    +0.013 A 
ATOM     24  C   UNL     1      -2.965 -16.729  15.888  0.00  0.00    +0.001 A 
ATOM     25  C   UNL     1      -4.607 -15.256  16.874  0.00  0.00    +0.001 A 
ATOM     26  C   UNL     1      -3.768 -16.367  16.969  0.00  0.00    +0.000 A 
ENDBRANCH  17  20
BRANCH  18   6
ATOM      3  O   UNL     1      -7.498 -12.510  17.533  0.00  0.00    -0.270 OA
ATOM      6  N   UNL     1      -6.931 -10.277  17.213  0.00  0.00    -0.277 N 
ATOM     23  C   UNL     1      -7.748 -11.312  17.646  0.00  0.00    +0.248 C 
ATOM     34  H   UNL     1      -7.274  -9.322  17.201  0.00  0.00    +0.155 HD
BRANCH  23  27
ATOM     27  C   UNL     1      -9.009 -10.902  18.316  0.00  0.00    +0.037 A 
ATOM     28  C   UNL     1      -9.791  -9.884  17.769  0.00  0.00    +0.014 A 
ATOM     29  C   UNL     1      -9.412 -11.535  19.492  0.00  0.00    +0.014 A 
ATOM     30  C   UNL     1     -10.975  -9.500  18.398  0.00  0.00    +0.019 A 
ATOM     31  C   UNL     1     -10.597 -11.151  20.120  0.00  0.00    +0.019 A 
ATOM     32  C   UNL     1     -11.378 -10.134  19.573  0.00  0.00    +0.052 A 
BRANCH  32  33
ATOM      7  N   UNL     1     -13.578  -9.422  20.739  0.00  0.00    -0.191 NA
ATOM     33  C   UNL     1     -12.592  -9.740  20.217  0.00  0.00    +0.099 C 
ENDBRANCH  32  33
ENDBRANCH  23  27
ENDBRANCH  18   6
TORSDOF 4
ENDMDL
MODEL 4
REMARK VINA RESULT:      -6.8     27.141     29.486
REMARK  Name = 40480283
REMARK  4 active torsions:
REMARK  status: ('A' for Active; 'I' for Inactive)
REMARK    1  A    between atoms: N_6  and  C_18
REMARK    2  A    between atoms: C_17  and  C_20
REMARK    3  A    between atoms: C_23  and  C_27
REMARK    4  A    between atoms: C_32  and  C_33
REMARK                            x       y       z     vdW  Elec       q    Type
REMARK                         _______ _______ _______ _____ _____    ______ ____
ROOT
ATOM      1  O   UNL     1     -12.793  11.268  20.278  0.00  0.00    -0.266 OA
ATOM      2  O   UNL     1     -13.897  12.492  15.374  0.00  0.00    -0.270 OA
ATOM      4  N   UNL     1     -11.597  12.797  15.682  0.00  0.00    -0.297 N 
ATOM      5  N   UNL     1     -11.189  11.816  18.671  0.00  0.00    -0.310 N 
ATOM      8  C   UNL     1     -10.980  14.165  17.668  0.00  0.00    +0.027 C 
ATOM      9  C   UNL     1      -9.479  12.369  16.905  0.00  0.00    +0.054 C 
ATOM     10  C   UNL     1      -9.516  13.792  17.461  0.00  0.00    +0.018 C 
ATOM     11  C   UNL     1     -11.745  14.098  16.333  0.00  0.00    +0.113 C 
ATOM     12  C   UNL     1     -11.582  13.231  18.726  0.00  0.00    +0.130 C 
ATOM     13  C   UNL     1     -10.209  12.324  15.548  0.00  0.00    +0.117 C 
ATOM     14  C   UNL     1     -10.126  11.391  17.867  0.00  0.00    +0.027 A 
ATOM     15  C   UNL     1      -9.707  10.115  17.920  0.00  0.00    +0.024 A 
ATOM     16  C   UNL     1     -11.864  10.936  19.539  0.00  0.00    +0.273 A 
ATOM     17  C   UNL     1     -12.734  12.103  15.265  0.00  0.00    +0.247 C 
ATOM     18  C   UNL     1     -11.387   9.517  19.548  0.00  0.00    +0.099 A 
ATOM     19  C   UNL     1     -10.353   9.162  18.777  0.00  0.00    +0.030 A 
ENDROOT
BRANCH  17  20
ATOM     20  C   UNL     1     -12.548  10.781  14.658  0.00  0.00    +0.037 A 
ATOM     21  C   UNL     1     -12.403  10.660  13.276  0.00  0.00    +0.013 A 
ATOM     22  C   UNL     1     -12.515   9.642  15.464  0.00  0.00    +0.013 A 
ATOM     24  C   UNL     1     -12.226   9.402  12.700  0.00  0.00    +0.001 A 
ATOM     25  C   UNL     1     -12.338   8.384  14.888  0.00  0.00    +0.001 A 
ATOM     26  C   UNL     1     -12.193   8.265  13.505  0.00  0.00    +0.000 A 
ENDBRANCH  17  20
BRANCH  18   6
ATOM      3  O   UNL     1     -13.448   7.703  18.770  0.00  0.00    -0.270 OA
ATOM      6  N   UNL     1     -12.027   8.631  20.361  0.00  0.00    -0.277 N 
ATOM     23  C   UNL     1     -13.025   7.771  19.922  0.00  0.00    +0.248 C 
ATOM     34  H   UNL     1     -11.840   8.738  21.353  0.00  0.00    +0.155 HD
BRANCH  23  27
ATOM     27  C   UNL     1     -13.590   6.860  20.950  0.00  0.00    +0.037 A 
ATOM     28  C   UNL     1     -12.767   5.932  21.589  0.00  0.00    +0.014 A 
ATOM     29  C   UNL     1     -14.944   6.933  21.277  0.00  0.00    +0.014 A 
ATOM     30  C   UNL     1     -13.298   5.078  22.555  0.00  0.00    +0.019 A 
ATOM     31  C   UNL     1     -15.475   6.078  22.244  0.00  0.00    +0.019 A 
ATOM     32  C   UNL     1     -14.652   5.151  22.882  0.00  0.00    +0.052 A 
BRANCH  32  33
ATOM      7  N   UNL     1     -15.638   3.565  24.676  0.00  0.00    -0.191 NA
ATOM     33  C   UNL     1     -15.196   4.275  23.872  0.00  0.00    +0.099 C 
ENDBRANCH  32  33
ENDBRANCH  23  27
ENDBRANCH  18   6
TORSDOF 4
ENDMDL
MODEL 5
REMARK VINA RESULT:      -6.8     13.952     15.920
REMARK  Name = 40480283
REMARK  4 active torsions:
REMARK  status: ('A' for Active; 'I' for Inactive)
REMARK    1  A    between atoms: N_6  and  C_18
REMARK    2  A    between atoms: C_17  and  C_20
REMARK    3  A    between atoms: C_23  and  C_27
REMARK    4  A    between atoms: C_32  and  C_33
REMARK                            x       y       z     vdW  Elec       q    Type
REMARK                         _______ _______ _______ _____ _____    ______ ____
ROOT
ATOM      1  O   UNL     1      13.901   6.355   7.334  0.00  0.00    -0.266 OA
ATOM      2  O   UNL     1      10.365   4.886   3.854  0.00  0.00    -0.270 OA
ATOM      4  N   UNL     1       9.398   6.543   5.194  0.00  0.00    -0.297 N 
ATOM      5  N   UNL     1      11.810   7.366   7.083  0.00  0.00    -0.310 N 
ATOM      8  C   UNL     1       9.616   6.167   7.645  0.00  0.00    +0.027 C 
ATOM      9  C   UNL     1       9.565   8.464   6.759  0.00  0.00    +0.054 C 
ATOM     10  C   UNL     1       9.079   7.572   7.901  0.00  0.00    +0.018 C 
ATOM     11  C   UNL     1       9.098   5.631   6.297  0.00  0.00    +0.113 C 
ATOM     12  C   UNL     1      11.149   6.207   7.699  0.00  0.00    +0.130 C 
ATOM     13  C   UNL     1       9.004   7.944   5.421  0.00  0.00    +0.117 C 
ATOM     14  C   UNL     1      11.080   8.497   6.700  0.00  0.00    +0.027 A 
ATOM     15  C   UNL     1      11.717   9.590   6.247  0.00  0.00    +0.024 A 
ATOM     16  C   UNL     1      13.215   7.321   6.993  0.00  0.00    +0.273 A 
ATOM     17  C   UNL     1      10.033   6.054   4.050  0.00  0.00    +0.247 C 
ATOM     18  C   UNL     1      13.885   8.548   6.457  0.00  0.00    +0.099 A 
ATOM     19  C   UNL     1      13.147   9.613   6.123  0.00  0.00    +0.030 A 
ENDROOT
BRANCH  17  20
ATOM     20  C   UNL     1      10.359   7.008   2.985  0.00  0.00    +0.037 A 
ATOM     21  C   UNL     1      11.576   7.688   3.004  0.00  0.00    +0.013 A 
ATOM     22  C   UNL     1       9.451   7.232   1.950  0.00  0.00    +0.013 A 
ATOM     24  C   UNL     1      11.886   8.594   1.990  0.00  0.00    +0.001 A 
ATOM     25  C   UNL     1       9.761   8.139   0.935  0.00  0.00    +0.001 A 
ATOM     26  C   UNL     1      10.978   8.820   0.956  0.00  0.00    +0.000 A 
ENDBRANCH  17  20
BRANCH  18   6
ATOM      3  O   UNL     1      15.360   8.161   4.045  0.00  0.00    -0.270 OA
ATOM      6  N   UNL     1      15.242   8.537   6.338  0.00  0.00    -0.277 N 
ATOM     23  C   UNL     1      15.903   8.343   5.132  0.00  0.00    +0.248 C 
ATOM     34  H   UNL     1      15.755   8.525   7.213  0.00  0.00    +0.155 HD
BRANCH  23  27
ATOM     27  C   UNL     1      17.387   8.386   5.196  0.00  0.00    +0.037 A 
ATOM     28  C   UNL     1      18.024   8.748   6.383  0.00  0.00    +0.014 A 
ATOM     29  C   UNL     1      18.143   8.064   4.069  0.00  0.00    +0.014 A 
ATOM     30  C   UNL     1      19.417   8.786   6.442  0.00  0.00    +0.019 A 
ATOM     31  C   UNL     1      19.536   8.102   4.128  0.00  0.00    +0.019 A 
ATOM     32  C   UNL     1      20.173   8.464   5.315  0.00  0.00    +0.052 A 
BRANCH  32  33
ATOM      7  N   UNL     1      22.759   8.537   5.425  0.00  0.00    -0.191 NA
ATOM     33  C   UNL     1      21.600   8.504   5.376  0.00  0.00    +0.099 C 
ENDBRANCH  32  33
ENDBRANCH  23  27
ENDBRANCH  18   6
TORSDOF 4
ENDMDL
MODEL 6
REMARK VINA RESULT:      -6.8     13.202     15.085
REMARK  Name = 40480283
REMARK  4 active torsions:
REMARK  status: ('A' for Active; 'I' for Inactive)
REMARK    1  A    between atoms: N_6  and  C_18
REMARK    2  A    between atoms: C_17  and  C_20
REMARK    3  A    between atoms: C_23  and  C_27
REMARK    4  A    between atoms: C_32  and  C_33
REMARK                            x       y       z     vdW  Elec       q    Type
REMARK                         _______ _______ _______ _____ _____    ______ ____
ROOT
ATOM      1  O   UNL     1      12.703   7.556   3.561  0.00  0.00    -0.266 OA
ATOM      2  O   UNL     1       9.289  11.071   5.220  0.00  0.00    -0.270 OA
ATOM      4  N   UNL     1       8.656   8.996   6.098  0.00  0.00    -0.297 N 
ATOM      5  N   UNL     1      10.988   7.103   5.081  0.00  0.00    -0.310 N 
ATOM      8  C   UNL     1       8.511   7.155   4.430  0.00  0.00    +0.027 C 
ATOM      9  C   UNL     1       9.157   6.654   6.752  0.00  0.00    +0.054 C 
ATOM     10  C   UNL     1       8.338   6.150   5.564  0.00  0.00    +0.018 C 
ATOM     11  C   UNL     1       8.013   8.546   4.863  0.00  0.00    +0.113 C 
ATOM     12  C   UNL     1       9.986   7.174   4.009  0.00  0.00    +0.130 C 
ATOM     13  C   UNL     1       8.622   8.027   7.205  0.00  0.00    +0.117 C 
ATOM     14  C   UNL     1      10.625   6.772   6.391  0.00  0.00    +0.027 A 
ATOM     15  C   UNL     1      11.570   6.597   7.330  0.00  0.00    +0.024 A 
ATOM     16  C   UNL     1      12.334   7.281   4.703  0.00  0.00    +0.273 A 
ATOM     17  C   UNL     1       9.256  10.256   6.141  0.00  0.00    +0.247 C 
ATOM     18  C   UNL     1      13.354   7.106   5.785  0.00  0.00    +0.099 A 
ATOM     19  C   UNL     1      12.961   6.769   7.018  0.00  0.00    +0.030 A 
ENDROOT
BRANCH  17  20
ATOM     20  C   UNL     1       9.931  10.654   7.381  0.00  0.00    +0.037 A 
ATOM     21  C   UNL     1      11.311  10.497   7.508  0.00  0.00    +0.013 A 
ATOM     22  C   UNL     1       9.190  11.191   8.435  0.00  0.00    +0.013 A 
ATOM     24  C   UNL     1      11.951  10.877   8.687  0.00  0.00    +0.001 A 
ATOM     25  C   UNL     1       9.831  11.569   9.616  0.00  0.00    +0.001 A 
ATOM     26  C   UNL     1      11.212  11.412   9.741  0.00  0.00    +0.000 A 
ENDBRANCH  17  20
BRANCH  18   6
ATOM      3  O   UNL     1      14.919   9.423   6.354  0.00  0.00    -0.270 OA
ATOM      6  N   UNL     1      14.666   7.289   5.464  0.00  0.00    -0.277 N 
ATOM     23  C   UNL     1      15.375   8.443   5.769  0.00  0.00    +0.248 C 
ATOM     34  H   UNL     1      15.064   6.589   4.846  0.00  0.00    +0.155 HD
BRANCH  23  27
ATOM     27  C   UNL     1      16.803   8.450   5.359  0.00  0.00    +0.037 A 
ATOM     28  C   UNL     1      17.794   8.770   6.287  0.00  0.00    +0.014 A 
ATOM     29  C   UNL     1      17.152   8.135   4.046  0.00  0.00    +0.014 A 
ATOM     30  C   UNL     1      19.134   8.775   5.901  0.00  0.00    +0.019 A 
ATOM     31  C   UNL     1      18.493   8.140   3.660  0.00  0.00    +0.019 A 
ATOM     32  C   UNL     1      19.484   8.460   4.588  0.00  0.00    +0.052 A 
BRANCH  32  33
ATOM      7  N   UNL     1      21.973   8.470   3.874  0.00  0.00    -0.191 NA
ATOM     33  C   UNL     1      20.858   8.465   4.194  0.00  0.00    +0.099 C 
ENDBRANCH  32  33
ENDBRANCH  23  27
ENDBRANCH  18   6
TORSDOF 4
ENDMDL
MODEL 7
REMARK VINA RESULT:      -6.7     22.678     24.728
REMARK  Name = 40480283
REMARK  4 active torsions:
REMARK  status: ('A' for Active; 'I' for Inactive)
REMARK    1  A    between atoms: N_6  and  C_18
REMARK    2  A    between atoms: C_17  and  C_20
REMARK    3  A    between atoms: C_23  and  C_27
REMARK    4  A    between atoms: C_32  and  C_33
REMARK                            x       y       z     vdW  Elec       q    Type
REMARK                         _______ _______ _______ _____ _____    ______ ____
ROOT
ATOM      1  O   UNL     1       9.609  -9.382  32.049  0.00  0.00    -0.266 OA
ATOM      2  O   UNL     1       8.515  -9.113  37.098  0.00  0.00    -0.270 OA
ATOM      4  N   UNL     1       8.099  -7.006  36.168  0.00  0.00    -0.297 N 
ATOM      5  N   UNL     1       8.673  -7.511  33.090  0.00  0.00    -0.310 N 
ATOM      8  C   UNL     1       9.956  -6.086  34.789  0.00  0.00    +0.027 C 
ATOM      9  C   UNL     1       7.625  -5.525  34.232  0.00  0.00    +0.054 C 
ATOM     10  C   UNL     1       9.041  -4.959  34.322  0.00  0.00    +0.018 C 
ATOM     11  C   UNL     1       9.507  -6.607  36.167  0.00  0.00    +0.113 C 
ATOM     12  C   UNL     1       9.959  -7.193  33.727  0.00  0.00    +0.130 C 
ATOM     13  C   UNL     1       7.169  -6.003  35.625  0.00  0.00    +0.117 C 
ATOM     14  C   UNL     1       7.560  -6.680  33.250  0.00  0.00    +0.027 A 
ATOM     15  C   UNL     1       6.430  -6.925  32.566  0.00  0.00    +0.024 A 
ATOM     16  C   UNL     1       8.650  -8.631  32.235  0.00  0.00    +0.273 A 
ATOM     17  C   UNL     1       7.743  -8.270  36.644  0.00  0.00    +0.247 C 
ATOM     18  C   UNL     1       7.363  -8.887  31.513  0.00  0.00    +0.099 A 
ATOM     19  C   UNL     1       6.332  -8.052  31.682  0.00  0.00    +0.030 A 
ENDROOT
BRANCH  17  20
ATOM     20  C   UNL     1       6.328  -8.652  36.586  0.00  0.00    +0.037 A 
ATOM     21  C   UNL     1       5.508  -8.465  37.698  0.00  0.00    +0.013 A 
ATOM     22  C   UNL     1       5.803  -9.203  35.416  0.00  0.00    +0.013 A 
ATOM     24  C   UNL     1       4.162  -8.828  37.642  0.00  0.00    +0.001 A 
ATOM     25  C   UNL     1       4.457  -9.567  35.360  0.00  0.00    +0.001 A 
ATOM     26  C   UNL     1       3.637  -9.379  36.474  0.00  0.00    +0.000 A 
ENDBRANCH  17  20
BRANCH  18   6
ATOM      3  O   UNL     1       6.416 -11.483  32.227  0.00  0.00    -0.270 OA
ATOM      6  N   UNL     1       7.294  -9.971  30.691  0.00  0.00    -0.277 N 
ATOM     23  C   UNL     1       6.822 -11.212  31.099  0.00  0.00    +0.248 C 
ATOM     34  H   UNL     1       7.755  -9.866  29.793  0.00  0.00    +0.155 HD
BRANCH  23  27
ATOM     27  C   UNL     1       6.801 -12.268  30.054  0.00  0.00    +0.037 A 
ATOM     28  C   UNL     1       7.796 -12.304  29.076  0.00  0.00    +0.014 A 
ATOM     29  C   UNL     1       5.787 -13.226  30.052  0.00  0.00    +0.014 A 
ATOM     30  C   UNL     1       7.776 -13.296  28.097  0.00  0.00    +0.019 A 
ATOM     31  C   UNL     1       5.767 -14.220  29.072  0.00  0.00    +0.019 A 
ATOM     32  C   UNL     1       6.761 -14.254  28.095  0.00  0.00    +0.052 A 
BRANCH  32  33
ATOM      7  N   UNL     1       6.727 -16.097  26.277  0.00  0.00    -0.191 NA
ATOM     33  C   UNL     1       6.742 -15.272  27.091  0.00  0.00    +0.099 C 
ENDBRANCH  32  33
ENDBRANCH  23  27
ENDBRANCH  18   6
TORSDOF 4
ENDMDL
MODEL 8
REMARK VINA RESULT:      -6.6     13.458     17.231
REMARK  Name = 40480283
REMARK  4 active torsions:
REMARK  status: ('A' for Active; 'I' for Inactive)
REMARK    1  A    between atoms: N_6  and  C_18
REMARK    2  A    between atoms: C_17  and  C_20
REMARK    3  A    between atoms: C_23  and  C_27
REMARK    4  A    between atoms: C_32  and  C_33
REMARK                            x       y       z     vdW  Elec       q    Type
REMARK                         _______ _______ _______ _____ _____    ______ ____
ROOT
ATOM      1  O   UNL     1      17.968  -6.086  29.158  0.00  0.00    -0.266 OA
ATOM      2  O   UNL     1      20.154  -2.898  25.720  0.00  0.00    -0.270 OA
ATOM      4  N   UNL     1      20.037  -5.022  24.745  0.00  0.00    -0.297 N 
ATOM      5  N   UNL     1      18.518  -6.695  26.971  0.00  0.00    -0.310 N 
ATOM      8  C   UNL     1      20.939  -6.869  26.150  0.00  0.00    +0.027 C 
ATOM      9  C   UNL     1      19.083  -7.310  24.594  0.00  0.00    +0.054 C 
ATOM     10  C   UNL     1      20.380  -7.885  25.159  0.00  0.00    +0.018 C 
ATOM     11  C   UNL     1      21.218  -5.528  25.444  0.00  0.00    +0.113 C 
ATOM     12  C   UNL     1      19.948  -6.714  27.310  0.00  0.00    +0.130 C 
ATOM     13  C   UNL     1      19.381  -5.991  23.852  0.00  0.00    +0.117 C 
ATOM     14  C   UNL     1      18.072  -7.058  25.696  0.00  0.00    +0.027 A 
ATOM     15  C   UNL     1      16.755  -7.146  25.441  0.00  0.00    +0.024 A 
ATOM     16  C   UNL     1      17.623  -6.394  28.016  0.00  0.00    +0.273 A 
ATOM     17  C   UNL     1      19.611  -3.713  24.975  0.00  0.00    +0.247 C 
ATOM     18  C   UNL     1      16.165  -6.476  27.684  0.00  0.00    +0.099 A 
ATOM     19  C   UNL     1      15.785  -6.848  26.456  0.00  0.00    +0.030 A 
ENDROOT
BRANCH  17  20
ATOM     20  C   UNL     1      18.396  -3.255  24.291  0.00  0.00    +0.037 A 
ATOM     21  C   UNL     1      17.144  -3.485  24.862  0.00  0.00    +0.013 A 
ATOM     22  C   UNL     1      18.494  -2.589  23.069  0.00  0.00    +0.013 A 
ATOM     24  C   UNL     1      15.990  -3.049  24.211  0.00  0.00    +0.001 A 
ATOM     25  C   UNL     1      17.340  -2.154  22.418  0.00  0.00    +0.001 A 
ATOM     26  C   UNL     1      16.088  -2.384  22.989  0.00  0.00    +0.000 A 
ENDBRANCH  17  20
BRANCH  18   6
ATOM      3  O   UNL     1      14.815  -8.345  29.366  0.00  0.00    -0.270 OA
ATOM      6  N   UNL     1      15.266  -6.174  28.663  0.00  0.00    -0.277 N 
ATOM     23  C   UNL     1      14.641  -7.131  29.450  0.00  0.00    +0.248 C 
ATOM     34  H   UNL     1      14.957  -5.208  28.685  0.00  0.00    +0.155 HD
BRANCH  23  27
ATOM     27  C   UNL     1      13.709  -6.609  30.482  0.00  0.00    +0.037 A 
ATOM     28  C   UNL     1      12.509  -7.273  30.739  0.00  0.00    +0.014 A 
ATOM     29  C   UNL     1      14.033  -5.454  31.194  0.00  0.00    +0.014 A 
ATOM     30  C   UNL     1      11.635  -6.783  31.709  0.00  0.00    +0.019 A 
ATOM     31  C   UNL     1      13.158  -4.963  32.164  0.00  0.00    +0.019 A 
ATOM     32  C   UNL     1      11.960  -5.628  32.421  0.00  0.00    +0.052 A 
BRANCH  32  33
ATOM      7  N   UNL     1      10.335  -4.719  34.221  0.00  0.00    -0.191 NA
ATOM     33  C   UNL     1      11.063  -5.126  33.415  0.00  0.00    +0.099 C 
ENDBRANCH  32  33
ENDBRANCH  23  27
ENDBRANCH  18   6
TORSDOF 4
ENDMDL
MODEL 9
REMARK VINA RESULT:      -6.4     28.259     31.624
REMARK  Name = 40480283
REMARK  4 active torsions:
REMARK  status: ('A' for Active; 'I' for Inactive)
REMARK    1  A    between atoms: N_6  and  C_18
REMARK    2  A    between atoms: C_17  and  C_20
REMARK    3  A    between atoms: C_23  and  C_27
REMARK    4  A    between atoms: C_32  and  C_33
REMARK                            x       y       z     vdW  Elec       q    Type
REMARK                         _______ _______ _______ _____ _____    ______ ____
ROOT
ATOM      1  O   UNL     1      -7.724  -8.927  17.133  0.00  0.00    -0.266 OA
ATOM      2  O   UNL     1      -2.751  -9.743  15.963  0.00  0.00    -0.270 OA
ATOM      4  N   UNL     1      -3.753 -11.831  16.301  0.00  0.00    -0.297 N 
ATOM      5  N   UNL     1      -6.782 -11.041  16.815  0.00  0.00    -0.310 N 
ATOM      8  C   UNL     1      -5.049 -12.039  18.416  0.00  0.00    +0.027 C 
ATOM      9  C   UNL     1      -5.748 -13.305  16.424  0.00  0.00    +0.054 C 
ATOM     10  C   UNL     1      -5.593 -13.382  17.942  0.00  0.00    +0.018 C 
ATOM     11  C   UNL     1      -3.686 -11.750  17.760  0.00  0.00    +0.113 C 
ATOM     12  C   UNL     1      -6.082 -10.949  18.104  0.00  0.00    +0.130 C 
ATOM     13  C   UNL     1      -4.371 -13.059  15.775  0.00  0.00    +0.117 C 
ATOM     14  C   UNL     1      -6.704 -12.195  16.029  0.00  0.00    +0.027 A 
ATOM     15  C   UNL     1      -7.444 -12.303  14.912  0.00  0.00    +0.024 A 
ATOM     16  C   UNL     1      -7.609  -9.956  16.465  0.00  0.00    +0.273 A 
ATOM     17  C   UNL     1      -3.268 -10.772  15.530  0.00  0.00    +0.247 C 
ATOM     18  C   UNL     1      -8.395 -10.103  15.199  0.00  0.00    +0.099 A 
ATOM     19  C   UNL     1      -8.304 -11.234  14.491  0.00  0.00    +0.030 A 
ENDROOT
BRANCH  17  20
ATOM     20  C   UNL     1      -3.395 -10.869  14.072  0.00  0.00    +0.037 A 
ATOM     21  C   UNL     1      -2.330 -11.344  13.308  0.00  0.00    +0.013 A 
ATOM     22  C   UNL     1      -4.584 -10.486  13.450  0.00  0.00    +0.013 A 
ATOM     24  C   UNL     1      -2.452 -11.436  11.921  0.00  0.00    +0.001 A 
ATOM     25  C   UNL     1      -4.706 -10.578  12.063  0.00  0.00    +0.001 A 
ATOM     26  C   UNL     1      -3.639 -11.053  11.299  0.00  0.00    +0.000 A 
ENDBRANCH  17  20
BRANCH  18   6
ATOM      3  O   UNL     1     -11.168  -9.801  15.803  0.00  0.00    -0.270 OA
ATOM      6  N   UNL     1      -9.194  -9.067  14.816  0.00  0.00    -0.277 N 
ATOM     23  C   UNL     1     -10.540  -8.977  15.142  0.00  0.00    +0.248 C 
ATOM     34  H   UNL     1      -8.785  -8.431  14.140  0.00  0.00    +0.155 HD
BRANCH  23  27
ATOM     27  C   UNL     1     -11.242  -7.762  14.654  0.00  0.00    +0.037 A 
ATOM     28  C   UNL     1     -11.187  -6.580  15.392  0.00  0.00    +0.014 A 
ATOM     29  C   UNL     1     -11.955  -7.803  13.456  0.00  0.00    +0.014 A 
ATOM     30  C   UNL     1     -11.845  -5.440  14.932  0.00  0.00    +0.019 A 
ATOM     31  C   UNL     1     -12.613  -6.662  12.996  0.00  0.00    +0.019 A 
ATOM     32  C   UNL     1     -12.558  -5.481  13.734  0.00  0.00    +0.052 A 
BRANCH  32  33
ATOM      7  N   UNL     1     -13.780  -3.363  12.880  0.00  0.00    -0.191 NA
ATOM     33  C   UNL     1     -13.232  -4.312  13.263  0.00  0.00    +0.099 C 
ENDBRANCH  32  33
ENDBRANCH  23  27
ENDBRANCH  18   6
TORSDOF 4
ENDMDL
MODEL 10
REMARK VINA RESULT:      -6.2     22.203     24.178
REMARK  Name = 40480283
REMARK  4 active torsions:
REMARK  status: ('A' for Active; 'I' for Inactive)
REMARK    1  A    between atoms: N_6  and  C_18
REMARK    2  A    between atoms: C_17  and  C_20
REMARK    3  A    between atoms: C_23  and  C_27
REMARK    4  A    between atoms: C_32  and  C_33
REMARK                            x       y       z     vdW  Elec       q    Type
REMARK                         _______ _______ _______ _____ _____    ______ ____
ROOT
ATOM      1  O   UNL     1       9.155  -8.401  35.631  0.00  0.00    -0.266 OA
ATOM      2  O   UNL     1       7.316 -13.177  34.873  0.00  0.00    -0.270 OA
ATOM      4  N   UNL     1       5.484 -11.743  35.128  0.00  0.00    -0.297 N 
ATOM      5  N   UNL     1       6.887  -8.910  35.392  0.00  0.00    -0.310 N 
ATOM      8  C   UNL     1       5.582 -10.267  37.130  0.00  0.00    +0.027 C 
ATOM      9  C   UNL     1       4.453  -9.485  35.087  0.00  0.00    +0.054 C 
ATOM     10  C   UNL     1       4.371  -9.498  36.613  0.00  0.00    +0.018 C 
ATOM     11  C   UNL     1       5.575 -11.709  36.588  0.00  0.00    +0.113 C 
ATOM     12  C   UNL     1       6.855  -9.508  36.734  0.00  0.00    +0.130 C 
ATOM     13  C   UNL     1       4.400 -10.930  34.553  0.00  0.00    +0.117 C 
ATOM     14  C   UNL     1       5.728  -8.812  34.615  0.00  0.00    +0.027 A 
ATOM     15  C   UNL     1       5.755  -8.158  33.441  0.00  0.00    +0.024 A 
ATOM     16  C   UNL     1       8.113  -8.355  34.975  0.00  0.00    +0.273 A 
ATOM     17  C   UNL     1       6.408 -12.496  34.399  0.00  0.00    +0.247 C 
ATOM     18  C   UNL     1       8.107  -7.659  33.649  0.00  0.00    +0.099 A 
ATOM     19  C   UNL     1       6.970  -7.573  32.950  0.00  0.00    +0.030 A 
ENDROOT
BRANCH  17  20
ATOM     20  C   UNL     1       6.314 -12.469  32.936  0.00  0.00    +0.037 A 
ATOM     21  C   UNL     1       5.562 -13.434  32.266  0.00  0.00    +0.013 A 
ATOM     22  C   UNL     1       6.977 -11.476  32.214  0.00  0.00    +0.013 A 
ATOM     24  C   UNL     1       5.473 -13.407  30.874  0.00  0.00    +0.001 A 
ATOM     25  C   UNL     1       6.889 -11.450  30.822  0.00  0.00    +0.001 A 
ATOM     26  C   UNL     1       6.136 -12.416  30.152  0.00  0.00    +0.000 A 
ENDBRANCH  17  20
BRANCH  18   6
ATOM      3  O   UNL     1      10.026  -8.961  31.984  0.00  0.00    -0.270 OA
ATOM      6  N   UNL     1       9.278  -7.125  33.201  0.00  0.00    -0.277 N 
ATOM     23  C   UNL     1      10.173  -7.810  32.391  0.00  0.00    +0.248 C 
ATOM     34  H   UNL     1       9.540  -6.239  33.621  0.00  0.00    +0.155 HD
BRANCH  23  27
ATOM     27  C   UNL     1      11.386  -7.054  31.985  0.00  0.00    +0.037 A 
ATOM     28  C   UNL     1      11.815  -5.964  32.742  0.00  0.00    +0.014 A 
ATOM     29  C   UNL     1      12.096  -7.435  30.846  0.00  0.00    +0.014 A 
ATOM     30  C   UNL     1      12.954  -5.256  32.361  0.00  0.00    +0.019 A 
ATOM     31  C   UNL     1      13.236  -6.727  30.465  0.00  0.00    +0.019 A 
ATOM     32  C   UNL     1      13.665  -5.637  31.223  0.00  0.00    +0.052 A 
BRANCH  32  33
ATOM      7  N   UNL     1      15.780  -4.321  30.516  0.00  0.00    -0.191 NA
ATOM     33  C   UNL     1      14.833  -4.911  30.833  0.00  0.00    +0.099 C 
ENDBRANCH  32  33
ENDBRANCH  23  27
ENDBRANCH  18   6
TORSDOF 4
ENDMDL
