MODEL 1
REMARK VINA RESULT:      -7.9      0.000      0.000
REMARK  Name = 25338516
REMARK  7 active torsions:
REMARK  status: ('A' for Active; 'I' for Inactive)
REMARK    1  A    between atoms: O_3  and  C_16
REMARK    2  A    between atoms: O_3  and  C_23
REMARK    3  A    between atoms: N_4  and  C_13
REMARK    4  A    between atoms: N_5  and  C_8
REMARK    5  A    between atoms: C_9  and  C_12
REMARK    6  A    between atoms: C_14  and  C_16
REMARK    7  A    between atoms: C_15  and  C_17
REMARK                            x       y       z     vdW  Elec       q    Type
REMARK                         _______ _______ _______ _____ _____    ______ ____
ROOT
ATOM      4  N   UNL     1      11.527   7.144  21.658  0.00  0.00    -0.293 NA
ATOM      8  C   UNL     1      10.859   9.371  21.831  0.00  0.00    +0.089 C 
ATOM      9  C   UNL     1      11.798   7.698  20.318  0.00  0.00    +0.147 C 
ATOM     10  C   UNL     1      11.505   9.205  20.455  0.00  0.00    +0.052 C 
ATOM     11  C   UNL     1      10.445   7.960  22.219  0.00  0.00    +0.107 C 
ATOM     13  C   UNL     1      11.184   5.727  21.636  0.00  0.00    +0.105 C 
ENDROOT
BRANCH   9  12
ATOM      1  O   UNL     1      13.430   7.638  18.501  0.00  0.00    -0.336 OA
ATOM      6  N   UNL     1      14.246   6.993  20.486  0.00  0.00    -0.190 NA
ATOM      7  N   UNL     1      14.777   7.317  18.283  0.00  0.00    -0.056 NA
ATOM     12  C   UNL     1      13.201   7.420  19.823  0.00  0.00    +0.245 A 
ATOM     15  C   UNL     1      15.188   6.945  19.499  0.00  0.00    +0.202 A 
BRANCH  15  17
ATOM     17  C   UNL     1      16.533   6.522  19.763  0.00  0.00    +0.023 A 
ATOM     18  C   UNL     1      17.187   6.958  20.915  0.00  0.00    +0.020 A 
ATOM     19  C   UNL     1      17.184   5.677  18.870  0.00  0.00    +0.012 A 
ATOM     20  C   UNL     1      18.504   6.553  21.188  0.00  0.00    -0.017 A 
ATOM     21  C   UNL     1      19.166   5.693  20.280  0.00  0.00    -0.018 A 
ATOM     22  C   UNL     1      18.492   5.264  19.126  0.00  0.00    +0.009 A 
ATOM     24  C   UNL     1      19.178   6.982  22.343  0.00  0.00    +0.008 A 
ATOM     25  C   UNL     1      20.483   5.288  20.553  0.00  0.00    +0.008 A 
ATOM     26  C   UNL     1      20.487   6.569  22.599  0.00  0.00    +0.001 A 
ATOM     27  C   UNL     1      21.137   5.724  21.705  0.00  0.00    +0.001 A 
ENDBRANCH  15  17
ENDBRANCH   9  12
BRANCH   8   5
ATOM      2  O   UNL     1      11.466  12.168  22.245  0.00  0.00    -0.272 OA
ATOM      5  N   UNL     1      11.784   9.930  22.789  0.00  0.00    -0.308 N 
ATOM     14  C   UNL     1      12.008  11.292  22.913  0.00  0.00    +0.251 C 
ATOM     33  H   UNL     1      12.330   9.287  23.354  0.00  0.00    +0.149 HD
BRANCH  14  16
ATOM     16  C   UNL     1      13.023  11.596  23.994  0.00  0.00    +0.324 C 
BRANCH  16   3
ATOM      3  O   UNL     1      14.203  10.848  23.795  0.00  0.00    -0.483 OA
BRANCH   3  23
ATOM     23  C   UNL     1      14.954  11.144  22.681  0.00  0.00    +0.121 A 
ATOM     28  C   UNL     1      15.377  12.454  22.453  0.00  0.00    +0.045 A 
ATOM     29  C   UNL     1      15.293  10.135  21.780  0.00  0.00    +0.045 A 
ATOM     30  C   UNL     1      16.139  12.754  21.325  0.00  0.00    +0.004 A 
ATOM     31  C   UNL     1      16.055  10.436  20.651  0.00  0.00    +0.004 A 
ATOM     32  C   UNL     1      16.478  11.745  20.424  0.00  0.00    +0.000 A 
ENDBRANCH   3  23
ENDBRANCH  16   3
ENDBRANCH  14  16
ENDBRANCH   8   5
TORSDOF 6
ENDMDL
MODEL 2
REMARK VINA RESULT:      -7.6     27.995     31.909
REMARK  Name = 25338516
REMARK  7 active torsions:
REMARK  status: ('A' for Active; 'I' for Inactive)
REMARK    1  A    between atoms: O_3  and  C_16
REMARK    2  A    between atoms: O_3  and  C_23
REMARK    3  A    between atoms: N_4  and  C_13
REMARK    4  A    between atoms: N_5  and  C_8
REMARK    5  A    between atoms: C_9  and  C_12
REMARK    6  A    between atoms: C_14  and  C_16
REMARK    7  A    between atoms: C_15  and  C_17
REMARK                            x       y       z     vdW  Elec       q    Type
REMARK                         _______ _______ _______ _____ _____    ______ ____
ROOT
ATOM      4  N   UNL     1     -17.955   2.578  26.676  0.00  0.00    -0.293 NA
ATOM      8  C   UNL     1     -16.845   1.894  24.743  0.00  0.00    +0.089 C 
ATOM      9  C   UNL     1     -17.330   1.299  27.063  0.00  0.00    +0.147 C 
ATOM     10  C   UNL     1     -16.468   0.905  25.847  0.00  0.00    +0.052 C 
ATOM     11  C   UNL     1     -18.152   2.507  25.225  0.00  0.00    +0.107 C 
ATOM     13  C   UNL     1     -19.202   2.844  27.382  0.00  0.00    +0.105 C 
ENDROOT
BRANCH   9  12
ATOM      1  O   UNL     1     -15.727   0.321  28.626  0.00  0.00    -0.336 OA
ATOM      6  N   UNL     1     -16.486   2.338  29.237  0.00  0.00    -0.190 NA
ATOM      7  N   UNL     1     -15.095   0.624  29.839  0.00  0.00    -0.056 NA
ATOM     12  C   UNL     1     -16.527   1.382  28.344  0.00  0.00    +0.245 A 
ATOM     15  C   UNL     1     -15.595   1.827  30.136  0.00  0.00    +0.202 A 
BRANCH  15  17
ATOM     17  C   UNL     1     -15.223   2.547  31.320  0.00  0.00    +0.023 A 
ATOM     18  C   UNL     1     -15.074   3.933  31.274  0.00  0.00    +0.020 A 
ATOM     19  C   UNL     1     -15.012   1.862  32.512  0.00  0.00    +0.012 A 
ATOM     20  C   UNL     1     -14.712   4.653  32.425  0.00  0.00    -0.017 A 
ATOM     21  C   UNL     1     -14.497   3.956  33.638  0.00  0.00    -0.018 A 
ATOM     22  C   UNL     1     -14.651   2.561  33.664  0.00  0.00    +0.009 A 
ATOM     24  C   UNL     1     -14.557   6.048  32.397  0.00  0.00    +0.008 A 
ATOM     25  C   UNL     1     -14.134   4.676  34.788  0.00  0.00    +0.008 A 
ATOM     26  C   UNL     1     -14.196   6.748  33.550  0.00  0.00    +0.001 A 
ATOM     27  C   UNL     1     -13.985   6.062  34.743  0.00  0.00    +0.001 A 
ENDBRANCH  15  17
ENDBRANCH   9  12
BRANCH   8   5
ATOM      2  O   UNL     1     -16.534   3.672  22.484  0.00  0.00    -0.272 OA
ATOM      5  N   UNL     1     -15.828   2.902  24.561  0.00  0.00    -0.308 N 
ATOM     14  C   UNL     1     -15.761   3.710  23.437  0.00  0.00    +0.251 C 
ATOM     33  H   UNL     1     -15.101   2.979  25.267  0.00  0.00    +0.149 HD
BRANCH  14  16
ATOM     16  C   UNL     1     -14.599   4.677  23.510  0.00  0.00    +0.324 C 
BRANCH  16   3
ATOM      3  O   UNL     1     -13.920   4.735  22.274  0.00  0.00    -0.483 OA
BRANCH   3  23
ATOM     23  C   UNL     1     -13.455   5.965  21.870  0.00  0.00    +0.121 A 
ATOM     28  C   UNL     1     -12.211   6.071  21.250  0.00  0.00    +0.045 A 
ATOM     29  C   UNL     1     -14.229   7.107  22.081  0.00  0.00    +0.045 A 
ATOM     30  C   UNL     1     -11.739   7.318  20.840  0.00  0.00    +0.004 A 
ATOM     31  C   UNL     1     -13.757   8.353  21.671  0.00  0.00    +0.004 A 
ATOM     32  C   UNL     1     -12.513   8.459  21.051  0.00  0.00    +0.000 A 
ENDBRANCH   3  23
ENDBRANCH  16   3
ENDBRANCH  14  16
ENDBRANCH   8   5
TORSDOF 6
ENDMDL
MODEL 3
REMARK VINA RESULT:      -7.3     27.362     29.742
REMARK  Name = 25338516
REMARK  7 active torsions:
REMARK  status: ('A' for Active; 'I' for Inactive)
REMARK    1  A    between atoms: O_3  and  C_16
REMARK    2  A    between atoms: O_3  and  C_23
REMARK    3  A    between atoms: N_4  and  C_13
REMARK    4  A    between atoms: N_5  and  C_8
REMARK    5  A    between atoms: C_9  and  C_12
REMARK    6  A    between atoms: C_14  and  C_16
REMARK    7  A    between atoms: C_15  and  C_17
REMARK                            x       y       z     vdW  Elec       q    Type
REMARK                         _______ _______ _______ _____ _____    ______ ____
ROOT
ATOM      4  N   UNL     1      -4.432 -11.447   9.787  0.00  0.00    -0.293 NA
ATOM      8  C   UNL     1      -4.876  -9.427   8.711  0.00  0.00    +0.089 C 
ATOM      9  C   UNL     1      -3.337 -10.564  10.232  0.00  0.00    +0.147 C 
ATOM     10  C   UNL     1      -3.696  -9.181   9.652  0.00  0.00    +0.052 C 
ATOM     11  C   UNL     1      -4.861 -10.931   8.483  0.00  0.00    +0.107 C 
ATOM     13  C   UNL     1      -4.044 -12.851   9.716  0.00  0.00    +0.105 C 
ENDROOT
BRANCH   9  12
ATOM      1  O   UNL     1      -1.888 -10.357  12.188  0.00  0.00    -0.336 OA
ATOM      6  N   UNL     1      -4.052 -10.662  12.681  0.00  0.00    -0.190 NA
ATOM      7  N   UNL     1      -1.971 -10.367  13.587  0.00  0.00    -0.056 NA
ATOM     12  C   UNL     1      -3.156 -10.536  11.735  0.00  0.00    +0.245 A 
ATOM     15  C   UNL     1      -3.277 -10.552  13.800  0.00  0.00    +0.202 A 
BRANCH  15  17
ATOM     17  C   UNL     1      -3.842 -10.630  15.116  0.00  0.00    +0.023 A 
ATOM     18  C   UNL     1      -5.157 -10.221  15.336  0.00  0.00    +0.020 A 
ATOM     19  C   UNL     1      -3.076 -11.113  16.173  0.00  0.00    +0.012 A 
ATOM     20  C   UNL     1      -5.724 -10.291  16.619  0.00  0.00    -0.017 A 
ATOM     21  C   UNL     1      -4.946 -10.783  17.694  0.00  0.00    -0.018 A 
ATOM     22  C   UNL     1      -3.624 -11.190  17.454  0.00  0.00    +0.009 A 
ATOM     24  C   UNL     1      -7.046  -9.884  16.859  0.00  0.00    +0.008 A 
ATOM     25  C   UNL     1      -5.513 -10.853  18.977  0.00  0.00    +0.008 A 
ATOM     26  C   UNL     1      -7.594  -9.960  18.140  0.00  0.00    +0.001 A 
ATOM     27  C   UNL     1      -6.828 -10.444  19.197  0.00  0.00    +0.001 A 
ENDBRANCH  15  17
ENDBRANCH   9  12
BRANCH   8   5
ATOM      2  O   UNL     1      -7.269  -8.600   7.314  0.00  0.00    -0.272 OA
ATOM      5  N   UNL     1      -6.123  -8.997   9.299  0.00  0.00    -0.308 N 
ATOM     14  C   UNL     1      -7.220  -8.617   8.541  0.00  0.00    +0.251 C 
ATOM     33  H   UNL     1      -6.172  -8.919  10.310  0.00  0.00    +0.149 HD
BRANCH  14  16
ATOM     16  C   UNL     1      -8.391  -8.216   9.413  0.00  0.00    +0.324 C 
BRANCH  16   3
ATOM      3  O   UNL     1      -9.484  -7.804   8.622  0.00  0.00    -0.483 OA
BRANCH   3  23
ATOM     23  C   UNL     1     -10.072  -6.602   8.940  0.00  0.00    +0.121 A 
ATOM     28  C   UNL     1      -9.484  -5.407   8.527  0.00  0.00    +0.045 A 
ATOM     29  C   UNL     1     -11.257  -6.579   9.676  0.00  0.00    +0.045 A 
ATOM     30  C   UNL     1     -10.081  -4.188   8.849  0.00  0.00    +0.004 A 
ATOM     31  C   UNL     1     -11.853  -5.360   9.998  0.00  0.00    +0.004 A 
ATOM     32  C   UNL     1     -11.265  -4.165   9.585  0.00  0.00    +0.000 A 
ENDBRANCH   3  23
ENDBRANCH  16   3
ENDBRANCH  14  16
ENDBRANCH   8   5
TORSDOF 6
ENDMDL
MODEL 4
REMARK VINA RESULT:      -6.8     27.358     29.830
REMARK  Name = 25338516
REMARK  7 active torsions:
REMARK  status: ('A' for Active; 'I' for Inactive)
REMARK    1  A    between atoms: O_3  and  C_16
REMARK    2  A    between atoms: O_3  and  C_23
REMARK    3  A    between atoms: N_4  and  C_13
REMARK    4  A    between atoms: N_5  and  C_8
REMARK    5  A    between atoms: C_9  and  C_12
REMARK    6  A    between atoms: C_14  and  C_16
REMARK    7  A    between atoms: C_15  and  C_17
REMARK                            x       y       z     vdW  Elec       q    Type
REMARK                         _______ _______ _______ _____ _____    ______ ____
ROOT
ATOM      4  N   UNL     1      -4.361 -11.392   9.833  0.00  0.00    -0.293 NA
ATOM      8  C   UNL     1      -4.902  -9.370   8.805  0.00  0.00    +0.089 C 
ATOM      9  C   UNL     1      -3.317 -10.465  10.309  0.00  0.00    +0.147 C 
ATOM     10  C   UNL     1      -3.743  -9.088   9.761  0.00  0.00    +0.052 C 
ATOM     11  C   UNL     1      -4.807 -10.865   8.539  0.00  0.00    +0.107 C 
ATOM     13  C   UNL     1      -3.901 -12.771   9.729  0.00  0.00    +0.105 C 
ENDROOT
BRANCH   9  12
ATOM      1  O   UNL     1      -1.883 -10.305  12.280  0.00  0.00    -0.336 OA
ATOM      6  N   UNL     1      -4.053 -10.603  12.749  0.00  0.00    -0.190 NA
ATOM      7  N   UNL     1      -1.978 -10.340  13.678  0.00  0.00    -0.056 NA
ATOM     12  C   UNL     1      -3.149 -10.466  11.813  0.00  0.00    +0.245 A 
ATOM     15  C   UNL     1      -3.287 -10.520  13.876  0.00  0.00    +0.202 A 
BRANCH  15  17
ATOM     17  C   UNL     1      -3.863 -10.617  15.187  0.00  0.00    +0.023 A 
ATOM     18  C   UNL     1      -5.181 -10.214  15.400  0.00  0.00    +0.020 A 
ATOM     19  C   UNL     1      -3.106 -11.114  16.243  0.00  0.00    +0.012 A 
ATOM     20  C   UNL     1      -5.760 -10.304  16.677  0.00  0.00    -0.017 A 
ATOM     21  C   UNL     1      -4.990 -10.810  17.752  0.00  0.00    -0.018 A 
ATOM     22  C   UNL     1      -3.665 -11.211  17.518  0.00  0.00    +0.009 A 
ATOM     24  C   UNL     1      -7.085  -9.903  16.911  0.00  0.00    +0.008 A 
ATOM     25  C   UNL     1      -5.569 -10.899  19.028  0.00  0.00    +0.008 A 
ATOM     26  C   UNL     1      -7.644  -9.999  18.186  0.00  0.00    +0.001 A 
ATOM     27  C   UNL     1      -6.886 -10.497  19.243  0.00  0.00    +0.001 A 
ENDBRANCH  15  17
ENDBRANCH   9  12
BRANCH   8   5
ATOM      2  O   UNL     1      -7.312  -8.589   7.410  0.00  0.00    -0.272 OA
ATOM      5  N   UNL     1      -6.174  -9.021   9.392  0.00  0.00    -0.308 N 
ATOM     14  C   UNL     1      -7.278  -8.657   8.636  0.00  0.00    +0.251 C 
ATOM     33  H   UNL     1      -6.239  -8.988  10.405  0.00  0.00    +0.149 HD
BRANCH  14  16
ATOM     16  C   UNL     1      -8.475  -8.345   9.508  0.00  0.00    +0.324 C 
BRANCH  16   3
ATOM      3  O   UNL     1      -9.044  -9.532  10.016  0.00  0.00    -0.483 OA
BRANCH   3  23
ATOM     23  C   UNL     1      -9.268  -9.591  11.372  0.00  0.00    +0.121 A 
ATOM     28  C   UNL     1      -8.201  -9.799  12.245  0.00  0.00    +0.045 A 
ATOM     29  C   UNL     1     -10.561  -9.443  11.873  0.00  0.00    +0.045 A 
ATOM     30  C   UNL     1      -8.426  -9.859  13.620  0.00  0.00    +0.004 A 
ATOM     31  C   UNL     1     -10.787  -9.503  13.248  0.00  0.00    +0.004 A 
ATOM     32  C   UNL     1      -9.720  -9.711  14.121  0.00  0.00    +0.000 A 
ENDBRANCH   3  23
ENDBRANCH  16   3
ENDBRANCH  14  16
ENDBRANCH   8   5
TORSDOF 6
ENDMDL
MODEL 5
REMARK VINA RESULT:      -6.7     27.086     29.931
REMARK  Name = 25338516
REMARK  7 active torsions:
REMARK  status: ('A' for Active; 'I' for Inactive)
REMARK    1  A    between atoms: O_3  and  C_16
REMARK    2  A    between atoms: O_3  and  C_23
REMARK    3  A    between atoms: N_4  and  C_13
REMARK    4  A    between atoms: N_5  and  C_8
REMARK    5  A    between atoms: C_9  and  C_12
REMARK    6  A    between atoms: C_14  and  C_16
REMARK    7  A    between atoms: C_15  and  C_17
REMARK                            x       y       z     vdW  Elec       q    Type
REMARK                         _______ _______ _______ _____ _____    ______ ____
ROOT
ATOM      4  N   UNL     1      -3.153 -12.747  13.873  0.00  0.00    -0.293 NA
ATOM      8  C   UNL     1      -2.217 -11.044  12.584  0.00  0.00    +0.089 C 
ATOM      9  C   UNL     1      -2.700 -11.759  14.870  0.00  0.00    +0.147 C 
ATOM     10  C   UNL     1      -2.215 -10.558  14.034  0.00  0.00    +0.052 C 
ATOM     11  C   UNL     1      -2.291 -12.559  12.701  0.00  0.00    +0.107 C 
ATOM     13  C   UNL     1      -3.113 -14.119  14.364  0.00  0.00    +0.105 C 
ENDROOT
BRANCH   9  12
ATOM      1  O   UNL     1      -3.358 -11.176  17.150  0.00  0.00    -0.336 OA
ATOM      6  N   UNL     1      -5.055 -11.210  15.688  0.00  0.00    -0.190 NA
ATOM      7  N   UNL     1      -4.506 -10.839  17.879  0.00  0.00    -0.056 NA
ATOM     12  C   UNL     1      -3.770 -11.377  15.871  0.00  0.00    +0.245 A 
ATOM     15  C   UNL     1      -5.464 -10.881  16.949  0.00  0.00    +0.202 A 
BRANCH  15  17
ATOM     17  C   UNL     1      -6.839 -10.598  17.244  0.00  0.00    +0.023 A 
ATOM     18  C   UNL     1      -7.439  -9.447  16.731  0.00  0.00    +0.020 A 
ATOM     19  C   UNL     1      -7.574 -11.470  18.041  0.00  0.00    +0.012 A 
ATOM     20  C   UNL     1      -8.785  -9.156  17.010  0.00  0.00    -0.017 A 
ATOM     21  C   UNL     1      -9.532 -10.044  17.821  0.00  0.00    -0.018 A 
ATOM     22  C   UNL     1      -8.911 -11.196  18.328  0.00  0.00    +0.009 A 
ATOM     24  C   UNL     1      -9.405  -8.003  16.502  0.00  0.00    +0.008 A 
ATOM     25  C   UNL     1     -10.877  -9.752  18.099  0.00  0.00    +0.008 A 
ATOM     26  C   UNL     1     -10.743  -7.729  16.789  0.00  0.00    +0.001 A 
ATOM     27  C   UNL     1     -11.477  -8.603  17.586  0.00  0.00    +0.001 A 
ENDBRANCH  15  17
ENDBRANCH   9  12
BRANCH   8   5
ATOM      2  O   UNL     1      -2.145  -9.115  10.431  0.00  0.00    -0.272 OA
ATOM      5  N   UNL     1      -3.342 -10.518  11.849  0.00  0.00    -0.308 N 
ATOM     14  C   UNL     1      -3.206  -9.590  10.827  0.00  0.00    +0.251 C 
ATOM     33  H   UNL     1      -4.274 -10.802  12.135  0.00  0.00    +0.149 HD
BRANCH  14  16
ATOM     16  C   UNL     1      -4.545  -9.215  10.230  0.00  0.00    +0.324 C 
BRANCH  16   3
ATOM      3  O   UNL     1      -5.311  -8.470  11.151  0.00  0.00    -0.483 OA
BRANCH   3  23
ATOM     23  C   UNL     1      -6.528  -8.991  11.525  0.00  0.00    +0.121 A 
ATOM     28  C   UNL     1      -7.562  -9.084  10.593  0.00  0.00    +0.045 A 
ATOM     29  C   UNL     1      -6.728  -9.427  12.834  0.00  0.00    +0.045 A 
ATOM     30  C   UNL     1      -8.796  -9.614  10.971  0.00  0.00    +0.004 A 
ATOM     31  C   UNL     1      -7.961  -9.957  13.212  0.00  0.00    +0.004 A 
ATOM     32  C   UNL     1      -8.995 -10.049  12.280  0.00  0.00    +0.000 A 
ENDBRANCH   3  23
ENDBRANCH  16   3
ENDBRANCH  14  16
ENDBRANCH   8   5
TORSDOF 6
ENDMDL
MODEL 6
REMARK VINA RESULT:      -6.7     28.726     31.937
REMARK  Name = 25338516
REMARK  7 active torsions:
REMARK  status: ('A' for Active; 'I' for Inactive)
REMARK    1  A    between atoms: O_3  and  C_16
REMARK    2  A    between atoms: O_3  and  C_23
REMARK    3  A    between atoms: N_4  and  C_13
REMARK    4  A    between atoms: N_5  and  C_8
REMARK    5  A    between atoms: C_9  and  C_12
REMARK    6  A    between atoms: C_14  and  C_16
REMARK    7  A    between atoms: C_15  and  C_17
REMARK                            x       y       z     vdW  Elec       q    Type
REMARK                         _______ _______ _______ _____ _____    ______ ____
ROOT
ATOM      4  N   UNL     1     -17.810   3.199  28.665  0.00  0.00    -0.293 NA
ATOM      8  C   UNL     1     -17.091   2.001  26.799  0.00  0.00    +0.089 C 
ATOM      9  C   UNL     1     -16.920   2.167  29.230  0.00  0.00    +0.147 C 
ATOM     10  C   UNL     1     -16.316   1.460  28.001  0.00  0.00    +0.052 C 
ATOM     11  C   UNL     1     -18.327   2.641  27.412  0.00  0.00    +0.107 C 
ATOM     13  C   UNL     1     -18.883   3.590  29.571  0.00  0.00    +0.105 C 
ENDROOT
BRANCH   9  12
ATOM      1  O   UNL     1     -14.601   2.246  29.997  0.00  0.00    -0.336 OA
ATOM      6  N   UNL     1     -15.981   3.614  31.113  0.00  0.00    -0.190 NA
ATOM      7  N   UNL     1     -13.812   2.900  30.954  0.00  0.00    -0.056 NA
ATOM     12  C   UNL     1     -15.862   2.725  30.159  0.00  0.00    +0.245 A 
ATOM     15  C   UNL     1     -14.697   3.687  31.572  0.00  0.00    +0.202 A 
BRANCH  15  17
ATOM     17  C   UNL     1     -14.332   4.562  32.649  0.00  0.00    +0.023 A 
ATOM     18  C   UNL     1     -13.800   5.822  32.374  0.00  0.00    +0.020 A 
ATOM     19  C   UNL     1     -14.509   4.153  33.967  0.00  0.00    +0.012 A 
ATOM     20  C   UNL     1     -13.438   6.690  33.417  0.00  0.00    -0.017 A 
ATOM     21  C   UNL     1     -13.618   6.273  34.758  0.00  0.00    -0.018 A 
ATOM     22  C   UNL     1     -14.155   5.002  35.015  0.00  0.00    +0.009 A 
ATOM     24  C   UNL     1     -12.901   7.961  33.159  0.00  0.00    +0.008 A 
ATOM     25  C   UNL     1     -13.256   7.142  35.801  0.00  0.00    +0.008 A 
ATOM     26  C   UNL     1     -12.547   8.811  34.208  0.00  0.00    +0.001 A 
ATOM     27  C   UNL     1     -12.724   8.401  35.526  0.00  0.00    +0.001 A 
ENDBRANCH  15  17
ENDBRANCH   9  12
BRANCH   8   5
ATOM      2  O   UNL     1     -16.750   2.128  23.930  0.00  0.00    -0.272 OA
ATOM      5  N   UNL     1     -16.314   2.965  26.055  0.00  0.00    -0.308 N 
ATOM     14  C   UNL     1     -16.211   2.944  24.673  0.00  0.00    +0.251 C 
ATOM     33  H   UNL     1     -15.780   3.652  26.578  0.00  0.00    +0.149 HD
BRANCH  14  16
ATOM     16  C   UNL     1     -15.338   4.068  24.159  0.00  0.00    +0.324 C 
BRANCH  16   3
ATOM      3  O   UNL     1     -15.270   4.043  22.750  0.00  0.00    -0.483 OA
BRANCH   3  23
ATOM     23  C   UNL     1     -14.595   5.071  22.135  0.00  0.00    +0.121 A 
ATOM     28  C   UNL     1     -13.200   5.087  22.135  0.00  0.00    +0.045 A 
ATOM     29  C   UNL     1     -15.304   6.098  21.511  0.00  0.00    +0.045 A 
ATOM     30  C   UNL     1     -12.514   6.129  21.511  0.00  0.00    +0.004 A 
ATOM     31  C   UNL     1     -14.618   7.139  20.887  0.00  0.00    +0.004 A 
ATOM     32  C   UNL     1     -13.224   7.155  20.887  0.00  0.00    +0.000 A 
ENDBRANCH   3  23
ENDBRANCH  16   3
ENDBRANCH  14  16
ENDBRANCH   8   5
TORSDOF 6
ENDMDL
MODEL 7
REMARK VINA RESULT:      -6.7     16.841     19.397
REMARK  Name = 25338516
REMARK  7 active torsions:
REMARK  status: ('A' for Active; 'I' for Inactive)
REMARK    1  A    between atoms: O_3  and  C_16
REMARK    2  A    between atoms: O_3  and  C_23
REMARK    3  A    between atoms: N_4  and  C_13
REMARK    4  A    between atoms: N_5  and  C_8
REMARK    5  A    between atoms: C_9  and  C_12
REMARK    6  A    between atoms: C_14  and  C_16
REMARK    7  A    between atoms: C_15  and  C_17
REMARK                            x       y       z     vdW  Elec       q    Type
REMARK                         _______ _______ _______ _____ _____    ______ ____
ROOT
ATOM      4  N   UNL     1      13.902   9.355   5.096  0.00  0.00    -0.293 NA
ATOM      8  C   UNL     1      13.305   8.101   6.969  0.00  0.00    +0.089 C 
ATOM      9  C   UNL     1      14.825   8.205   5.059  0.00  0.00    +0.147 C 
ATOM     10  C   UNL     1      14.348   7.287   6.202  0.00  0.00    +0.052 C 
ATOM     11  C   UNL     1      13.536   9.531   6.505  0.00  0.00    +0.107 C 
ATOM     13  C   UNL     1      14.473  10.569   4.526  0.00  0.00    +0.105 C 
ENDROOT
BRANCH   9  12
ATOM      1  O   UNL     1      15.899   7.802   2.902  0.00  0.00    -0.336 OA
ATOM      6  N   UNL     1      14.018   6.628   3.221  0.00  0.00    -0.190 NA
ATOM      7  N   UNL     1      15.715   7.038   1.741  0.00  0.00    -0.056 NA
ATOM     12  C   UNL     1      14.858   7.500   3.720  0.00  0.00    +0.245 A 
ATOM     15  C   UNL     1      14.586   6.374   2.006  0.00  0.00    +0.202 A 
BRANCH  15  17
ATOM     17  C   UNL     1      13.999   5.449   1.079  0.00  0.00    +0.023 A 
ATOM     18  C   UNL     1      13.367   5.921  -0.071  0.00  0.00    +0.020 A 
ATOM     19  C   UNL     1      14.062   4.082   1.329  0.00  0.00    +0.012 A 
ATOM     20  C   UNL     1      12.789   5.028  -0.988  0.00  0.00    -0.017 A 
ATOM     21  C   UNL     1      12.853   3.636  -0.734  0.00  0.00    -0.018 A 
ATOM     22  C   UNL     1      13.493   3.180   0.429  0.00  0.00    +0.009 A 
ATOM     24  C   UNL     1      12.149   5.485  -2.151  0.00  0.00    +0.008 A 
ATOM     25  C   UNL     1      12.275   2.744  -1.651  0.00  0.00    +0.008 A 
ATOM     26  C   UNL     1      11.579   4.583  -3.052  0.00  0.00    +0.001 A 
ATOM     27  C   UNL     1      11.643   3.215  -2.802  0.00  0.00    +0.001 A 
ENDBRANCH  15  17
ENDBRANCH   9  12
BRANCH   8   5
ATOM      2  O   UNL     1      11.916   5.833   8.104  0.00  0.00    -0.272 OA
ATOM      5  N   UNL     1      11.962   7.662   6.669  0.00  0.00    -0.308 N 
ATOM     14  C   UNL     1      11.380   6.555   7.268  0.00  0.00    +0.251 C 
ATOM     33  H   UNL     1      11.449   8.157   5.946  0.00  0.00    +0.149 HD
BRANCH  14  16
ATOM     16  C   UNL     1       9.969   6.326   6.771  0.00  0.00    +0.324 C 
BRANCH  16   3
ATOM      3  O   UNL     1       9.919   5.208   5.911  0.00  0.00    -0.483 OA
BRANCH   3  23
ATOM     23  C   UNL     1      10.002   5.451   4.560  0.00  0.00    +0.121 A 
ATOM     28  C   UNL     1      10.584   4.504   3.716  0.00  0.00    +0.045 A 
ATOM     29  C   UNL     1       9.506   6.643   4.033  0.00  0.00    +0.045 A 
ATOM     30  C   UNL     1      10.668   4.749   2.346  0.00  0.00    +0.004 A 
ATOM     31  C   UNL     1       9.590   6.888   2.663  0.00  0.00    +0.004 A 
ATOM     32  C   UNL     1      10.171   5.941   1.819  0.00  0.00    +0.000 A 
ENDBRANCH   3  23
ENDBRANCH  16   3
ENDBRANCH  14  16
ENDBRANCH   8   5
TORSDOF 6
ENDMDL
MODEL 8
REMARK VINA RESULT:      -6.6     19.250     22.045
REMARK  Name = 25338516
REMARK  7 active torsions:
REMARK  status: ('A' for Active; 'I' for Inactive)
REMARK    1  A    between atoms: O_3  and  C_16
REMARK    2  A    between atoms: O_3  and  C_23
REMARK    3  A    between atoms: N_4  and  C_13
REMARK    4  A    between atoms: N_5  and  C_8
REMARK    5  A    between atoms: C_9  and  C_12
REMARK    6  A    between atoms: C_14  and  C_16
REMARK    7  A    between atoms: C_15  and  C_17
REMARK                            x       y       z     vdW  Elec       q    Type
REMARK                         _______ _______ _______ _____ _____    ______ ____
ROOT
ATOM      4  N   UNL     1       5.934  -4.811  37.400  0.00  0.00    -0.293 NA
ATOM      8  C   UNL     1       5.387  -6.961  38.120  0.00  0.00    +0.089 C 
ATOM      9  C   UNL     1       7.225  -5.376  37.833  0.00  0.00    +0.147 C 
ATOM     10  C   UNL     1       6.911  -6.848  38.170  0.00  0.00    +0.052 C 
ATOM     11  C   UNL     1       4.907  -5.518  38.172  0.00  0.00    +0.107 C 
ATOM     13  C   UNL     1       5.850  -3.367  37.579  0.00  0.00    +0.105 C 
ENDROOT
BRANCH   9  12
ATOM      1  O   UNL     1       9.128  -4.150  36.913  0.00  0.00    -0.336 OA
ATOM      6  N   UNL     1       8.617  -6.021  35.792  0.00  0.00    -0.190 NA
ATOM      7  N   UNL     1      10.050  -4.237  35.862  0.00  0.00    -0.056 NA
ATOM     12  C   UNL     1       8.322  -5.238  36.799  0.00  0.00    +0.245 A 
ATOM     15  C   UNL     1       9.683  -5.365  35.246  0.00  0.00    +0.202 A 
BRANCH  15  17
ATOM     17  C   UNL     1      10.362  -5.867  34.086  0.00  0.00    +0.023 A 
ATOM     18  C   UNL     1      11.496  -5.213  33.605  0.00  0.00    +0.020 A 
ATOM     19  C   UNL     1       9.889  -7.006  33.443  0.00  0.00    +0.012 A 
ATOM     20  C   UNL     1      12.172  -5.692  32.471  0.00  0.00    -0.017 A 
ATOM     21  C   UNL     1      11.690  -6.851  31.816  0.00  0.00    -0.018 A 
ATOM     22  C   UNL     1      10.548  -7.496  32.315  0.00  0.00    +0.009 A 
ATOM     24  C   UNL     1      13.314  -5.046  31.972  0.00  0.00    +0.008 A 
ATOM     25  C   UNL     1      12.367  -7.330  30.682  0.00  0.00    +0.008 A 
ATOM     26  C   UNL     1      13.974  -5.536  30.843  0.00  0.00    +0.001 A 
ATOM     27  C   UNL     1      13.500  -6.676  30.200  0.00  0.00    +0.001 A 
ENDBRANCH  15  17
ENDBRANCH   9  12
BRANCH   8   5
ATOM      2  O   UNL     1       5.354  -9.804  37.596  0.00  0.00    -0.272 OA
ATOM      5  N   UNL     1       4.943  -7.619  36.914  0.00  0.00    -0.308 N 
ATOM     14  C   UNL     1       4.966  -8.996  36.756  0.00  0.00    +0.251 C 
ATOM     33  H   UNL     1       4.655  -7.039  36.132  0.00  0.00    +0.149 HD
BRANCH  14  16
ATOM     16  C   UNL     1       4.442  -9.413  35.398  0.00  0.00    +0.324 C 
BRANCH  16   3
ATOM      3  O   UNL     1       5.417 -10.152  34.694  0.00  0.00    -0.483 OA
BRANCH   3  23
ATOM     23  C   UNL     1       5.933  -9.584  33.553  0.00  0.00    +0.121 A 
ATOM     28  C   UNL     1       5.756  -8.222  33.311  0.00  0.00    +0.045 A 
ATOM     29  C   UNL     1       6.633 -10.370  32.638  0.00  0.00    +0.045 A 
ATOM     30  C   UNL     1       6.279  -7.645  32.154  0.00  0.00    +0.004 A 
ATOM     31  C   UNL     1       7.157  -9.793  31.481  0.00  0.00    +0.004 A 
ATOM     32  C   UNL     1       6.979  -8.431  31.239  0.00  0.00    +0.000 A 
ENDBRANCH   3  23
ENDBRANCH  16   3
ENDBRANCH  14  16
ENDBRANCH   8   5
TORSDOF 6
ENDMDL
MODEL 9
REMARK VINA RESULT:      -6.5     18.264     21.028
REMARK  Name = 25338516
REMARK  7 active torsions:
REMARK  status: ('A' for Active; 'I' for Inactive)
REMARK    1  A    between atoms: O_3  and  C_16
REMARK    2  A    between atoms: O_3  and  C_23
REMARK    3  A    between atoms: N_4  and  C_13
REMARK    4  A    between atoms: N_5  and  C_8
REMARK    5  A    between atoms: C_9  and  C_12
REMARK    6  A    between atoms: C_14  and  C_16
REMARK    7  A    between atoms: C_15  and  C_17
REMARK                            x       y       z     vdW  Elec       q    Type
REMARK                         _______ _______ _______ _____ _____    ______ ____
ROOT
ATOM      4  N   UNL     1      10.602   9.306  -0.386  0.00  0.00    -0.293 NA
ATOM      8  C   UNL     1       9.702   8.109  -2.172  0.00  0.00    +0.089 C 
ATOM      9  C   UNL     1       9.163   9.235  -0.072  0.00  0.00    +0.147 C 
ATOM     10  C   UNL     1       8.573   8.319  -1.163  0.00  0.00    +0.052 C 
ATOM     11  C   UNL     1      10.701   9.208  -1.846  0.00  0.00    +0.107 C 
ATOM     13  C   UNL     1      11.243  10.512   0.124  0.00  0.00    +0.105 C 
ENDROOT
BRANCH   9  12
ATOM      1  O   UNL     1       7.852   9.340   1.987  0.00  0.00    -0.336 OA
ATOM      6  N   UNL     1       9.470   7.791   2.011  0.00  0.00    -0.190 NA
ATOM      7  N   UNL     1       7.776   8.718   3.240  0.00  0.00    -0.056 NA
ATOM     12  C   UNL     1       8.874   8.735   1.327  0.00  0.00    +0.245 A 
ATOM     15  C   UNL     1       8.762   7.818   3.178  0.00  0.00    +0.202 A 
BRANCH  15  17
ATOM     17  C   UNL     1       9.065   6.929   4.263  0.00  0.00    +0.023 A 
ATOM     18  C   UNL     1       8.783   7.310   5.575  0.00  0.00    +0.020 A 
ATOM     19  C   UNL     1       9.640   5.689   4.005  0.00  0.00    +0.012 A 
ATOM     20  C   UNL     1       9.073   6.450   6.647  0.00  0.00    -0.017 A 
ATOM     21  C   UNL     1       9.657   5.188   6.385  0.00  0.00    -0.018 A 
ATOM     22  C   UNL     1       9.934   4.823   5.058  0.00  0.00    +0.009 A 
ATOM     24  C   UNL     1       8.796   6.816   7.975  0.00  0.00    +0.008 A 
ATOM     25  C   UNL     1       9.947   4.329   7.458  0.00  0.00    +0.008 A 
ATOM     26  C   UNL     1       9.090   5.950   9.029  0.00  0.00    +0.001 A 
ATOM     27  C   UNL     1       9.665   4.709   8.770  0.00  0.00    +0.001 A 
ENDBRANCH  15  17
ENDBRANCH   9  12
BRANCH   8   5
ATOM      2  O   UNL     1       8.943   5.694  -3.571  0.00  0.00    -0.272 OA
ATOM      5  N   UNL     1      10.298   6.801  -2.039  0.00  0.00    -0.308 N 
ATOM     14  C   UNL     1       9.862   5.697  -2.757  0.00  0.00    +0.251 C 
ATOM     33  H   UNL     1      11.032   6.679  -1.347  0.00  0.00    +0.149 HD
BRANCH  14  16
ATOM     16  C   UNL     1      10.665   4.459  -2.423  0.00  0.00    +0.324 C 
BRANCH  16   3
ATOM      3  O   UNL     1      10.355   3.999  -1.125  0.00  0.00    -0.483 OA
BRANCH   3  23
ATOM     23  C   UNL     1      11.399   3.867  -0.239  0.00  0.00    +0.121 A 
ATOM     28  C   UNL     1      12.694   3.660  -0.714  0.00  0.00    +0.045 A 
ATOM     29  C   UNL     1      11.163   3.940   1.133  0.00  0.00    +0.045 A 
ATOM     30  C   UNL     1      13.753   3.527   0.183  0.00  0.00    +0.004 A 
ATOM     31  C   UNL     1      12.222   3.807   2.031  0.00  0.00    +0.004 A 
ATOM     32  C   UNL     1      13.517   3.600   1.556  0.00  0.00    +0.000 A 
ENDBRANCH   3  23
ENDBRANCH  16   3
ENDBRANCH  14  16
ENDBRANCH   8   5
TORSDOF 6
ENDMDL
MODEL 10
REMARK VINA RESULT:      -6.5     24.663     27.085
REMARK  Name = 25338516
REMARK  7 active torsions:
REMARK  status: ('A' for Active; 'I' for Inactive)
REMARK    1  A    between atoms: O_3  and  C_16
REMARK    2  A    between atoms: O_3  and  C_23
REMARK    3  A    between atoms: N_4  and  C_13
REMARK    4  A    between atoms: N_5  and  C_8
REMARK    5  A    between atoms: C_9  and  C_12
REMARK    6  A    between atoms: C_14  and  C_16
REMARK    7  A    between atoms: C_15  and  C_17
REMARK                            x       y       z     vdW  Elec       q    Type
REMARK                         _______ _______ _______ _____ _____    ______ ____
ROOT
ATOM      4  N   UNL     1       5.957   7.799  -4.890  0.00  0.00    -0.293 NA
ATOM      8  C   UNL     1       3.870   6.967  -4.267  0.00  0.00    +0.089 C 
ATOM      9  C   UNL     1       6.174   7.295  -3.521  0.00  0.00    +0.147 C 
ATOM     10  C   UNL     1       4.847   6.605  -3.147  0.00  0.00    +0.052 C 
ATOM     11  C   UNL     1       4.533   8.140  -4.972  0.00  0.00    +0.107 C 
ATOM     13  C   UNL     1       6.809   8.934  -5.226  0.00  0.00    +0.105 C 
ENDROOT
BRANCH   9  12
ATOM      1  O   UNL     1       7.632   5.582  -4.474  0.00  0.00    -0.336 OA
ATOM      6  N   UNL     1       8.193   6.210  -2.398  0.00  0.00    -0.190 NA
ATOM      7  N   UNL     1       8.761   4.826  -4.130  0.00  0.00    -0.056 NA
ATOM     12  C   UNL     1       7.366   6.370  -3.399  0.00  0.00    +0.245 A 
ATOM     15  C   UNL     1       9.031   5.253  -2.893  0.00  0.00    +0.202 A 
BRANCH  15  17
ATOM     17  C   UNL     1      10.132   4.745  -2.125  0.00  0.00    +0.023 A 
ATOM     18  C   UNL     1      10.099   4.812  -0.732  0.00  0.00    +0.020 A 
ATOM     19  C   UNL     1      11.231   4.187  -2.770  0.00  0.00    +0.012 A 
ATOM     20  C   UNL     1      11.168   4.319   0.034  0.00  0.00    -0.017 A 
ATOM     21  C   UNL     1      12.286   3.751  -0.623  0.00  0.00    -0.018 A 
ATOM     22  C   UNL     1      12.302   3.693  -2.025  0.00  0.00    +0.009 A 
ATOM     24  C   UNL     1      11.152   4.378   1.437  0.00  0.00    +0.008 A 
ATOM     25  C   UNL     1      13.355   3.259   0.144  0.00  0.00    +0.008 A 
ATOM     26  C   UNL     1      12.224   3.883   2.183  0.00  0.00    +0.001 A 
ATOM     27  C   UNL     1      13.323   3.325   1.536  0.00  0.00    +0.001 A 
ENDBRANCH  15  17
ENDBRANCH   9  12
BRANCH   8   5
ATOM      2  O   UNL     1       2.121   4.697  -3.875  0.00  0.00    -0.272 OA
ATOM      5  N   UNL     1       3.663   5.859  -5.171  0.00  0.00    -0.308 N 
ATOM     14  C   UNL     1       2.799   4.812  -4.892  0.00  0.00    +0.251 C 
ATOM     33  H   UNL     1       4.220   5.826  -6.020  0.00  0.00    +0.149 HD
BRANCH  14  16
ATOM     16  C   UNL     1       2.775   3.793  -6.011  0.00  0.00    +0.324 C 
BRANCH  16   3
ATOM      3  O   UNL     1       2.597   2.491  -5.496  0.00  0.00    -0.483 OA
BRANCH   3  23
ATOM     23  C   UNL     1       1.522   1.772  -5.964  0.00  0.00    +0.121 A 
ATOM     28  C   UNL     1       1.026   0.698  -5.224  0.00  0.00    +0.045 A 
ATOM     29  C   UNL     1       0.928   2.116  -7.178  0.00  0.00    +0.045 A 
ATOM     30  C   UNL     1      -0.064  -0.031  -5.698  0.00  0.00    +0.004 A 
ATOM     31  C   UNL     1      -0.162   1.387  -7.652  0.00  0.00    +0.004 A 
ATOM     32  C   UNL     1      -0.658   0.313  -6.912  0.00  0.00    +0.000 A 
ENDBRANCH   3  23
ENDBRANCH  16   3
ENDBRANCH  14  16
ENDBRANCH   8   5
TORSDOF 6
ENDMDL
