MODEL 1
REMARK VINA RESULT:      -7.6      0.000      0.000
REMARK  Name = 45783789
REMARK  6 active torsions:
REMARK  status: ('A' for Active; 'I' for Inactive)
REMARK    1  A    between atoms: N_3  and  C_12
REMARK    2  A    between atoms: N_7  and  C_27
REMARK    3  A    between atoms: N_7  and  C_28
REMARK    4  A    between atoms: C_8  and  C_13
REMARK    5  A    between atoms: C_12  and  C_14
REMARK    6  A    between atoms: C_17  and  C_19
REMARK                            x       y       z     vdW  Elec       q    Type
REMARK                         _______ _______ _______ _____ _____    ______ ____
ROOT
ATOM      3  N   UNL     1      11.741   8.851  21.661  0.00  0.00    -0.284 NA
ATOM      8  C   UNL     1      12.398   7.674  21.061  0.00  0.00    +0.146 C 
ATOM      9  C   UNL     1      11.398   6.521  21.266  0.00  0.00    +0.030 C 
ATOM     10  C   UNL     1      10.240   7.132  22.042  0.00  0.00    +0.017 C 
ATOM     11  C   UNL     1      10.859   8.342  22.711  0.00  0.00    +0.085 C 
ENDROOT
BRANCH   8  13
ATOM      1  O   UNL     1      12.228   7.002  18.716  0.00  0.00    -0.336 OA
ATOM      4  N   UNL     1      13.510   8.806  19.060  0.00  0.00    -0.190 NA
ATOM      5  N   UNL     1      12.692   7.395  17.455  0.00  0.00    -0.056 NA
ATOM     13  C   UNL     1      12.755   7.885  19.604  0.00  0.00    +0.245 A 
ATOM     17  C   UNL     1      13.442   8.465  17.741  0.00  0.00    +0.204 A 
BRANCH  17  19
ATOM      6  N   UNL     1      15.048   9.314  14.496  0.00  0.00    -0.240 NA
ATOM     19  C   UNL     1      14.133   9.214  16.732  0.00  0.00    +0.041 A 
ATOM     24  C   UNL     1      14.556  10.518  16.971  0.00  0.00    +0.016 A 
ATOM     25  C   UNL     1      14.402   8.663  15.489  0.00  0.00    +0.124 A 
ATOM     26  C   UNL     1      15.223  11.220  15.973  0.00  0.00    +0.044 A 
ATOM     27  C   UNL     1      15.443  10.578  14.765  0.00  0.00    +0.118 A 
BRANCH  27   7
ATOM      7  N   UNL     1      16.124  11.308  13.758  0.00  0.00    -0.332 N 
ATOM     28  C   UNL     1      15.440  12.020  12.728  0.00  0.00    +0.127 C 
ATOM     29  H   UNL     1      17.116  11.126  13.646  0.00  0.00    +0.147 HD
ENDBRANCH  27   7
ENDBRANCH  17  19
ENDBRANCH   8  13
BRANCH   3  12
ATOM     12  C   UNL     1      12.684   9.840  22.167  0.00  0.00    +0.159 C 
BRANCH  12  14
ATOM      2  O   UNL     1      12.070  11.339  23.982  0.00  0.00    -0.458 OA
ATOM     14  C   UNL     1      11.988  11.085  22.650  0.00  0.00    +0.120 A 
ATOM     15  C   UNL     1      11.257  12.060  22.012  0.00  0.00    +0.054 A 
ATOM     16  C   UNL     1      10.859  12.982  23.014  0.00  0.00    +0.020 A 
ATOM     18  C   UNL     1      11.383  12.495  24.207  0.00  0.00    +0.135 A 
ATOM     20  C   UNL     1      10.113  14.173  23.046  0.00  0.00    +0.011 A 
ATOM     21  C   UNL     1      11.218  13.114  25.444  0.00  0.00    +0.047 A 
ATOM     22  C   UNL     1       9.929  14.820  24.276  0.00  0.00    +0.001 A 
ATOM     23  C   UNL     1      10.473  14.298  25.453  0.00  0.00    +0.004 A 
ENDBRANCH  12  14
ENDBRANCH   3  12
TORSDOF 5
ENDMDL
MODEL 2
REMARK VINA RESULT:      -7.5      3.761      8.688
REMARK  Name = 45783789
REMARK  6 active torsions:
REMARK  status: ('A' for Active; 'I' for Inactive)
REMARK    1  A    between atoms: N_3  and  C_12
REMARK    2  A    between atoms: N_7  and  C_27
REMARK    3  A    between atoms: N_7  and  C_28
REMARK    4  A    between atoms: C_8  and  C_13
REMARK    5  A    between atoms: C_12  and  C_14
REMARK    6  A    between atoms: C_17  and  C_19
REMARK                            x       y       z     vdW  Elec       q    Type
REMARK                         _______ _______ _______ _____ _____    ______ ____
ROOT
ATOM      3  N   UNL     1      12.832   7.976  20.631  0.00  0.00    -0.284 NA
ATOM      8  C   UNL     1      11.573   8.746  20.610  0.00  0.00    +0.146 C 
ATOM      9  C   UNL     1      10.535   7.818  21.268  0.00  0.00    +0.030 C 
ATOM     10  C   UNL     1      11.288   6.530  21.569  0.00  0.00    +0.017 C 
ATOM     11  C   UNL     1      12.453   6.562  20.601  0.00  0.00    +0.085 C 
ENDROOT
BRANCH   8  13
ATOM      1  O   UNL     1      12.028  11.146  20.541  0.00  0.00    -0.336 OA
ATOM      4  N   UNL     1      11.526  10.369  22.580  0.00  0.00    -0.190 NA
ATOM      5  N   UNL     1      12.079  12.250  21.402  0.00  0.00    -0.056 NA
ATOM     13  C   UNL     1      11.694  10.081  21.315  0.00  0.00    +0.245 A 
ATOM     17  C   UNL     1      11.772  11.710  22.586  0.00  0.00    +0.204 A 
BRANCH  17  19
ATOM      6  N   UNL     1      12.836  13.448  25.697  0.00  0.00    -0.240 NA
ATOM     19  C   UNL     1      11.702  12.485  23.792  0.00  0.00    +0.041 A 
ATOM     24  C   UNL     1      10.495  13.016  24.232  0.00  0.00    +0.016 A 
ATOM     25  C   UNL     1      12.833  12.727  24.554  0.00  0.00    +0.124 A 
ATOM     26  C   UNL     1      10.457  13.764  25.405  0.00  0.00    +0.044 A 
ATOM     27  C   UNL     1      11.645  13.948  26.094  0.00  0.00    +0.118 A 
BRANCH  27   7
ATOM      7  N   UNL     1      11.590  14.713  27.286  0.00  0.00    -0.332 N 
ATOM     28  C   UNL     1      12.760  15.195  27.946  0.00  0.00    +0.127 C 
ATOM     29  H   UNL     1      10.711  14.718  27.792  0.00  0.00    +0.147 HD
ENDBRANCH  27   7
ENDBRANCH  17  19
ENDBRANCH   8  13
BRANCH   3  12
ATOM     12  C   UNL     1      13.738   8.324  19.544  0.00  0.00    +0.159 C 
BRANCH  12  14
ATOM      2  O   UNL     1      15.902   8.421  20.650  0.00  0.00    -0.458 OA
ATOM     14  C   UNL     1      15.117   7.760  19.760  0.00  0.00    +0.120 A 
ATOM     15  C   UNL     1      15.783   6.679  19.231  0.00  0.00    +0.054 A 
ATOM     16  C   UNL     1      17.068   6.666  19.833  0.00  0.00    +0.020 A 
ATOM     18  C   UNL     1      17.092   7.756  20.697  0.00  0.00    +0.135 A 
ATOM     20  C   UNL     1      18.214   5.857  19.744  0.00  0.00    +0.011 A 
ATOM     21  C   UNL     1      18.184   8.103  21.489  0.00  0.00    +0.047 A 
ATOM     22  C   UNL     1      19.329   6.180  20.528  0.00  0.00    +0.001 A 
ATOM     23  C   UNL     1      19.313   7.284  21.385  0.00  0.00    +0.004 A 
ENDBRANCH  12  14
ENDBRANCH   3  12
TORSDOF 5
ENDMDL
MODEL 3
REMARK VINA RESULT:      -7.1     26.441     29.593
REMARK  Name = 45783789
REMARK  6 active torsions:
REMARK  status: ('A' for Active; 'I' for Inactive)
REMARK    1  A    between atoms: N_3  and  C_12
REMARK    2  A    between atoms: N_7  and  C_27
REMARK    3  A    between atoms: N_7  and  C_28
REMARK    4  A    between atoms: C_8  and  C_13
REMARK    5  A    between atoms: C_12  and  C_14
REMARK    6  A    between atoms: C_17  and  C_19
REMARK                            x       y       z     vdW  Elec       q    Type
REMARK                         _______ _______ _______ _____ _____    ______ ____
ROOT
ATOM      3  N   UNL     1     -15.765   5.577  21.724  0.00  0.00    -0.284 NA
ATOM      8  C   UNL     1     -17.046   5.146  22.315  0.00  0.00    +0.146 C 
ATOM      9  C   UNL     1     -17.907   4.715  21.114  0.00  0.00    +0.030 C 
ATOM     10  C   UNL     1     -17.049   4.997  19.889  0.00  0.00    +0.017 C 
ATOM     11  C   UNL     1     -16.070   6.048  20.372  0.00  0.00    +0.085 C 
ENDROOT
BRANCH   8  13
ATOM      1  O   UNL     1     -16.903   2.768  22.864  0.00  0.00    -0.336 OA
ATOM      4  N   UNL     1     -16.699   4.128  24.631  0.00  0.00    -0.190 NA
ATOM      5  N   UNL     1     -16.726   1.936  23.976  0.00  0.00    -0.056 NA
ATOM     13  C   UNL     1     -16.874   4.042  23.337  0.00  0.00    +0.245 A 
ATOM     17  C   UNL     1     -16.613   2.812  24.980  0.00  0.00    +0.204 A 
BRANCH  17  19
ATOM      6  N   UNL     1     -16.487   0.650  28.003  0.00  0.00    -0.240 NA
ATOM     19  C   UNL     1     -16.413   2.404  26.341  0.00  0.00    +0.041 A 
ATOM     24  C   UNL     1     -15.972   3.307  27.302  0.00  0.00    +0.016 A 
ATOM     25  C   UNL     1     -16.655   1.099  26.739  0.00  0.00    +0.124 A 
ATOM     26  C   UNL     1     -15.787   2.883  28.613  0.00  0.00    +0.044 A 
ATOM     27  C   UNL     1     -16.057   1.556  28.910  0.00  0.00    +0.118 A 
BRANCH  27   7
ATOM      7  N   UNL     1     -15.862   1.139  30.250  0.00  0.00    -0.332 N 
ATOM     28  C   UNL     1     -15.338  -0.144  30.588  0.00  0.00    +0.127 C 
ATOM     29  H   UNL     1     -16.319   1.683  30.974  0.00  0.00    +0.147 HD
ENDBRANCH  27   7
ENDBRANCH  17  19
ENDBRANCH   8  13
BRANCH   3  12
ATOM     12  C   UNL     1     -15.078   6.590  22.515  0.00  0.00    +0.159 C 
BRANCH  12  14
ATOM      2  O   UNL     1     -13.924   8.554  21.662  0.00  0.00    -0.458 OA
ATOM     14  C   UNL     1     -13.923   7.200  21.766  0.00  0.00    +0.120 A 
ATOM     15  C   UNL     1     -12.822   6.664  21.139  0.00  0.00    +0.054 A 
ATOM     16  C   UNL     1     -12.090   7.758  20.609  0.00  0.00    +0.020 A 
ATOM     18  C   UNL     1     -12.808   8.898  20.958  0.00  0.00    +0.135 A 
ATOM     20  C   UNL     1     -10.902   7.913  19.874  0.00  0.00    +0.011 A 
ATOM     21  C   UNL     1     -12.425  10.195  20.626  0.00  0.00    +0.047 A 
ATOM     22  C   UNL     1     -10.490   9.206  19.524  0.00  0.00    +0.001 A 
ATOM     23  C   UNL     1     -11.240  10.326  19.894  0.00  0.00    +0.004 A 
ENDBRANCH  12  14
ENDBRANCH   3  12
TORSDOF 5
ENDMDL
MODEL 4
REMARK VINA RESULT:      -7.0     26.967     29.469
REMARK  Name = 45783789
REMARK  6 active torsions:
REMARK  status: ('A' for Active; 'I' for Inactive)
REMARK    1  A    between atoms: N_3  and  C_12
REMARK    2  A    between atoms: N_7  and  C_27
REMARK    3  A    between atoms: N_7  and  C_28
REMARK    4  A    between atoms: C_8  and  C_13
REMARK    5  A    between atoms: C_12  and  C_14
REMARK    6  A    between atoms: C_17  and  C_19
REMARK                            x       y       z     vdW  Elec       q    Type
REMARK                         _______ _______ _______ _____ _____    ______ ____
ROOT
ATOM      3  N   UNL     1     -17.380   3.172  27.000  0.00  0.00    -0.284 NA
ATOM      8  C   UNL     1     -16.313   2.447  26.282  0.00  0.00    +0.146 C 
ATOM      9  C   UNL     1     -16.796   0.986  26.234  0.00  0.00    +0.030 C 
ATOM     10  C   UNL     1     -18.110   0.976  27.002  0.00  0.00    +0.017 C 
ATOM     11  C   UNL     1     -18.013   2.199  27.891  0.00  0.00    +0.085 C 
ENDROOT
BRANCH   8  13
ATOM      1  O   UNL     1     -16.662   2.405  23.863  0.00  0.00    -0.336 OA
ATOM      4  N   UNL     1     -15.294   4.035  24.561  0.00  0.00    -0.190 NA
ATOM      5  N   UNL     1     -16.269   3.101  22.714  0.00  0.00    -0.056 NA
ATOM     13  C   UNL     1     -16.045   3.020  24.905  0.00  0.00    +0.245 A 
ATOM     17  C   UNL     1     -15.462   4.047  23.208  0.00  0.00    +0.204 A 
BRANCH  17  19
ATOM      6  N   UNL     1     -14.993   6.816  20.770  0.00  0.00    -0.240 NA
ATOM     19  C   UNL     1     -14.812   5.018  22.375  0.00  0.00    +0.041 A 
ATOM     24  C   UNL     1     -13.425   5.120  22.344  0.00  0.00    +0.016 A 
ATOM     25  C   UNL     1     -15.543   5.881  21.576  0.00  0.00    +0.124 A 
ATOM     26  C   UNL     1     -12.821   6.071  21.528  0.00  0.00    +0.044 A 
ATOM     27  C   UNL     1     -13.643   6.887  20.767  0.00  0.00    +0.118 A 
BRANCH  27   7
ATOM      7  N   UNL     1     -13.014   7.851  19.941  0.00  0.00    -0.332 N 
ATOM     28  C   UNL     1     -12.022   7.508  18.975  0.00  0.00    +0.127 C 
ATOM     29  H   UNL     1     -13.113   8.825  20.209  0.00  0.00    +0.147 HD
ENDBRANCH  27   7
ENDBRANCH  17  19
ENDBRANCH   8  13
BRANCH   3  12
ATOM     12  C   UNL     1     -16.895   4.342  27.721  0.00  0.00    +0.159 C 
BRANCH  12  14
ATOM      2  O   UNL     1     -15.030   3.553  29.068  0.00  0.00    -0.458 OA
ATOM     14  C   UNL     1     -16.321   3.976  29.064  0.00  0.00    +0.120 A 
ATOM     15  C   UNL     1     -16.838   3.976  30.338  0.00  0.00    +0.054 A 
ATOM     16  C   UNL     1     -15.799   3.523  31.192  0.00  0.00    +0.020 A 
ATOM     18  C   UNL     1     -14.709   3.277  30.364  0.00  0.00    +0.135 A 
ATOM     20  C   UNL     1     -15.658   3.293  32.572  0.00  0.00    +0.011 A 
ATOM     21  C   UNL     1     -13.474   2.813  30.814  0.00  0.00    +0.047 A 
ATOM     22  C   UNL     1     -14.428   2.827  33.055  0.00  0.00    +0.001 A 
ATOM     23  C   UNL     1     -13.356   2.591  32.189  0.00  0.00    +0.004 A 
ENDBRANCH  12  14
ENDBRANCH   3  12
TORSDOF 5
ENDMDL
MODEL 5
REMARK VINA RESULT:      -6.9     26.166     29.567
REMARK  Name = 45783789
REMARK  6 active torsions:
REMARK  status: ('A' for Active; 'I' for Inactive)
REMARK    1  A    between atoms: N_3  and  C_12
REMARK    2  A    between atoms: N_7  and  C_27
REMARK    3  A    between atoms: N_7  and  C_28
REMARK    4  A    between atoms: C_8  and  C_13
REMARK    5  A    between atoms: C_12  and  C_14
REMARK    6  A    between atoms: C_17  and  C_19
REMARK                            x       y       z     vdW  Elec       q    Type
REMARK                         _______ _______ _______ _____ _____    ______ ____
ROOT
ATOM      3  N   UNL     1      -3.195 -11.160  14.658  0.00  0.00    -0.284 NA
ATOM      8  C   UNL     1      -3.550 -11.475  16.056  0.00  0.00    +0.146 C 
ATOM      9  C   UNL     1      -2.384 -10.916  16.892  0.00  0.00    +0.030 C 
ATOM     10  C   UNL     1      -1.396 -10.362  15.876  0.00  0.00    +0.017 C 
ATOM     11  C   UNL     1      -1.734 -11.113  14.603  0.00  0.00    +0.085 C 
ENDROOT
BRANCH   8  13
ATOM      1  O   UNL     1      -5.294  -9.783  15.799  0.00  0.00    -0.336 OA
ATOM      4  N   UNL     1      -5.733 -11.315  17.371  0.00  0.00    -0.190 NA
ATOM      5  N   UNL     1      -6.540  -9.440  16.338  0.00  0.00    -0.056 NA
ATOM     13  C   UNL     1      -4.890 -10.897  16.462  0.00  0.00    +0.245 A 
ATOM     17  C   UNL     1      -6.730 -10.391  17.259  0.00  0.00    +0.204 A 
BRANCH  17  19
ATOM      6  N   UNL     1      -8.984 -11.246  20.091  0.00  0.00    -0.240 NA
ATOM     19  C   UNL     1      -7.904 -10.444  18.082  0.00  0.00    +0.041 A 
ATOM     24  C   UNL     1      -9.070  -9.783  17.710  0.00  0.00    +0.016 A 
ATOM     25  C   UNL     1      -7.913 -11.156  19.271  0.00  0.00    +0.124 A 
ATOM     26  C   UNL     1     -10.193  -9.852  18.528  0.00  0.00    +0.044 A 
ATOM     27  C   UNL     1     -10.099 -10.591  19.697  0.00  0.00    +0.118 A 
BRANCH  27   7
ATOM      7  N   UNL     1     -11.251 -10.650  20.520  0.00  0.00    -0.332 N 
ATOM     28  C   UNL     1     -12.286 -11.614  20.328  0.00  0.00    +0.127 C 
ATOM     29  H   UNL     1     -11.440  -9.846  21.109  0.00  0.00    +0.147 HD
ENDBRANCH  27   7
ENDBRANCH  17  19
ENDBRANCH   8  13
BRANCH   3  12
ATOM     12  C   UNL     1      -3.751 -12.104  13.697  0.00  0.00    +0.159 C 
BRANCH  12  14
ATOM      2  O   UNL     1      -4.525 -10.192  12.408  0.00  0.00    -0.458 OA
ATOM     14  C   UNL     1      -4.024 -11.455  12.367  0.00  0.00    +0.120 A 
ATOM     15  C   UNL     1      -3.873 -11.877  11.066  0.00  0.00    +0.054 A 
ATOM     16  C   UNL     1      -4.308 -10.805  10.244  0.00  0.00    +0.020 A 
ATOM     18  C   UNL     1      -4.698  -9.793  11.115  0.00  0.00    +0.135 A 
ATOM     20  C   UNL     1      -4.416 -10.577   8.861  0.00  0.00    +0.011 A 
ATOM     21  C   UNL     1      -5.193  -8.557  10.706  0.00  0.00    +0.047 A 
ATOM     22  C   UNL     1      -4.911  -9.343   8.418  0.00  0.00    +0.001 A 
ATOM     23  C   UNL     1      -5.292  -8.352   9.327  0.00  0.00    +0.004 A 
ENDBRANCH  12  14
ENDBRANCH   3  12
TORSDOF 5
ENDMDL
MODEL 6
REMARK VINA RESULT:      -6.9     26.442     29.263
REMARK  Name = 45783789
REMARK  6 active torsions:
REMARK  status: ('A' for Active; 'I' for Inactive)
REMARK    1  A    between atoms: N_3  and  C_12
REMARK    2  A    between atoms: N_7  and  C_27
REMARK    3  A    between atoms: N_7  and  C_28
REMARK    4  A    between atoms: C_8  and  C_13
REMARK    5  A    between atoms: C_12  and  C_14
REMARK    6  A    between atoms: C_17  and  C_19
REMARK                            x       y       z     vdW  Elec       q    Type
REMARK                         _______ _______ _______ _____ _____    ______ ____
ROOT
ATOM      3  N   UNL     1      -3.943  -9.841  11.366  0.00  0.00    -0.284 NA
ATOM      8  C   UNL     1      -3.068 -10.708  12.178  0.00  0.00    +0.146 C 
ATOM      9  C   UNL     1      -1.640 -10.221  11.871  0.00  0.00    +0.030 C 
ATOM     10  C   UNL     1      -1.809  -9.122  10.832  0.00  0.00    +0.017 C 
ATOM     11  C   UNL     1      -3.154  -9.428  10.204  0.00  0.00    +0.085 C 
ENDROOT
BRANCH   8  13
ATOM      1  O   UNL     1      -2.346 -10.643  14.513  0.00  0.00    -0.336 OA
ATOM      4  N   UNL     1      -4.569 -10.610  14.241  0.00  0.00    -0.190 NA
ATOM      5  N   UNL     1      -2.894 -10.588  15.800  0.00  0.00    -0.056 NA
ATOM     13  C   UNL     1      -3.400 -10.651  13.655  0.00  0.00    +0.245 A 
ATOM     17  C   UNL     1      -4.209 -10.572  15.557  0.00  0.00    +0.204 A 
BRANCH  17  19
ATOM      6  N   UNL     1      -7.431  -9.960  17.310  0.00  0.00    -0.240 NA
ATOM     19  C   UNL     1      -5.187 -10.517  16.605  0.00  0.00    +0.041 A 
ATOM     24  C   UNL     1      -4.880 -10.942  17.893  0.00  0.00    +0.016 A 
ATOM     25  C   UNL     1      -6.465 -10.038  16.368  0.00  0.00    +0.124 A 
ATOM     26  C   UNL     1      -5.848 -10.877  18.890  0.00  0.00    +0.044 A 
ATOM     27  C   UNL     1      -7.096 -10.382  18.549  0.00  0.00    +0.118 A 
BRANCH  27   7
ATOM      7  N   UNL     1      -8.072 -10.324  19.575  0.00  0.00    -0.332 N 
ATOM     28  C   UNL     1      -9.318 -11.016  19.493  0.00  0.00    +0.127 C 
ATOM     29  H   UNL     1      -7.968  -9.594  20.272  0.00  0.00    +0.147 HD
ENDBRANCH  27   7
ENDBRANCH  17  19
ENDBRANCH   8  13
BRANCH   3  12
ATOM     12  C   UNL     1      -5.193 -10.484  10.980  0.00  0.00    +0.159 C 
BRANCH  12  14
ATOM      2  O   UNL     1      -5.861 -10.124   8.669  0.00  0.00    -0.458 OA
ATOM     14  C   UNL     1      -5.943  -9.681   9.951  0.00  0.00    +0.120 A 
ATOM     15  C   UNL     1      -6.724  -8.552  10.027  0.00  0.00    +0.054 A 
ATOM     16  C   UNL     1      -7.157  -8.274   8.704  0.00  0.00    +0.020 A 
ATOM     18  C   UNL     1      -6.600  -9.269   7.907  0.00  0.00    +0.135 A 
ATOM     20  C   UNL     1      -7.957  -7.294   8.092  0.00  0.00    +0.011 A 
ATOM     21  C   UNL     1      -6.783  -9.360   6.529  0.00  0.00    +0.047 A 
ATOM     22  C   UNL     1      -8.160  -7.358   6.707  0.00  0.00    +0.001 A 
ATOM     23  C   UNL     1      -7.582  -8.375   5.941  0.00  0.00    +0.004 A 
ENDBRANCH  12  14
ENDBRANCH   3  12
TORSDOF 5
ENDMDL
MODEL 7
REMARK VINA RESULT:      -6.9     27.048     30.330
REMARK  Name = 45783789
REMARK  6 active torsions:
REMARK  status: ('A' for Active; 'I' for Inactive)
REMARK    1  A    between atoms: N_3  and  C_12
REMARK    2  A    between atoms: N_7  and  C_27
REMARK    3  A    between atoms: N_7  and  C_28
REMARK    4  A    between atoms: C_8  and  C_13
REMARK    5  A    between atoms: C_12  and  C_14
REMARK    6  A    between atoms: C_17  and  C_19
REMARK                            x       y       z     vdW  Elec       q    Type
REMARK                         _______ _______ _______ _____ _____    ______ ____
ROOT
ATOM      3  N   UNL     1     -16.948   4.301  22.903  0.00  0.00    -0.284 NA
ATOM      8  C   UNL     1     -17.965   3.695  23.784  0.00  0.00    +0.146 C 
ATOM      9  C   UNL     1     -18.852   2.861  22.842  0.00  0.00    +0.030 C 
ATOM     10  C   UNL     1     -18.295   3.110  21.447  0.00  0.00    +0.017 C 
ATOM     11  C   UNL     1     -17.568   4.432  21.584  0.00  0.00    +0.085 C 
ENDROOT
BRANCH   8  13
ATOM      1  O   UNL     1     -17.023   1.586  24.585  0.00  0.00    -0.336 OA
ATOM      4  N   UNL     1     -17.091   3.204  26.132  0.00  0.00    -0.190 NA
ATOM      5  N   UNL     1     -16.485   1.031  25.752  0.00  0.00    -0.056 NA
ATOM     13  C   UNL     1     -17.353   2.867  24.896  0.00  0.00    +0.245 A 
ATOM     17  C   UNL     1     -16.560   2.046  26.620  0.00  0.00    +0.204 A 
BRANCH  17  19
ATOM      6  N   UNL     1     -15.875   0.588  29.972  0.00  0.00    -0.240 NA
ATOM     19  C   UNL     1     -16.111   1.934  27.978  0.00  0.00    +0.041 A 
ATOM     24  C   UNL     1     -15.498   3.005  28.620  0.00  0.00    +0.016 A 
ATOM     25  C   UNL     1     -16.275   0.758  28.692  0.00  0.00    +0.124 A 
ATOM     26  C   UNL     1     -15.073   2.869  29.937  0.00  0.00    +0.044 A 
ATOM     27  C   UNL     1     -15.284   1.650  30.563  0.00  0.00    +0.118 A 
BRANCH  27   7
ATOM      7  N   UNL     1     -14.844   1.526  31.904  0.00  0.00    -0.332 N 
ATOM     28  C   UNL     1     -14.008   2.496  32.533  0.00  0.00    +0.127 C 
ATOM     29  H   UNL     1     -14.945   0.616  32.341  0.00  0.00    +0.147 HD
ENDBRANCH  27   7
ENDBRANCH  17  19
ENDBRANCH   8  13
BRANCH   3  12
ATOM     12  C   UNL     1     -16.442   5.575  23.400  0.00  0.00    +0.159 C 
BRANCH  12  14
ATOM      2  O   UNL     1     -15.123   7.314  22.328  0.00  0.00    -0.458 OA
ATOM     14  C   UNL     1     -15.193   6.003  22.678  0.00  0.00    +0.120 A 
ATOM     15  C   UNL     1     -14.061   5.331  22.277  0.00  0.00    +0.054 A 
ATOM     16  C   UNL     1     -13.232   6.288  21.636  0.00  0.00    +0.020 A 
ATOM     18  C   UNL     1     -13.928   7.491  21.693  0.00  0.00    +0.135 A 
ATOM     20  C   UNL     1     -11.972   6.271  21.013  0.00  0.00    +0.011 A 
ATOM     21  C   UNL     1     -13.457   8.693  21.171  0.00  0.00    +0.047 A 
ATOM     22  C   UNL     1     -11.470   7.465  20.478  0.00  0.00    +0.001 A 
ATOM     23  C   UNL     1     -12.201   8.654  20.556  0.00  0.00    +0.004 A 
ENDBRANCH  12  14
ENDBRANCH   3  12
TORSDOF 5
ENDMDL
MODEL 8
REMARK VINA RESULT:      -6.8      2.644      5.814
REMARK  Name = 45783789
REMARK  6 active torsions:
REMARK  status: ('A' for Active; 'I' for Inactive)
REMARK    1  A    between atoms: N_3  and  C_12
REMARK    2  A    between atoms: N_7  and  C_27
REMARK    3  A    between atoms: N_7  and  C_28
REMARK    4  A    between atoms: C_8  and  C_13
REMARK    5  A    between atoms: C_12  and  C_14
REMARK    6  A    between atoms: C_17  and  C_19
REMARK                            x       y       z     vdW  Elec       q    Type
REMARK                         _______ _______ _______ _____ _____    ______ ____
ROOT
ATOM      3  N   UNL     1      12.477   9.593  21.894  0.00  0.00    -0.284 NA
ATOM      8  C   UNL     1      11.993  10.509  20.842  0.00  0.00    +0.146 C 
ATOM      9  C   UNL     1      11.354  11.682  21.607  0.00  0.00    +0.030 C 
ATOM     10  C   UNL     1      11.471  11.308  23.078  0.00  0.00    +0.017 C 
ATOM     11  C   UNL     1      11.609   9.799  23.053  0.00  0.00    +0.085 C 
ENDROOT
BRANCH   8  13
ATOM      1  O   UNL     1      14.084  11.713  20.449  0.00  0.00    -0.336 OA
ATOM      4  N   UNL     1      13.245  10.717  18.627  0.00  0.00    -0.190 NA
ATOM      5  N   UNL     1      14.974  11.998  19.406  0.00  0.00    -0.056 NA
ATOM     13  C   UNL     1      13.096  10.955  19.905  0.00  0.00    +0.245 A 
ATOM     17  C   UNL     1      14.410  11.377  18.364  0.00  0.00    +0.204 A 
BRANCH  17  19
ATOM      6  N   UNL     1      16.431  12.482  15.444  0.00  0.00    -0.240 NA
ATOM     19  C   UNL     1      14.987  11.396  17.051  0.00  0.00    +0.041 A 
ATOM     24  C   UNL     1      14.692  10.402  16.124  0.00  0.00    +0.016 A 
ATOM     25  C   UNL     1      15.854  12.405  16.664  0.00  0.00    +0.124 A 
ATOM     26  C   UNL     1      15.266  10.446  14.858  0.00  0.00    +0.044 A 
ATOM     27  C   UNL     1      16.121  11.498  14.571  0.00  0.00    +0.118 A 
BRANCH  27   7
ATOM      7  N   UNL     1      16.699  11.528  13.277  0.00  0.00    -0.332 N 
ATOM     28  C   UNL     1      16.220  12.382  12.240  0.00  0.00    +0.127 C 
ATOM     29  H   UNL     1      17.317  10.762  13.029  0.00  0.00    +0.147 HD
ENDBRANCH  27   7
ENDBRANCH  17  19
ENDBRANCH   8  13
BRANCH   3  12
ATOM     12  C   UNL     1      12.509   8.199  21.473  0.00  0.00    +0.159 C 
BRANCH  12  14
ATOM      2  O   UNL     1      14.162   7.181  20.006  0.00  0.00    -0.458 OA
ATOM     14  C   UNL     1      13.915   7.718  21.230  0.00  0.00    +0.120 A 
ATOM     15  C   UNL     1      15.050   7.701  22.008  0.00  0.00    +0.054 A 
ATOM     16  C   UNL     1      16.070   7.115  21.214  0.00  0.00    +0.020 A 
ATOM     18  C   UNL     1      15.475   6.814  19.994  0.00  0.00    +0.135 A 
ATOM     20  C   UNL     1      17.430   6.806  21.392  0.00  0.00    +0.011 A 
ATOM     21  C   UNL     1      16.142   6.221  18.924  0.00  0.00    +0.047 A 
ATOM     22  C   UNL     1      18.128   6.208  20.334  0.00  0.00    +0.001 A 
ATOM     23  C   UNL     1      17.493   5.922  19.122  0.00  0.00    +0.004 A 
ENDBRANCH  12  14
ENDBRANCH   3  12
TORSDOF 5
ENDMDL
MODEL 9
REMARK VINA RESULT:      -6.8      3.693      5.033
REMARK  Name = 45783789
REMARK  6 active torsions:
REMARK  status: ('A' for Active; 'I' for Inactive)
REMARK    1  A    between atoms: N_3  and  C_12
REMARK    2  A    between atoms: N_7  and  C_27
REMARK    3  A    between atoms: N_7  and  C_28
REMARK    4  A    between atoms: C_8  and  C_13
REMARK    5  A    between atoms: C_12  and  C_14
REMARK    6  A    between atoms: C_17  and  C_19
REMARK                            x       y       z     vdW  Elec       q    Type
REMARK                         _______ _______ _______ _____ _____    ______ ____
ROOT
ATOM      3  N   UNL     1      12.961  11.031  20.279  0.00  0.00    -0.284 NA
ATOM      8  C   UNL     1      13.029  10.139  19.105  0.00  0.00    +0.146 C 
ATOM      9  C   UNL     1      13.584  11.022  17.973  0.00  0.00    +0.030 C 
ATOM     10  C   UNL     1      13.738  12.405  18.587  0.00  0.00    +0.017 C 
ATOM     11  C   UNL     1      12.776  12.386  19.757  0.00  0.00    +0.085 C 
ENDROOT
BRANCH   8  13
ATOM      1  O   UNL     1      13.210   7.742  19.550  0.00  0.00    -0.336 OA
ATOM      4  N   UNL     1      15.180   8.799  19.420  0.00  0.00    -0.190 NA
ATOM      5  N   UNL     1      14.190   6.764  19.760  0.00  0.00    -0.056 NA
ATOM     13  C   UNL     1      13.877   8.909  19.357  0.00  0.00    +0.245 A 
ATOM     17  C   UNL     1      15.325   7.465  19.669  0.00  0.00    +0.204 A 
BRANCH  17  19
ATOM      6  N   UNL     1      18.714   6.742  21.020  0.00  0.00    -0.240 NA
ATOM     19  C   UNL     1      16.618   6.863  19.820  0.00  0.00    +0.041 A 
ATOM     24  C   UNL     1      17.042   5.853  18.963  0.00  0.00    +0.016 A 
ATOM     25  C   UNL     1      17.484   7.268  20.823  0.00  0.00    +0.124 A 
ATOM     26  C   UNL     1      18.301   5.287  19.133  0.00  0.00    +0.044 A 
ATOM     27  C   UNL     1      19.091   5.763  20.167  0.00  0.00    +0.118 A 
BRANCH  27   7
ATOM      7  N   UNL     1      20.370   5.175  20.329  0.00  0.00    -0.332 N 
ATOM     28  C   UNL     1      21.548   5.946  20.563  0.00  0.00    +0.127 C 
ATOM     29  H   UNL     1      20.473   4.206  20.046  0.00  0.00    +0.147 HD
ENDBRANCH  27   7
ENDBRANCH  17  19
ENDBRANCH   8  13
BRANCH   3  12
ATOM     12  C   UNL     1      11.916  10.660  21.224  0.00  0.00    +0.159 C 
BRANCH  12  14
ATOM      2  O   UNL     1      10.830  12.242  22.719  0.00  0.00    -0.458 OA
ATOM     14  C   UNL     1      11.949  11.515  22.462  0.00  0.00    +0.120 A 
ATOM     15  C   UNL     1      12.903  11.731  23.430  0.00  0.00    +0.054 A 
ATOM     16  C   UNL     1      12.339  12.654  24.349  0.00  0.00    +0.020 A 
ATOM     18  C   UNL     1      11.065  12.936  23.869  0.00  0.00    +0.135 A 
ATOM     20  C   UNL     1      12.764  13.281  25.533  0.00  0.00    +0.011 A 
ATOM     21  C   UNL     1      10.171  13.807  24.488  0.00  0.00    +0.047 A 
ATOM     22  C   UNL     1      11.888  14.163  26.179  0.00  0.00    +0.001 A 
ATOM     23  C   UNL     1      10.614  14.421  25.664  0.00  0.00    +0.004 A 
ENDBRANCH  12  14
ENDBRANCH   3  12
TORSDOF 5
ENDMDL
MODEL 10
REMARK VINA RESULT:      -6.8     27.515     29.413
REMARK  Name = 45783789
REMARK  6 active torsions:
REMARK  status: ('A' for Active; 'I' for Inactive)
REMARK    1  A    between atoms: N_3  and  C_12
REMARK    2  A    between atoms: N_7  and  C_27
REMARK    3  A    between atoms: N_7  and  C_28
REMARK    4  A    between atoms: C_8  and  C_13
REMARK    5  A    between atoms: C_12  and  C_14
REMARK    6  A    between atoms: C_17  and  C_19
REMARK                            x       y       z     vdW  Elec       q    Type
REMARK                         _______ _______ _______ _____ _____    ______ ____
ROOT
ATOM      3  N   UNL     1      -6.219  -9.400   8.672  0.00  0.00    -0.284 NA
ATOM      8  C   UNL     1      -6.819  -8.684   9.815  0.00  0.00    +0.146 C 
ATOM      9  C   UNL     1      -8.268  -8.396   9.380  0.00  0.00    +0.030 C 
ATOM     10  C   UNL     1      -8.370  -8.930   7.959  0.00  0.00    +0.017 C 
ATOM     11  C   UNL     1      -6.933  -8.945   7.479  0.00  0.00    +0.085 C 
ENDROOT
BRANCH   8  13
ATOM      1  O   UNL     1      -7.289 -10.721  11.083  0.00  0.00    -0.336 OA
ATOM      4  N   UNL     1      -6.223  -9.139  12.256  0.00  0.00    -0.190 NA
ATOM      5  N   UNL     1      -7.100 -11.249  12.366  0.00  0.00    -0.056 NA
ATOM     13  C   UNL     1      -6.743  -9.477  11.104  0.00  0.00    +0.245 A 
ATOM     17  C   UNL     1      -6.465 -10.257  12.999  0.00  0.00    +0.204 A 
BRANCH  17  19
ATOM      6  N   UNL     1      -6.575 -10.004  16.708  0.00  0.00    -0.240 NA
ATOM     19  C   UNL     1      -6.059 -10.353  14.372  0.00  0.00    +0.041 A 
ATOM     24  C   UNL     1      -4.812 -10.863  14.716  0.00  0.00    +0.016 A 
ATOM     25  C   UNL     1      -6.896  -9.940  15.396  0.00  0.00    +0.124 A 
ATOM     26  C   UNL     1      -4.445 -10.945  16.055  0.00  0.00    +0.044 A 
ATOM     27  C   UNL     1      -5.355 -10.505  17.003  0.00  0.00    +0.118 A 
BRANCH  27   7
ATOM      7  N   UNL     1      -4.968 -10.596  18.364  0.00  0.00    -0.332 N 
ATOM     28  C   UNL     1      -4.272 -11.724  18.892  0.00  0.00    +0.127 C 
ATOM     29  H   UNL     1      -5.398  -9.944  19.011  0.00  0.00    +0.147 HD
ENDBRANCH  27   7
ENDBRANCH  17  19
ENDBRANCH   8  13
BRANCH   3  12
ATOM     12  C   UNL     1      -4.780  -9.201   8.561  0.00  0.00    +0.159 C 
BRANCH  12  14
ATOM      2  O   UNL     1      -4.310 -11.242   9.797  0.00  0.00    -0.458 OA
ATOM     14  C   UNL     1      -4.028  -9.922   9.647  0.00  0.00    +0.120 A 
ATOM     15  C   UNL     1      -3.079  -9.520  10.559  0.00  0.00    +0.054 A 
ATOM     16  C   UNL     1      -2.750 -10.668  11.326  0.00  0.00    +0.020 A 
ATOM     18  C   UNL     1      -3.532 -11.700  10.820  0.00  0.00    +0.135 A 
ATOM     20  C   UNL     1      -1.878 -10.949  12.393  0.00  0.00    +0.011 A 
ATOM     21  C   UNL     1      -3.511 -13.006  11.301  0.00  0.00    +0.047 A 
ATOM     22  C   UNL     1      -1.834 -12.254  12.900  0.00  0.00    +0.001 A 
ATOM     23  C   UNL     1      -2.637 -13.264  12.362  0.00  0.00    +0.004 A 
ENDBRANCH  12  14
ENDBRANCH   3  12
TORSDOF 5
ENDMDL
