MODEL 1
REMARK VINA RESULT:      -7.7      0.000      0.000
REMARK  Name = 45783524
REMARK  5 active torsions:
REMARK  status: ('A' for Active; 'I' for Inactive)
REMARK    1  A    between atoms: N_3  and  C_13
REMARK    2  A    between atoms: N_4  and  C_22
REMARK    3  A    between atoms: C_9  and  C_14
REMARK    4  A    between atoms: C_13  and  C_15
REMARK    5  A    between atoms: C_20  and  C_23
REMARK                            x       y       z     vdW  Elec       q    Type
REMARK                         _______ _______ _______ _____ _____    ______ ____
ROOT
ATOM      1  O   UNL     1      14.632  12.234  21.318  0.00  0.00    -0.336 OA
ATOM      5  N   UNL     1      14.666  10.360  22.545  0.00  0.00    -0.190 NA
ATOM      6  N   UNL     1      15.775  11.529  20.921  0.00  0.00    -0.056 NA
ATOM     14  C   UNL     1      14.037  11.476  22.277  0.00  0.00    +0.245 A 
ATOM     20  C   UNL     1      15.726  10.436  21.688  0.00  0.00    +0.204 A 
ENDROOT
BRANCH  20  23
ATOM      2  O   UNL     1      21.780   4.685  21.233  0.00  0.00    -0.377 OA
ATOM      7  N   UNL     1      19.645   6.496  21.464  0.00  0.00    -0.311 N 
ATOM      8  N   UNL     1      19.046   8.764  21.779  0.00  0.00    -0.240 NA
ATOM     23  C   UNL     1      16.719   9.404  21.626  0.00  0.00    +0.041 A 
ATOM     26  C   UNL     1      19.831   5.725  20.230  0.00  0.00    +0.134 C 
ATOM     27  C   UNL     1      20.849   6.660  22.288  0.00  0.00    +0.134 C 
ATOM     28  C   UNL     1      18.665   7.493  21.521  0.00  0.00    +0.121 A 
ATOM     29  C   UNL     1      20.560   4.422  20.542  0.00  0.00    +0.178 C 
ATOM     30  C   UNL     1      21.522   5.307  22.491  0.00  0.00    +0.178 C 
ATOM     31  C   UNL     1      16.366   8.085  21.363  0.00  0.00    +0.016 A 
ATOM     32  C   UNL     1      18.060   9.688  21.825  0.00  0.00    +0.124 A 
ATOM     33  C   UNL     1      17.352   7.105  21.307  0.00  0.00    +0.044 A 
ENDBRANCH  20  23
BRANCH  14   9
ATOM      3  N   UNL     1      11.785  10.969  23.206  0.00  0.00    -0.287 NA
ATOM      9  C   UNL     1      12.760  12.027  22.877  0.00  0.00    +0.146 C 
ATOM     10  C   UNL     1      12.999  12.765  24.207  0.00  0.00    +0.030 C 
ATOM     11  C   UNL     1      11.001  11.466  24.337  0.00  0.00    +0.085 C 
ATOM     12  C   UNL     1      12.072  12.093  25.208  0.00  0.00    +0.017 C 
BRANCH   3  13
ATOM     13  C   UNL     1      10.941  10.593  22.078  0.00  0.00    +0.122 C 
BRANCH  13  15
ATOM      4  N   UNL     1      11.366   7.014  21.340  0.00  0.00    -0.349 N 
ATOM     15  C   UNL     1      11.278   9.221  21.559  0.00  0.00    -0.008 A 
ATOM     16  C   UNL     1      12.097   8.917  20.435  0.00  0.00    +0.004 A 
ATOM     17  C   UNL     1      10.844   8.031  22.095  0.00  0.00    +0.091 A 
ATOM     18  C   UNL     1      12.135   7.525  20.320  0.00  0.00    +0.049 A 
ATOM     19  C   UNL     1      12.811   9.694  19.502  0.00  0.00    +0.010 A 
ATOM     21  C   UNL     1      12.854   6.870  19.314  0.00  0.00    +0.026 A 
ATOM     22  C   UNL     1      11.132   5.608  21.593  0.00  0.00    +0.149 C 
ATOM     24  C   UNL     1      13.536   9.053  18.491  0.00  0.00    +0.001 A 
ATOM     25  C   UNL     1      13.555   7.663  18.400  0.00  0.00    +0.002 A 
ENDBRANCH  13  15
ENDBRANCH   3  13
ENDBRANCH  14   9
TORSDOF 4
ENDMDL
MODEL 2
REMARK VINA RESULT:      -7.1     26.860     31.083
REMARK  Name = 45783524
REMARK  5 active torsions:
REMARK  status: ('A' for Active; 'I' for Inactive)
REMARK    1  A    between atoms: N_3  and  C_13
REMARK    2  A    between atoms: N_4  and  C_22
REMARK    3  A    between atoms: C_9  and  C_14
REMARK    4  A    between atoms: C_13  and  C_15
REMARK    5  A    between atoms: C_20  and  C_23
REMARK                            x       y       z     vdW  Elec       q    Type
REMARK                         _______ _______ _______ _____ _____    ______ ____
ROOT
ATOM      1  O   UNL     1     -14.946   3.993  24.218  0.00  0.00    -0.336 OA
ATOM      5  N   UNL     1     -15.605   4.458  22.128  0.00  0.00    -0.190 NA
ATOM      6  N   UNL     1     -14.007   4.895  23.705  0.00  0.00    -0.056 NA
ATOM     14  C   UNL     1     -15.852   3.789  23.225  0.00  0.00    +0.245 A 
ATOM     20  C   UNL     1     -14.464   5.124  22.470  0.00  0.00    +0.204 A 
ENDROOT
BRANCH  20  23
ATOM      2  O   UNL     1     -10.928  10.270  16.907  0.00  0.00    -0.377 OA
ATOM      7  N   UNL     1     -11.985   8.580  18.887  0.00  0.00    -0.311 N 
ATOM      8  N   UNL     1     -13.967   7.694  19.829  0.00  0.00    -0.240 NA
ATOM     23  C   UNL     1     -13.803   6.007  21.554  0.00  0.00    +0.041 A 
ATOM     26  C   UNL     1     -11.103   8.041  17.847  0.00  0.00    +0.134 C 
ATOM     27  C   UNL     1     -12.666   9.835  18.541  0.00  0.00    +0.134 C 
ATOM     28  C   UNL     1     -12.616   7.713  19.785  0.00  0.00    +0.121 A 
ATOM     29  C   UNL     1     -10.174   9.138  17.339  0.00  0.00    +0.178 C 
ATOM     30  C   UNL     1     -11.653  10.837  17.997  0.00  0.00    +0.178 C 
ATOM     31  C   UNL     1     -12.415   6.055  21.479  0.00  0.00    +0.016 A 
ATOM     32  C   UNL     1     -14.526   6.839  20.715  0.00  0.00    +0.124 A 
ATOM     33  C   UNL     1     -11.803   6.922  20.580  0.00  0.00    +0.044 A 
ENDBRANCH  20  23
BRANCH  14   9
ATOM      3  N   UNL     1     -17.484   2.975  24.918  0.00  0.00    -0.287 NA
ATOM      9  C   UNL     1     -16.989   2.837  23.534  0.00  0.00    +0.146 C 
ATOM     10  C   UNL     1     -18.226   3.082  22.651  0.00  0.00    +0.030 C 
ATOM     11  C   UNL     1     -18.899   2.603  24.890  0.00  0.00    +0.085 C 
ATOM     12  C   UNL     1     -19.377   3.286  23.624  0.00  0.00    +0.017 C 
BRANCH   3  13
ATOM     13  C   UNL     1     -16.729   2.182  25.881  0.00  0.00    +0.122 C 
BRANCH  13  15
ATOM      4  N   UNL     1     -16.541   4.502  28.730  0.00  0.00    -0.349 N 
ATOM     15  C   UNL     1     -16.565   2.901  27.193  0.00  0.00    -0.008 A 
ATOM     16  C   UNL     1     -16.136   2.330  28.425  0.00  0.00    +0.004 A 
ATOM     17  C   UNL     1     -16.806   4.237  27.413  0.00  0.00    +0.091 A 
ATOM     18  C   UNL     1     -16.130   3.356  29.372  0.00  0.00    +0.049 A 
ATOM     19  C   UNL     1     -15.752   1.035  28.825  0.00  0.00    +0.010 A 
ATOM     21  C   UNL     1     -15.758   3.151  30.705  0.00  0.00    +0.026 A 
ATOM     22  C   UNL     1     -16.680   5.806  29.343  0.00  0.00    +0.149 C 
ATOM     24  C   UNL     1     -15.375   0.815  30.155  0.00  0.00    +0.001 A 
ATOM     25  C   UNL     1     -15.380   1.858  31.079  0.00  0.00    +0.002 A 
ENDBRANCH  13  15
ENDBRANCH   3  13
ENDBRANCH  14   9
TORSDOF 4
ENDMDL
MODEL 3
REMARK VINA RESULT:      -7.1     27.939     30.692
REMARK  Name = 45783524
REMARK  5 active torsions:
REMARK  status: ('A' for Active; 'I' for Inactive)
REMARK    1  A    between atoms: N_3  and  C_13
REMARK    2  A    between atoms: N_4  and  C_22
REMARK    3  A    between atoms: C_9  and  C_14
REMARK    4  A    between atoms: C_13  and  C_15
REMARK    5  A    between atoms: C_20  and  C_23
REMARK                            x       y       z     vdW  Elec       q    Type
REMARK                         _______ _______ _______ _____ _____    ______ ____
ROOT
ATOM      1  O   UNL     1      -2.123  -9.944  11.437  0.00  0.00    -0.336 OA
ATOM      5  N   UNL     1      -4.025 -11.082  11.109  0.00  0.00    -0.190 NA
ATOM      6  N   UNL     1      -2.761  -9.333  10.350  0.00  0.00    -0.056 NA
ATOM     14  C   UNL     1      -2.934 -10.964  11.824  0.00  0.00    +0.245 A 
ATOM     20  C   UNL     1      -3.875 -10.060  10.218  0.00  0.00    +0.204 A 
ENDROOT
BRANCH  20  23
ATOM      2  O   UNL     1      -9.837  -8.398   4.594  0.00  0.00    -0.377 OA
ATOM      7  N   UNL     1      -7.718  -8.962   6.351  0.00  0.00    -0.311 N 
ATOM      8  N   UNL     1      -6.846  -8.604   8.522  0.00  0.00    -0.240 NA
ATOM     23  C   UNL     1      -4.855  -9.792   9.206  0.00  0.00    +0.041 A 
ATOM     26  C   UNL     1      -8.558 -10.047   5.831  0.00  0.00    +0.134 C 
ATOM     27  C   UNL     1      -8.337  -7.631   6.338  0.00  0.00    +0.134 C 
ATOM     28  C   UNL     1      -6.755  -9.234   7.329  0.00  0.00    +0.121 A 
ATOM     29  C   UNL     1      -9.147  -9.642   4.484  0.00  0.00    +0.178 C 
ATOM     30  C   UNL     1      -8.937  -7.355   4.964  0.00  0.00    +0.178 C 
ATOM     31  C   UNL     1      -4.795 -10.421   7.967  0.00  0.00    +0.016 A 
ATOM     32  C   UNL     1      -5.890  -8.901   9.431  0.00  0.00    +0.124 A 
ATOM     33  C   UNL     1      -5.760 -10.142   7.005  0.00  0.00    +0.044 A 
ENDBRANCH  20  23
BRANCH  14   9
ATOM      3  N   UNL     1      -3.437 -11.809  14.109  0.00  0.00    -0.287 NA
ATOM      9  C   UNL     1      -2.462 -11.792  13.000  0.00  0.00    +0.146 C 
ATOM     10  C   UNL     1      -2.256 -13.275  12.639  0.00  0.00    +0.030 C 
ATOM     11  C   UNL     1      -3.258 -13.088  14.797  0.00  0.00    +0.085 C 
ATOM     12  C   UNL     1      -3.105 -14.050  13.636  0.00  0.00    +0.017 C 
BRANCH   3  13
ATOM     13  C   UNL     1      -3.296 -10.676  15.015  0.00  0.00    +0.122 C 
BRANCH  13  15
ATOM      4  N   UNL     1      -6.569  -9.852  16.480  0.00  0.00    -0.349 N 
ATOM     15  C   UNL     1      -4.533 -10.468  15.848  0.00  0.00    -0.008 A 
ATOM     16  C   UNL     1      -4.727 -10.887  17.196  0.00  0.00    +0.004 A 
ATOM     17  C   UNL     1      -5.683  -9.835  15.437  0.00  0.00    +0.091 A 
ATOM     18  C   UNL     1      -6.013 -10.488  17.567  0.00  0.00    +0.049 A 
ATOM     19  C   UNL     1      -3.930 -11.569  18.136  0.00  0.00    +0.010 A 
ATOM     21  C   UNL     1      -6.543 -10.738  18.837  0.00  0.00    +0.026 A 
ATOM     22  C   UNL     1      -7.898  -9.280  16.431  0.00  0.00    +0.149 C 
ATOM     24  C   UNL     1      -4.447 -11.825  19.411  0.00  0.00    +0.001 A 
ATOM     25  C   UNL     1      -5.734 -11.416  19.754  0.00  0.00    +0.002 A 
ENDBRANCH  13  15
ENDBRANCH   3  13
ENDBRANCH  14   9
TORSDOF 4
ENDMDL
MODEL 4
REMARK VINA RESULT:      -7.0      1.864      4.509
REMARK  Name = 45783524
REMARK  5 active torsions:
REMARK  status: ('A' for Active; 'I' for Inactive)
REMARK    1  A    between atoms: N_3  and  C_13
REMARK    2  A    between atoms: N_4  and  C_22
REMARK    3  A    between atoms: C_9  and  C_14
REMARK    4  A    between atoms: C_13  and  C_15
REMARK    5  A    between atoms: C_20  and  C_23
REMARK                            x       y       z     vdW  Elec       q    Type
REMARK                         _______ _______ _______ _____ _____    ______ ____
ROOT
ATOM      1  O   UNL     1      15.189   8.756  20.216  0.00  0.00    -0.336 OA
ATOM      5  N   UNL     1      15.564   6.565  20.492  0.00  0.00    -0.190 NA
ATOM      6  N   UNL     1      16.571   8.617  20.394  0.00  0.00    -0.056 NA
ATOM     14  C   UNL     1      14.672   7.501  20.288  0.00  0.00    +0.245 A 
ATOM     20  C   UNL     1      16.715   7.297  20.550  0.00  0.00    +0.204 A 
ENDROOT
BRANCH  20  23
ATOM      2  O   UNL     1      24.265   4.010  22.008  0.00  0.00    -0.377 OA
ATOM      7  N   UNL     1      21.674   4.955  21.466  0.00  0.00    -0.311 N 
ATOM      8  N   UNL     1      19.994   6.492  22.107  0.00  0.00    -0.240 NA
ATOM     23  C   UNL     1      17.990   6.680  20.766  0.00  0.00    +0.041 A 
ATOM     26  C   UNL     1      22.731   5.069  20.454  0.00  0.00    +0.134 C 
ATOM     27  C   UNL     1      22.145   4.833  22.851  0.00  0.00    +0.134 C 
ATOM     28  C   UNL     1      20.428   5.549  21.241  0.00  0.00    +0.121 A 
ATOM     29  C   UNL     1      23.770   3.973  20.670  0.00  0.00    +0.178 C 
ATOM     30  C   UNL     1      23.215   3.749  22.939  0.00  0.00    +0.178 C 
ATOM     31  C   UNL     1      18.472   5.706  19.897  0.00  0.00    +0.016 A 
ATOM     32  C   UNL     1      18.783   7.034  21.846  0.00  0.00    +0.124 A 
ATOM     33  C   UNL     1      19.713   5.125  20.133  0.00  0.00    +0.044 A 
ENDBRANCH  20  23
BRANCH  14   9
ATOM      3  N   UNL     1      12.449   8.572  20.606  0.00  0.00    -0.287 NA
ATOM      9  C   UNL     1      13.172   7.379  20.123  0.00  0.00    +0.146 C 
ATOM     10  C   UNL     1      12.746   7.233  18.650  0.00  0.00    +0.030 C 
ATOM     11  C   UNL     1      11.227   8.666  19.806  0.00  0.00    +0.085 C 
ATOM     12  C   UNL     1      11.738   8.348  18.415  0.00  0.00    +0.017 C 
BRANCH   3  13
ATOM     13  C   UNL     1      12.166   8.533  22.035  0.00  0.00    +0.122 C 
BRANCH  13  15
ATOM      4  N   UNL     1      11.357  11.815  23.488  0.00  0.00    -0.349 N 
ATOM     15  C   UNL     1      12.119   9.913  22.634  0.00  0.00    -0.008 A 
ATOM     16  C   UNL     1      13.235  10.741  22.946  0.00  0.00    +0.004 A 
ATOM     17  C   UNL     1      10.979  10.602  22.979  0.00  0.00    +0.091 A 
ATOM     18  C   UNL     1      12.729  11.928  23.480  0.00  0.00    +0.049 A 
ATOM     19  C   UNL     1      14.631  10.592  22.825  0.00  0.00    +0.010 A 
ATOM     21  C   UNL     1      13.552  12.977  23.901  0.00  0.00    +0.026 A 
ATOM     22  C   UNL     1      10.434  12.824  23.963  0.00  0.00    +0.149 C 
ATOM     24  C   UNL     1      15.467  11.635  23.240  0.00  0.00    +0.001 A 
ATOM     25  C   UNL     1      14.934  12.807  23.770  0.00  0.00    +0.002 A 
ENDBRANCH  13  15
ENDBRANCH   3  13
ENDBRANCH  14   9
TORSDOF 4
ENDMDL
MODEL 5
REMARK VINA RESULT:      -6.7     26.608     31.010
REMARK  Name = 45783524
REMARK  5 active torsions:
REMARK  status: ('A' for Active; 'I' for Inactive)
REMARK    1  A    between atoms: N_3  and  C_13
REMARK    2  A    between atoms: N_4  and  C_22
REMARK    3  A    between atoms: C_9  and  C_14
REMARK    4  A    between atoms: C_13  and  C_15
REMARK    5  A    between atoms: C_20  and  C_23
REMARK                            x       y       z     vdW  Elec       q    Type
REMARK                         _______ _______ _______ _____ _____    ______ ____
ROOT
ATOM      1  O   UNL     1      -5.114  -9.901  16.288  0.00  0.00    -0.336 OA
ATOM      5  N   UNL     1      -5.333 -11.944  17.183  0.00  0.00    -0.190 NA
ATOM      6  N   UNL     1      -6.313  -9.884  17.009  0.00  0.00    -0.056 NA
ATOM     14  C   UNL     1      -4.600 -11.150  16.442  0.00  0.00    +0.245 A 
ATOM     20  C   UNL     1      -6.373 -11.123  17.509  0.00  0.00    +0.204 A 
ENDROOT
BRANCH  20  23
ATOM      2  O   UNL     1     -12.687 -14.074  22.130  0.00  0.00    -0.377 OA
ATOM      7  N   UNL     1     -10.550 -12.950  20.693  0.00  0.00    -0.311 N 
ATOM      8  N   UNL     1      -8.673 -13.410  19.327  0.00  0.00    -0.240 NA
ATOM     23  C   UNL     1      -7.457 -11.571  18.333  0.00  0.00    +0.041 A 
ATOM     26  C   UNL     1     -11.935 -12.632  20.330  0.00  0.00    +0.134 C 
ATOM     27  C   UNL     1     -10.369 -14.208  21.430  0.00  0.00    +0.134 C 
ATOM     28  C   UNL     1      -9.497 -12.498  19.890  0.00  0.00    +0.121 A 
ATOM     29  C   UNL     1     -12.834 -12.778  21.553  0.00  0.00    +0.178 C 
ATOM     30  C   UNL     1     -11.351 -14.268  22.594  0.00  0.00    +0.178 C 
ATOM     31  C   UNL     1      -8.326 -10.664  18.930  0.00  0.00    +0.016 A 
ATOM     32  C   UNL     1      -7.671 -12.920  18.561  0.00  0.00    +0.124 A 
ATOM     33  C   UNL     1      -9.368 -11.129  19.724  0.00  0.00    +0.044 A 
ENDBRANCH  20  23
BRANCH  14   9
ATOM      3  N   UNL     1      -3.203 -10.806  14.412  0.00  0.00    -0.287 NA
ATOM      9  C   UNL     1      -3.284 -11.429  15.747  0.00  0.00    +0.146 C 
ATOM     10  C   UNL     1      -2.075 -10.863  16.516  0.00  0.00    +0.030 C 
ATOM     11  C   UNL     1      -1.787 -10.525  14.171  0.00  0.00    +0.085 C 
ATOM     12  C   UNL     1      -1.342  -9.983  15.514  0.00  0.00    +0.017 C 
BRANCH   3  13
ATOM     13  C   UNL     1      -3.786 -11.627  13.358  0.00  0.00    +0.122 C 
BRANCH  13  15
ATOM      4  N   UNL     1      -6.837 -10.080  12.003  0.00  0.00    -0.349 N 
ATOM     15  C   UNL     1      -4.860 -10.890  12.603  0.00  0.00    -0.008 A 
ATOM     16  C   UNL     1      -4.684 -10.111  11.424  0.00  0.00    +0.004 A 
ATOM     17  C   UNL     1      -6.194 -10.852  12.934  0.00  0.00    +0.091 A 
ATOM     18  C   UNL     1      -5.940  -9.614  11.070  0.00  0.00    +0.049 A 
ATOM     19  C   UNL     1      -3.572  -9.780  10.623  0.00  0.00    +0.010 A 
ATOM     21  C   UNL     1      -6.141  -8.799   9.950  0.00  0.00    +0.026 A 
ATOM     22  C   UNL     1      -8.258  -9.802  12.015  0.00  0.00    +0.149 C 
ATOM     24  C   UNL     1      -3.759  -8.966   9.499  0.00  0.00    +0.001 A 
ATOM     25  C   UNL     1      -5.024  -8.484   9.170  0.00  0.00    +0.002 A 
ENDBRANCH  13  15
ENDBRANCH   3  13
ENDBRANCH  14   9
TORSDOF 4
ENDMDL
MODEL 6
REMARK VINA RESULT:      -6.7     28.229     31.348
REMARK  Name = 45783524
REMARK  5 active torsions:
REMARK  status: ('A' for Active; 'I' for Inactive)
REMARK    1  A    between atoms: N_3  and  C_13
REMARK    2  A    between atoms: N_4  and  C_22
REMARK    3  A    between atoms: C_9  and  C_14
REMARK    4  A    between atoms: C_13  and  C_15
REMARK    5  A    between atoms: C_20  and  C_23
REMARK                            x       y       z     vdW  Elec       q    Type
REMARK                         _______ _______ _______ _____ _____    ______ ____
ROOT
ATOM      1  O   UNL     1      -8.227  -9.994  17.993  0.00  0.00    -0.336 OA
ATOM      5  N   UNL     1      -8.268  -9.483  15.812  0.00  0.00    -0.190 NA
ATOM      6  N   UNL     1      -9.365  -9.202  17.800  0.00  0.00    -0.056 NA
ATOM     14  C   UNL     1      -7.638 -10.110  16.774  0.00  0.00    +0.245 A 
ATOM     20  C   UNL     1      -9.322  -8.941  16.489  0.00  0.00    +0.204 A 
ENDROOT
BRANCH  20  23
ATOM      2  O   UNL     1     -15.035  -4.487  12.313  0.00  0.00    -0.377 OA
ATOM      7  N   UNL     1     -13.177  -5.913  13.865  0.00  0.00    -0.311 N 
ATOM      8  N   UNL     1     -11.949  -7.926  14.062  0.00  0.00    -0.240 NA
ATOM     23  C   UNL     1     -10.311  -8.142  15.828  0.00  0.00    +0.041 A 
ATOM     26  C   UNL     1     -12.807  -4.628  13.261  0.00  0.00    +0.134 C 
ATOM     27  C   UNL     1     -14.292  -6.612  13.214  0.00  0.00    +0.134 C 
ATOM     28  C   UNL     1     -12.208  -6.680  14.519  0.00  0.00    +0.121 A 
ATOM     29  C   UNL     1     -14.054  -3.773  13.063  0.00  0.00    +0.178 C 
ATOM     30  C   UNL     1     -15.460  -5.651  13.020  0.00  0.00    +0.178 C 
ATOM     31  C   UNL     1     -10.606  -6.857  16.269  0.00  0.00    +0.016 A 
ATOM     32  C   UNL     1     -11.005  -8.626  14.731  0.00  0.00    +0.124 A 
ATOM     33  C   UNL     1     -11.571  -6.105  15.607  0.00  0.00    +0.044 A 
ENDBRANCH  20  23
BRANCH  14   9
ATOM      3  N   UNL     1      -5.581 -10.672  15.492  0.00  0.00    -0.287 NA
ATOM      9  C   UNL     1      -6.368 -10.933  16.713  0.00  0.00    +0.146 C 
ATOM     10  C   UNL     1      -5.404 -10.623  17.873  0.00  0.00    +0.030 C 
ATOM     11  C   UNL     1      -4.181 -10.911  15.844  0.00  0.00    +0.085 C 
ATOM     12  C   UNL     1      -4.085 -10.258  17.208  0.00  0.00    +0.017 C 
BRANCH   3  13
ATOM     13  C   UNL     1      -6.004 -11.477  14.352  0.00  0.00    +0.122 C 
BRANCH  13  15
ATOM      4  N   UNL     1      -6.666  -9.503  11.319  0.00  0.00    -0.349 N 
ATOM     15  C   UNL     1      -5.992 -10.685  13.072  0.00  0.00    -0.008 A 
ATOM     16  C   UNL     1      -4.849 -10.359  12.288  0.00  0.00    +0.004 A 
ATOM     17  C   UNL     1      -7.093 -10.145  12.450  0.00  0.00    +0.091 A 
ATOM     18  C   UNL     1      -5.300  -9.617  11.194  0.00  0.00    +0.049 A 
ATOM     19  C   UNL     1      -3.470 -10.625  12.406  0.00  0.00    +0.010 A 
ATOM     21  C   UNL     1      -4.438  -9.126  10.208  0.00  0.00    +0.026 A 
ATOM     22  C   UNL     1      -7.539  -8.808  10.397  0.00  0.00    +0.149 C 
ATOM     24  C   UNL     1      -2.596 -10.141  11.426  0.00  0.00    +0.001 A 
ATOM     25  C   UNL     1      -3.074  -9.403  10.345  0.00  0.00    +0.002 A 
ENDBRANCH  13  15
ENDBRANCH   3  13
ENDBRANCH  14   9
TORSDOF 4
ENDMDL
MODEL 7
REMARK VINA RESULT:      -6.5     17.901     20.664
REMARK  Name = 45783524
REMARK  5 active torsions:
REMARK  status: ('A' for Active; 'I' for Inactive)
REMARK    1  A    between atoms: N_3  and  C_13
REMARK    2  A    between atoms: N_4  and  C_22
REMARK    3  A    between atoms: C_9  and  C_14
REMARK    4  A    between atoms: C_13  and  C_15
REMARK    5  A    between atoms: C_20  and  C_23
REMARK                            x       y       z     vdW  Elec       q    Type
REMARK                         _______ _______ _______ _____ _____    ______ ____
ROOT
ATOM      1  O   UNL     1      10.180   4.477   5.559  0.00  0.00    -0.336 OA
ATOM      5  N   UNL     1      10.864   5.985   4.050  0.00  0.00    -0.190 NA
ATOM      6  N   UNL     1      10.295   3.789   4.345  0.00  0.00    -0.056 NA
ATOM     14  C   UNL     1      10.533   5.763   5.297  0.00  0.00    +0.245 A 
ATOM     20  C   UNL     1      10.704   4.745   3.504  0.00  0.00    +0.204 A 
ENDROOT
BRANCH  20  23
ATOM      2  O   UNL     1      11.806   3.247  -4.649  0.00  0.00    -0.377 OA
ATOM      7  N   UNL     1      11.603   3.803  -1.902  0.00  0.00    -0.311 N 
ATOM      8  N   UNL     1      10.169   4.540  -0.170  0.00  0.00    -0.240 NA
ATOM     23  C   UNL     1      10.958   4.494   2.116  0.00  0.00    +0.041 A 
ATOM     26  C   UNL     1      11.920   2.447  -2.362  0.00  0.00    +0.134 C 
ATOM     27  C   UNL     1      10.916   4.652  -2.884  0.00  0.00    +0.134 C 
ATOM     28  C   UNL     1      11.369   4.042  -0.544  0.00  0.00    +0.121 A 
ATOM     29  C   UNL     1      12.604   2.511  -3.724  0.00  0.00    +0.178 C 
ATOM     30  C   UNL     1      11.654   4.599  -4.217  0.00  0.00    +0.178 C 
ATOM     31  C   UNL     1      12.179   3.982   1.692  0.00  0.00    +0.016 A 
ATOM     32  C   UNL     1       9.995   4.753   1.154  0.00  0.00    +0.124 A 
ATOM     33  C   UNL     1      12.397   3.749   0.338  0.00  0.00    +0.044 A 
ENDBRANCH  20  23
BRANCH  14   9
ATOM      3  N   UNL     1       9.386   7.699   6.359  0.00  0.00    -0.287 NA
ATOM      9  C   UNL     1      10.491   6.726   6.465  0.00  0.00    +0.146 C 
ATOM     10  C   UNL     1      10.258   6.016   7.812  0.00  0.00    +0.030 C 
ATOM     11  C   UNL     1       9.010   8.049   7.730  0.00  0.00    +0.085 C 
ATOM     12  C   UNL     1       9.040   6.699   8.417  0.00  0.00    +0.017 C 
BRANCH   3  13
ATOM     13  C   UNL     1       9.730   8.875   5.568  0.00  0.00    +0.122 C 
BRANCH  13  15
ATOM      4  N   UNL     1       6.741   9.900   3.684  0.00  0.00    -0.349 N 
ATOM     15  C   UNL     1       8.656   9.210   4.568  0.00  0.00    -0.008 A 
ATOM     16  C   UNL     1       8.728   9.035   3.157  0.00  0.00    +0.004 A 
ATOM     17  C   UNL     1       7.422   9.743   4.861  0.00  0.00    +0.091 A 
ATOM     18  C   UNL     1       7.514   9.477   2.627  0.00  0.00    +0.049 A 
ATOM     19  C   UNL     1       9.714   8.544   2.278  0.00  0.00    +0.010 A 
ATOM     21  C   UNL     1       7.235   9.450   1.256  0.00  0.00    +0.026 A 
ATOM     22  C   UNL     1       5.401  10.437   3.583  0.00  0.00    +0.149 C 
ATOM     24  C   UNL     1       9.448   8.510   0.904  0.00  0.00    +0.001 A 
ATOM     25  C   UNL     1       8.227   8.958   0.403  0.00  0.00    +0.002 A 
ENDBRANCH  13  15
ENDBRANCH   3  13
ENDBRANCH  14   9
TORSDOF 4
ENDMDL
MODEL 8
REMARK VINA RESULT:      -6.5     28.278     31.623
REMARK  Name = 45783524
REMARK  5 active torsions:
REMARK  status: ('A' for Active; 'I' for Inactive)
REMARK    1  A    between atoms: N_3  and  C_13
REMARK    2  A    between atoms: N_4  and  C_22
REMARK    3  A    between atoms: C_9  and  C_14
REMARK    4  A    between atoms: C_13  and  C_15
REMARK    5  A    between atoms: C_20  and  C_23
REMARK                            x       y       z     vdW  Elec       q    Type
REMARK                         _______ _______ _______ _____ _____    ______ ____
ROOT
ATOM      1  O   UNL     1     -12.207  -7.978  13.781  0.00  0.00    -0.336 OA
ATOM      5  N   UNL     1     -11.320  -7.523  15.788  0.00  0.00    -0.190 NA
ATOM      6  N   UNL     1     -11.041  -8.747  13.876  0.00  0.00    -0.056 NA
ATOM     14  C   UNL     1     -12.297  -7.287  14.948  0.00  0.00    +0.245 A 
ATOM     20  C   UNL     1     -10.574  -8.425  15.086  0.00  0.00    +0.204 A 
ENDROOT
BRANCH  20  23
ATOM      2  O   UNL     1      -3.531 -11.402  18.472  0.00  0.00    -0.377 OA
ATOM      7  N   UNL     1      -5.915 -10.555  17.249  0.00  0.00    -0.311 N 
ATOM      8  N   UNL     1      -7.867  -9.241  17.501  0.00  0.00    -0.240 NA
ATOM     23  C   UNL     1      -9.369  -8.985  15.623  0.00  0.00    +0.041 A 
ATOM     26  C   UNL     1      -4.617 -10.225  16.650  0.00  0.00    +0.134 C 
ATOM     27  C   UNL     1      -5.883 -10.851  18.687  0.00  0.00    +0.134 C 
ATOM     28  C   UNL     1      -7.088 -10.015  16.712  0.00  0.00    +0.121 A 
ATOM     29  C   UNL     1      -3.583 -11.272  17.052  0.00  0.00    +0.178 C 
ATOM     30  C   UNL     1      -4.782 -11.864  18.980  0.00  0.00    +0.178 C 
ATOM     31  C   UNL     1      -8.542  -9.787  14.843  0.00  0.00    +0.016 A 
ATOM     32  C   UNL     1      -8.990  -8.745  16.933  0.00  0.00    +0.124 A 
ATOM     33  C   UNL     1      -7.378 -10.315  15.390  0.00  0.00    +0.044 A 
ENDBRANCH  20  23
BRANCH  14   9
ATOM      3  N   UNL     1     -13.896  -5.751  13.818  0.00  0.00    -0.287 NA
ATOM      9  C   UNL     1     -13.490  -6.367  15.097  0.00  0.00    +0.146 C 
ATOM     10  C   UNL     1     -14.749  -7.103  15.592  0.00  0.00    +0.030 C 
ATOM     11  C   UNL     1     -15.336  -5.513  13.912  0.00  0.00    +0.085 C 
ATOM     12  C   UNL     1     -15.824  -6.793  14.561  0.00  0.00    +0.017 C 
BRANCH   3  13
ATOM     13  C   UNL     1     -13.158  -4.533  13.508  0.00  0.00    +0.122 C 
BRANCH  13  15
ATOM      4  N   UNL     1     -12.360  -4.367   9.920  0.00  0.00    -0.349 N 
ATOM     15  C   UNL     1     -13.063  -4.298  12.024  0.00  0.00    -0.008 A 
ATOM     16  C   UNL     1     -13.947  -3.510  11.233  0.00  0.00    +0.004 A 
ATOM     17  C   UNL     1     -12.099  -4.811  11.189  0.00  0.00    +0.091 A 
ATOM     18  C   UNL     1     -13.483  -3.571   9.917  0.00  0.00    +0.049 A 
ATOM     19  C   UNL     1     -15.100  -2.750  11.512  0.00  0.00    +0.010 A 
ATOM     21  C   UNL     1     -14.118  -2.907   8.861  0.00  0.00    +0.026 A 
ATOM     22  C   UNL     1     -11.561  -4.698   8.759  0.00  0.00    +0.149 C 
ATOM     24  C   UNL     1     -15.745  -2.079  10.466  0.00  0.00    +0.001 A 
ATOM     25  C   UNL     1     -15.260  -2.159   9.162  0.00  0.00    +0.002 A 
ENDBRANCH  13  15
ENDBRANCH   3  13
ENDBRANCH  14   9
TORSDOF 4
ENDMDL
MODEL 9
REMARK VINA RESULT:      -6.5     27.914     32.208
REMARK  Name = 45783524
REMARK  5 active torsions:
REMARK  status: ('A' for Active; 'I' for Inactive)
REMARK    1  A    between atoms: N_3  and  C_13
REMARK    2  A    between atoms: N_4  and  C_22
REMARK    3  A    between atoms: C_9  and  C_14
REMARK    4  A    between atoms: C_13  and  C_15
REMARK    5  A    between atoms: C_20  and  C_23
REMARK                            x       y       z     vdW  Elec       q    Type
REMARK                         _______ _______ _______ _____ _____    ______ ____
ROOT
ATOM      1  O   UNL     1      -9.597 -11.013  20.419  0.00  0.00    -0.336 OA
ATOM      5  N   UNL     1      -9.569 -11.181  18.185  0.00  0.00    -0.190 NA
ATOM      6  N   UNL     1      -8.247 -11.030  20.046  0.00  0.00    -0.056 NA
ATOM     14  C   UNL     1     -10.307 -11.106  19.263  0.00  0.00    +0.245 A 
ATOM     20  C   UNL     1      -8.312 -11.130  18.715  0.00  0.00    +0.204 A 
ENDROOT
BRANCH  20  23
ATOM      2  O   UNL     1      -1.381 -11.755  14.078  0.00  0.00    -0.377 OA
ATOM      7  N   UNL     1      -3.771 -11.428  15.519  0.00  0.00    -0.311 N 
ATOM      8  N   UNL     1      -5.366 -12.496  16.903  0.00  0.00    -0.240 NA
ATOM     23  C   UNL     1      -7.143 -11.183  17.887  0.00  0.00    +0.041 A 
ATOM     26  C   UNL     1      -2.582 -10.644  15.869  0.00  0.00    +0.134 C 
ATOM     27  C   UNL     1      -3.505 -12.679  14.796  0.00  0.00    +0.134 C 
ATOM     28  C   UNL     1      -4.912 -11.361  16.325  0.00  0.00    +0.121 A 
ATOM     29  C   UNL     1      -1.692 -10.482  14.642  0.00  0.00    +0.178 C 
ATOM     30  C   UNL     1      -2.567 -12.407  13.625  0.00  0.00    +0.178 C 
ATOM     31  C   UNL     1      -6.646 -10.037  17.275  0.00  0.00    +0.016 A 
ATOM     32  C   UNL     1      -6.473 -12.376  17.671  0.00  0.00    +0.124 A 
ATOM     33  C   UNL     1      -5.509 -10.120  16.478  0.00  0.00    +0.044 A 
ENDBRANCH  20  23
BRANCH  14   9
ATOM      3  N   UNL     1     -12.274 -11.734  20.653  0.00  0.00    -0.287 NA
ATOM      9  C   UNL     1     -11.816 -11.108  19.397  0.00  0.00    +0.146 C 
ATOM     10  C   UNL     1     -12.411  -9.688  19.429  0.00  0.00    +0.030 C 
ATOM     11  C   UNL     1     -13.539 -11.086  21.001  0.00  0.00    +0.085 C 
ATOM     12  C   UNL     1     -13.236  -9.631  20.707  0.00  0.00    +0.017 C 
BRANCH   3  13
ATOM     13  C   UNL     1     -12.408 -13.183  20.556  0.00  0.00    +0.122 C 
BRANCH  13  15
ATOM      4  N   UNL     1      -9.900 -14.913  22.618  0.00  0.00    -0.349 N 
ATOM     15  C   UNL     1     -11.587 -13.892  21.599  0.00  0.00    -0.008 A 
ATOM     16  C   UNL     1     -12.008 -14.247  22.913  0.00  0.00    +0.004 A 
ATOM     17  C   UNL     1     -10.287 -14.315  21.448  0.00  0.00    +0.091 A 
ATOM     18  C   UNL     1     -10.930 -14.886  23.530  0.00  0.00    +0.049 A 
ATOM     19  C   UNL     1     -13.206 -14.085  23.636  0.00  0.00    +0.010 A 
ATOM     21  C   UNL     1     -10.991 -15.372  24.840  0.00  0.00    +0.026 A 
ATOM     22  C   UNL     1      -8.590 -15.486  22.846  0.00  0.00    +0.149 C 
ATOM     24  C   UNL     1     -13.282 -14.567  24.948  0.00  0.00    +0.001 A 
ATOM     25  C   UNL     1     -12.190 -15.200  25.539  0.00  0.00    +0.002 A 
ENDBRANCH  13  15
ENDBRANCH   3  13
ENDBRANCH  14   9
TORSDOF 4
ENDMDL
MODEL 10
REMARK VINA RESULT:      -6.5     14.123     16.141
REMARK  Name = 45783524
REMARK  5 active torsions:
REMARK  status: ('A' for Active; 'I' for Inactive)
REMARK    1  A    between atoms: N_3  and  C_13
REMARK    2  A    between atoms: N_4  and  C_22
REMARK    3  A    between atoms: C_9  and  C_14
REMARK    4  A    between atoms: C_13  and  C_15
REMARK    5  A    between atoms: C_20  and  C_23
REMARK                            x       y       z     vdW  Elec       q    Type
REMARK                         _______ _______ _______ _____ _____    ______ ____
ROOT
ATOM      1  O   UNL     1      12.924   8.180   7.261  0.00  0.00    -0.336 OA
ATOM      5  N   UNL     1      13.977   9.759   6.070  0.00  0.00    -0.190 NA
ATOM      6  N   UNL     1      14.123   7.603   6.824  0.00  0.00    -0.056 NA
ATOM     14  C   UNL     1      12.917   9.449   6.773  0.00  0.00    +0.245 A 
ATOM     20  C   UNL     1      14.689   8.595   6.129  0.00  0.00    +0.204 A 
ENDROOT
BRANCH  20  23
ATOM      2  O   UNL     1      21.954   7.508   2.133  0.00  0.00    -0.377 OA
ATOM      7  N   UNL     1      19.578   8.023   3.542  0.00  0.00    -0.311 N 
ATOM      8  N   UNL     1      17.223   7.795   3.528  0.00  0.00    -0.240 NA
ATOM     23  C   UNL     1      15.960   8.456   5.482  0.00  0.00    +0.041 A 
ATOM     26  C   UNL     1      20.613   7.161   4.124  0.00  0.00    +0.134 C 
ATOM     27  C   UNL     1      19.613   8.142   2.079  0.00  0.00    +0.134 C 
ATOM     28  C   UNL     1      18.344   8.163   4.187  0.00  0.00    +0.121 A 
ATOM     29  C   UNL     1      21.977   7.541   3.559  0.00  0.00    +0.178 C 
ATOM     30  C   UNL     1      21.031   8.470   1.623  0.00  0.00    +0.178 C 
ATOM     31  C   UNL     1      17.136   8.824   6.127  0.00  0.00    +0.016 A 
ATOM     32  C   UNL     1      16.057   7.952   4.195  0.00  0.00    +0.124 A 
ATOM     33  C   UNL     1      18.356   8.677   5.474  0.00  0.00    +0.044 A 
ENDBRANCH  20  23
BRANCH  14   9
ATOM      3  N   UNL     1      10.539   9.484   7.505  0.00  0.00    -0.287 NA
ATOM      9  C   UNL     1      11.708  10.295   7.112  0.00  0.00    +0.146 C 
ATOM     10  C   UNL     1      11.955  11.231   8.311  0.00  0.00    +0.030 C 
ATOM     11  C   UNL     1       9.758  10.306   8.431  0.00  0.00    +0.085 C 
ATOM     12  C   UNL     1      10.841  10.916   9.298  0.00  0.00    +0.017 C 
BRANCH   3  13
ATOM     13  C   UNL     1       9.745   9.033   6.369  0.00  0.00    +0.122 C 
BRANCH  13  15
ATOM      4  N   UNL     1      10.234   5.599   5.141  0.00  0.00    -0.349 N 
ATOM     15  C   UNL     1       9.890   7.553   6.137  0.00  0.00    -0.008 A 
ATOM     16  C   UNL     1       9.737   6.524   7.109  0.00  0.00    +0.004 A 
ATOM     17  C   UNL     1      10.194   6.953   4.937  0.00  0.00    +0.091 A 
ATOM     18  C   UNL     1       9.959   5.308   6.458  0.00  0.00    +0.049 A 
ATOM     19  C   UNL     1       9.432   6.511   8.485  0.00  0.00    +0.010 A 
ATOM     21  C   UNL     1       9.891   4.076   7.116  0.00  0.00    +0.026 A 
ATOM     22  C   UNL     1      10.526   4.628   4.109  0.00  0.00    +0.149 C 
ATOM     24  C   UNL     1       9.359   5.285   9.156  0.00  0.00    +0.001 A 
ATOM     25  C   UNL     1       9.586   4.088   8.480  0.00  0.00    +0.002 A 
ENDBRANCH  13  15
ENDBRANCH   3  13
ENDBRANCH  14   9
TORSDOF 4
ENDMDL
