MODEL 1
REMARK VINA RESULT:      -6.7      0.000      0.000
REMARK  Name = 44716821
REMARK  12 active torsions:
REMARK  status: ('A' for Active; 'I' for Inactive)
REMARK    1  A    between atoms: S_1  and  N_9
REMARK    2  A    between atoms: S_1  and  C_25
REMARK    3  A    between atoms: N_9  and  C_16
REMARK    4  A    between atoms: N_10  and  C_24
REMARK    5  A    between atoms: N_11  and  C_32
REMARK    6  A    between atoms: N_14  and  C_36
REMARK    7  A    between atoms: C_18  and  C_21
REMARK    8  A    between atoms: C_22  and  C_23
REMARK    9  A    between atoms: C_24  and  C_26
REMARK   10  A    between atoms: C_24  and  C_28
REMARK   11  A    between atoms: C_26  and  C_31
REMARK   12  A    between atoms: C_30  and  C_34
REMARK                            x       y       z     vdW  Elec       q    Type
REMARK                         _______ _______ _______ _____ _____    ______ ____
ROOT
ATOM      4  O   UNL     1      -3.671 -12.943  11.583  0.00  0.00    -0.268 OA
ATOM      8  N   UNL     1      -5.226 -11.205  11.836  0.00  0.00    -0.285 N 
ATOM     16  C   UNL     1      -7.349  -9.575  10.692  0.00  0.00    +0.080 C 
ATOM     17  C   UNL     1      -6.372  -8.982  11.708  0.00  0.00    +0.052 C 
ATOM     18  C   UNL     1      -5.714 -10.040  12.595  0.00  0.00    +0.164 C 
ATOM     19  C   UNL     1      -6.685 -10.697   9.899  0.00  0.00    +0.039 C 
ATOM     20  C   UNL     1      -6.139 -11.767  10.833  0.00  0.00    +0.110 C 
ATOM     22  C   UNL     1      -4.035 -11.892  12.110  0.00  0.00    +0.265 C 
ENDROOT
BRANCH  22  23
ATOM     11  N   UNL     1      -2.142 -10.410  12.854  0.00  0.00    -0.262 N 
ATOM     13  N   UNL     1      -1.442 -10.047  13.942  0.00  0.00    -0.176 NA
ATOM     23  C   UNL     1      -3.122 -11.324  13.109  0.00  0.00    +0.123 A 
ATOM     27  C   UNL     1      -3.058 -11.578  14.457  0.00  0.00    +0.057 A 
ATOM     30  C   UNL     1      -2.006 -10.765  14.918  0.00  0.00    +0.061 A 
ATOM     32  C   UNL     1      -1.811  -9.826  11.575  0.00  0.00    +0.173 C 
ATOM     34  C   UNL     1      -1.505 -10.644  16.298  0.00  0.00    +0.067 C 
ENDBRANCH  22  23
BRANCH  18  21
ATOM      3  O   UNL     1      -6.996 -11.742  13.674  0.00  0.00    -0.274 OA
ATOM     10  N   UNL     1      -7.073  -9.572  14.512  0.00  0.00    -0.302 N 
ATOM     21  C   UNL     1      -6.652 -10.564  13.643  0.00  0.00    +0.234 C 
ATOM     40  H   UNL     1      -6.711  -8.629  14.398  0.00  0.00    +0.150 HD
BRANCH  10  24
ATOM     24  C   UNL     1      -7.998  -9.811  15.596  0.00  0.00    +0.163 C 
BRANCH  24  28
ATOM      7  O   UNL     1     -10.167  -9.513  14.539  0.00  0.00    -0.274 OA
ATOM     15  N   UNL     1      -9.370  -7.845  15.904  0.00  0.00    -0.328 N 
ATOM     28  C   UNL     1      -9.282  -9.063  15.263  0.00  0.00    +0.231 C 
ATOM     41  H   UNL     1     -10.184  -7.252  15.781  0.00  0.00    +0.145 HD
ATOM     42  H   UNL     1      -8.637  -7.490  16.509  0.00  0.00    +0.145 HD
ENDBRANCH  24  28
BRANCH  24  26
ATOM     26  C   UNL     1      -7.442  -9.342  16.946  0.00  0.00    +0.074 C 
BRANCH  26  31
ATOM      2  S   UNL     1      -7.097 -11.621  18.507  0.00  0.00    -0.102 S 
ATOM     31  C   UNL     1      -6.484 -10.335  17.558  0.00  0.00    -0.008 A 
ATOM     35  C   UNL     1      -5.110 -10.369  17.468  0.00  0.00    +0.011 A 
ATOM     37  C   UNL     1      -4.553 -11.465  18.187  0.00  0.00    +0.008 A 
ATOM     38  C   UNL     1      -5.522 -12.228  18.800  0.00  0.00    +0.045 A 
ENDBRANCH  26  31
ENDBRANCH  24  26
ENDBRANCH  10  24
ENDBRANCH  18  21
BRANCH  16   9
ATOM      9  N   UNL     1      -7.794  -8.513   9.758  0.00  0.00    -0.185 NA
ATOM     39  H   UNL     1      -7.361  -7.591   9.888  0.00  0.00    +0.148 HD
BRANCH   9   1
ATOM      1  S   UNL     1      -9.340  -8.596   9.060  0.00  0.00    +0.077 S 
ATOM      5  O   UNL     1     -10.253  -9.247   9.980  0.00  0.00    -0.152 OA
ATOM      6  O   UNL     1      -9.213  -9.078   7.697  0.00  0.00    -0.152 OA
BRANCH   1  25
ATOM     12  N   UNL     1      -8.927  -5.933   8.485  0.00  0.00    -0.216 NA
ATOM     14  N   UNL     1     -10.854  -4.999   9.076  0.00  0.00    -0.338 N 
ATOM     25  C   UNL     1      -9.789  -6.889   8.964  0.00  0.00    +0.211 A 
ATOM     29  C   UNL     1     -10.990  -6.333   9.336  0.00  0.00    +0.135 A 
ATOM     33  C   UNL     1      -9.600  -4.806   8.567  0.00  0.00    +0.201 A 
ATOM     36  C   UNL     1     -11.851  -3.980   9.297  0.00  0.00    +0.150 C 
ENDBRANCH   1  25
ENDBRANCH   9   1
ENDBRANCH  16   9
TORSDOF 9
ENDMDL
MODEL 2
REMARK VINA RESULT:      -6.5     25.914     28.870
REMARK  Name = 44716821
REMARK  12 active torsions:
REMARK  status: ('A' for Active; 'I' for Inactive)
REMARK    1  A    between atoms: S_1  and  N_9
REMARK    2  A    between atoms: S_1  and  C_25
REMARK    3  A    between atoms: N_9  and  C_16
REMARK    4  A    between atoms: N_10  and  C_24
REMARK    5  A    between atoms: N_11  and  C_32
REMARK    6  A    between atoms: N_14  and  C_36
REMARK    7  A    between atoms: C_18  and  C_21
REMARK    8  A    between atoms: C_22  and  C_23
REMARK    9  A    between atoms: C_24  and  C_26
REMARK   10  A    between atoms: C_24  and  C_28
REMARK   11  A    between atoms: C_26  and  C_31
REMARK   12  A    between atoms: C_30  and  C_34
REMARK                            x       y       z     vdW  Elec       q    Type
REMARK                         _______ _______ _______ _____ _____    ______ ____
ROOT
ATOM      4  O   UNL     1      10.209   6.534   4.378  0.00  0.00    -0.268 OA
ATOM      8  N   UNL     1      12.019   7.585   5.436  0.00  0.00    -0.285 N 
ATOM     16  C   UNL     1      14.798   8.445   5.351  0.00  0.00    +0.080 C 
ATOM     17  C   UNL     1      14.160   7.998   6.668  0.00  0.00    +0.052 C 
ATOM     18  C   UNL     1      12.635   8.116   6.665  0.00  0.00    +0.164 C 
ATOM     19  C   UNL     1      14.142   7.739   4.168  0.00  0.00    +0.039 C 
ATOM     20  C   UNL     1      12.638   7.978   4.165  0.00  0.00    +0.110 C 
ATOM     22  C   UNL     1      10.813   6.870   5.396  0.00  0.00    +0.265 C 
ENDROOT
BRANCH  22  23
ATOM     11  N   UNL     1       9.224   7.167   7.326  0.00  0.00    -0.262 N 
ATOM     13  N   UNL     1       8.831   6.592   8.474  0.00  0.00    -0.176 NA
ATOM     23  C   UNL     1      10.200   6.474   6.668  0.00  0.00    +0.123 A 
ATOM     27  C   UNL     1      10.462   5.370   7.442  0.00  0.00    +0.057 A 
ATOM     30  C   UNL     1       9.591   5.495   8.540  0.00  0.00    +0.061 A 
ATOM     32  C   UNL     1       8.609   8.406   6.909  0.00  0.00    +0.173 C 
ATOM     34  C   UNL     1       9.453   4.577   9.683  0.00  0.00    +0.067 C 
ENDBRANCH  22  23
BRANCH  18  21
ATOM      3  O   UNL     1      11.361  10.035   6.031  0.00  0.00    -0.274 OA
ATOM     10  N   UNL     1      12.796  10.189   7.857  0.00  0.00    -0.302 N 
ATOM     21  C   UNL     1      12.178   9.540   6.803  0.00  0.00    +0.234 C 
ATOM     40  H   UNL     1      13.450   9.673   8.440  0.00  0.00    +0.150 HD
BRANCH  10  24
ATOM     24  C   UNL     1      12.547  11.573   8.188  0.00  0.00    +0.163 C 
BRANCH  24  28
ATOM      7  O   UNL     1      13.595  13.527   7.191  0.00  0.00    -0.274 OA
ATOM     15  N   UNL     1      14.912  11.716   7.707  0.00  0.00    -0.328 N 
ATOM     28  C   UNL     1      13.707  12.384   7.627  0.00  0.00    +0.231 C 
ATOM     41  H   UNL     1      15.768  12.152   7.382  0.00  0.00    +0.145 HD
ATOM     42  H   UNL     1      14.993  10.777   8.079  0.00  0.00    +0.145 HD
ENDBRANCH  24  28
BRANCH  24  26
ATOM     26  C   UNL     1      12.425  11.794   9.701  0.00  0.00    +0.074 C 
BRANCH  26  31
ATOM      2  S   UNL     1      10.623  12.324  11.756  0.00  0.00    -0.102 S 
ATOM     31  C   UNL     1      10.994  11.770  10.179  0.00  0.00    -0.008 A 
ATOM     35  C   UNL     1       9.871  11.344   9.504  0.00  0.00    +0.011 A 
ATOM     37  C   UNL     1       8.691  11.475  10.292  0.00  0.00    +0.008 A 
ATOM     38  C   UNL     1       8.956  11.995  11.539  0.00  0.00    +0.045 A 
ENDBRANCH  26  31
ENDBRANCH  24  26
ENDBRANCH  10  24
ENDBRANCH  18  21
BRANCH  16   9
ATOM      9  N   UNL     1      16.246   8.124   5.370  0.00  0.00    -0.185 NA
ATOM     39  H   UNL     1      16.509   7.275   5.884  0.00  0.00    +0.148 HD
BRANCH   9   1
ATOM      1  S   UNL     1      17.390   9.369   5.211  0.00  0.00    +0.077 S 
ATOM      5  O   UNL     1      17.258  10.292   6.323  0.00  0.00    -0.152 OA
ATOM      6  O   UNL     1      17.357   9.862   3.847  0.00  0.00    -0.152 OA
BRANCH   1  25
ATOM     12  N   UNL     1      19.588   8.461   6.601  0.00  0.00    -0.216 NA
ATOM     14  N   UNL     1      20.689   7.289   5.068  0.00  0.00    -0.338 N 
ATOM     25  C   UNL     1      18.912   8.493   5.406  0.00  0.00    +0.211 A 
ATOM     29  C   UNL     1      19.576   7.773   4.441  0.00  0.00    +0.135 A 
ATOM     33  C   UNL     1      20.654   7.727   6.362  0.00  0.00    +0.201 A 
ATOM     36  C   UNL     1      21.713   6.466   4.474  0.00  0.00    +0.150 C 
ENDBRANCH   1  25
ENDBRANCH   9   1
ENDBRANCH  16   9
TORSDOF 9
ENDMDL
MODEL 3
REMARK VINA RESULT:      -6.5     23.124     25.695
REMARK  Name = 44716821
REMARK  12 active torsions:
REMARK  status: ('A' for Active; 'I' for Inactive)
REMARK    1  A    between atoms: S_1  and  N_9
REMARK    2  A    between atoms: S_1  and  C_25
REMARK    3  A    between atoms: N_9  and  C_16
REMARK    4  A    between atoms: N_10  and  C_24
REMARK    5  A    between atoms: N_11  and  C_32
REMARK    6  A    between atoms: N_14  and  C_36
REMARK    7  A    between atoms: C_18  and  C_21
REMARK    8  A    between atoms: C_22  and  C_23
REMARK    9  A    between atoms: C_24  and  C_26
REMARK   10  A    between atoms: C_24  and  C_28
REMARK   11  A    between atoms: C_26  and  C_31
REMARK   12  A    between atoms: C_30  and  C_34
REMARK                            x       y       z     vdW  Elec       q    Type
REMARK                         _______ _______ _______ _____ _____    ______ ____
ROOT
ATOM      4  O   UNL     1      10.794   9.623   7.702  0.00  0.00    -0.268 OA
ATOM      8  N   UNL     1       9.634   8.875   5.806  0.00  0.00    -0.285 N 
ATOM     16  C   UNL     1       7.809   9.452   3.613  0.00  0.00    +0.080 C 
ATOM     17  C   UNL     1       7.828   8.070   4.268  0.00  0.00    +0.052 C 
ATOM     18  C   UNL     1       9.150   7.760   4.973  0.00  0.00    +0.164 C 
ATOM     19  C   UNL     1       8.225  10.527   4.613  0.00  0.00    +0.039 C 
ATOM     20  C   UNL     1       9.592  10.213   5.204  0.00  0.00    +0.110 C 
ATOM     22  C   UNL     1      10.262   8.725   7.051  0.00  0.00    +0.265 C 
ENDROOT
BRANCH  22  23
ATOM     11  N   UNL     1      11.371   6.546   7.648  0.00  0.00    -0.262 N 
ATOM     13  N   UNL     1      11.146   5.375   8.267  0.00  0.00    -0.176 NA
ATOM     23  C   UNL     1      10.296   7.387   7.652  0.00  0.00    +0.123 A 
ATOM     27  C   UNL     1       9.299   6.719   8.319  0.00  0.00    +0.057 A 
ATOM     30  C   UNL     1       9.878   5.486   8.675  0.00  0.00    +0.061 A 
ATOM     32  C   UNL     1      12.668   6.798   7.064  0.00  0.00    +0.173 C 
ATOM     34  C   UNL     1       9.246   4.378   9.411  0.00  0.00    +0.067 C 
ENDBRANCH  22  23
BRANCH  18  21
ATOM      3  O   UNL     1      11.411   7.762   4.205  0.00  0.00    -0.274 OA
ATOM     10  N   UNL     1       9.776   6.758   2.888  0.00  0.00    -0.302 N 
ATOM     21  C   UNL     1      10.247   7.432   4.002  0.00  0.00    +0.234 C 
ATOM     40  H   UNL     1       8.788   6.525   2.833  0.00  0.00    +0.150 HD
BRANCH  10  24
ATOM     24  C   UNL     1      10.627   6.350   1.794  0.00  0.00    +0.163 C 
BRANCH  24  28
ATOM      7  O   UNL     1       9.742   5.959  -0.436  0.00  0.00    -0.274 OA
ATOM     15  N   UNL     1       9.430   8.023   0.524  0.00  0.00    -0.328 N 
ATOM     28  C   UNL     1       9.913   6.731   0.505  0.00  0.00    +0.231 C 
ATOM     41  H   UNL     1       8.920   8.398  -0.268  0.00  0.00    +0.145 HD
ATOM     42  H   UNL     1       9.568   8.647   1.312  0.00  0.00    +0.145 HD
ENDBRANCH  24  28
BRANCH  24  26
ATOM     26  C   UNL     1      10.917   4.844   1.818  0.00  0.00    +0.074 C 
BRANCH  26  31
ATOM      2  S   UNL     1      13.527   5.814   1.788  0.00  0.00    -0.102 S 
ATOM     31  C   UNL     1      12.391   4.534   1.728  0.00  0.00    -0.008 A 
ATOM     35  C   UNL     1      13.003   3.307   1.597  0.00  0.00    +0.011 A 
ATOM     37  C   UNL     1      14.422   3.418   1.544  0.00  0.00    +0.008 A 
ATOM     38  C   UNL     1      14.842   4.727   1.638  0.00  0.00    +0.045 A 
ENDBRANCH  26  31
ENDBRANCH  24  26
ENDBRANCH  10  24
ENDBRANCH  18  21
BRANCH  16   9
ATOM      9  N   UNL     1       6.442   9.745   3.119  0.00  0.00    -0.185 NA
ATOM     39  H   UNL     1       5.688   9.179   3.526  0.00  0.00    +0.148 HD
BRANCH   9   1
ATOM      1  S   UNL     1       6.226  10.396   1.566  0.00  0.00    +0.077 S 
ATOM      5  O   UNL     1       6.699   9.449   0.574  0.00  0.00    -0.152 OA
ATOM      6  O   UNL     1       6.714  11.762   1.559  0.00  0.00    -0.152 OA
BRANCH   1  25
ATOM     12  N   UNL     1       3.658  10.525   2.556  0.00  0.00    -0.216 NA
ATOM     14  N   UNL     1       2.421  10.562   0.711  0.00  0.00    -0.338 N 
ATOM     25  C   UNL     1       4.464  10.476   1.446  0.00  0.00    +0.211 A 
ATOM     29  C   UNL     1       3.720  10.498   0.291  0.00  0.00    +0.135 A 
ATOM     33  C   UNL     1       2.434  10.576   2.078  0.00  0.00    +0.201 A 
ATOM     36  C   UNL     1       1.252  10.607  -0.131  0.00  0.00    +0.150 C 
ENDBRANCH   1  25
ENDBRANCH   9   1
ENDBRANCH  16   9
TORSDOF 9
ENDMDL
MODEL 4
REMARK VINA RESULT:      -6.5     24.709     27.767
REMARK  Name = 44716821
REMARK  12 active torsions:
REMARK  status: ('A' for Active; 'I' for Inactive)
REMARK    1  A    between atoms: S_1  and  N_9
REMARK    2  A    between atoms: S_1  and  C_25
REMARK    3  A    between atoms: N_9  and  C_16
REMARK    4  A    between atoms: N_10  and  C_24
REMARK    5  A    between atoms: N_11  and  C_32
REMARK    6  A    between atoms: N_14  and  C_36
REMARK    7  A    between atoms: C_18  and  C_21
REMARK    8  A    between atoms: C_22  and  C_23
REMARK    9  A    between atoms: C_24  and  C_26
REMARK   10  A    between atoms: C_24  and  C_28
REMARK   11  A    between atoms: C_26  and  C_31
REMARK   12  A    between atoms: C_30  and  C_34
REMARK                            x       y       z     vdW  Elec       q    Type
REMARK                         _______ _______ _______ _____ _____    ______ ____
ROOT
ATOM      4  O   UNL     1       7.942   7.602   4.329  0.00  0.00    -0.268 OA
ATOM      8  N   UNL     1       9.940   6.614   3.599  0.00  0.00    -0.285 N 
ATOM     16  C   UNL     1      11.427   5.261   1.493  0.00  0.00    +0.080 C 
ATOM     17  C   UNL     1      11.688   4.936   2.965  0.00  0.00    +0.052 C 
ATOM     18  C   UNL     1      11.271   6.063   3.911  0.00  0.00    +0.164 C 
ATOM     19  C   UNL     1       9.984   5.714   1.291  0.00  0.00    +0.039 C 
ATOM     20  C   UNL     1       9.661   6.901   2.187  0.00  0.00    +0.110 C 
ATOM     22  C   UNL     1       9.000   7.017   4.558  0.00  0.00    +0.265 C 
ENDROOT
BRANCH  22  23
ATOM     11  N   UNL     1       9.775   7.612   6.878  0.00  0.00    -0.262 N 
ATOM     13  N   UNL     1       9.943   7.094   8.106  0.00  0.00    -0.176 NA
ATOM     23  C   UNL     1       9.280   6.723   5.968  0.00  0.00    +0.123 A 
ATOM     27  C   UNL     1       9.114   5.542   6.649  0.00  0.00    +0.057 A 
ATOM     30  C   UNL     1       9.537   5.829   7.960  0.00  0.00    +0.061 A 
ATOM     32  C   UNL     1      10.116   8.996   6.643  0.00  0.00    +0.173 C 
ATOM     34  C   UNL     1       9.570   4.912   9.112  0.00  0.00    +0.067 C 
ENDBRANCH  22  23
BRANCH  18  21
ATOM      3  O   UNL     1      11.893   8.339   3.535  0.00  0.00    -0.274 OA
ATOM     10  N   UNL     1      13.513   6.834   4.263  0.00  0.00    -0.302 N 
ATOM     21  C   UNL     1      12.237   7.213   3.883  0.00  0.00    +0.234 C 
ATOM     40  H   UNL     1      13.679   5.871   4.544  0.00  0.00    +0.150 HD
BRANCH  10  24
ATOM     24  C   UNL     1      14.631   7.749   4.297  0.00  0.00    +0.163 C 
BRANCH  24  28
ATOM      7  O   UNL     1      16.534   7.987   2.805  0.00  0.00    -0.274 OA
ATOM     15  N   UNL     1      15.406   5.986   2.836  0.00  0.00    -0.328 N 
ATOM     28  C   UNL     1      15.618   7.290   3.233  0.00  0.00    +0.231 C 
ATOM     41  H   UNL     1      16.005   5.552   2.142  0.00  0.00    +0.145 HD
ATOM     42  H   UNL     1      14.652   5.417   3.206  0.00  0.00    +0.145 HD
ENDBRANCH  24  28
BRANCH  24  26
ATOM     26  C   UNL     1      15.308   7.784   5.673  0.00  0.00    +0.074 C 
BRANCH  26  31
ATOM      2  S   UNL     1      17.383   9.618   5.955  0.00  0.00    -0.102 S 
ATOM     31  C   UNL     1      15.734   9.174   6.077  0.00  0.00    -0.008 A 
ATOM     35  C   UNL     1      14.957  10.203   6.560  0.00  0.00    +0.011 A 
ATOM     37  C   UNL     1      15.724  11.372   6.834  0.00  0.00    +0.008 A 
ATOM     38  C   UNL     1      17.060  11.192   6.549  0.00  0.00    +0.045 A 
ENDBRANCH  26  31
ENDBRANCH  24  26
ENDBRANCH  10  24
ENDBRANCH  18  21
BRANCH  16   9
ATOM      9  N   UNL     1      11.682   4.055   0.669  0.00  0.00    -0.185 NA
ATOM     39  H   UNL     1      11.945   3.207   1.185  0.00  0.00    +0.148 HD
BRANCH   9   1
ATOM      1  S   UNL     1      12.200   4.225  -0.939  0.00  0.00    +0.077 S 
ATOM      5  O   UNL     1      11.837   5.542  -1.428  0.00  0.00    -0.152 OA
ATOM      6  O   UNL     1      11.813   3.040  -1.682  0.00  0.00    -0.152 OA
BRANCH   1  25
ATOM     12  N   UNL     1      14.564   3.846   0.424  0.00  0.00    -0.216 NA
ATOM     14  N   UNL     1      16.098   4.270  -1.125  0.00  0.00    -0.338 N 
ATOM     25  C   UNL     1      13.958   4.173  -0.763  0.00  0.00    +0.211 A 
ATOM     29  C   UNL     1      14.889   4.440  -1.738  0.00  0.00    +0.135 A 
ATOM     33  C   UNL     1      15.853   3.913   0.172  0.00  0.00    +0.201 A 
ATOM     36  C   UNL     1      17.395   4.435  -1.734  0.00  0.00    +0.150 C 
ENDBRANCH   1  25
ENDBRANCH   9   1
ENDBRANCH  16   9
TORSDOF 9
ENDMDL
MODEL 5
REMARK VINA RESULT:      -6.5     24.463     27.416
REMARK  Name = 44716821
REMARK  12 active torsions:
REMARK  status: ('A' for Active; 'I' for Inactive)
REMARK    1  A    between atoms: S_1  and  N_9
REMARK    2  A    between atoms: S_1  and  C_25
REMARK    3  A    between atoms: N_9  and  C_16
REMARK    4  A    between atoms: N_10  and  C_24
REMARK    5  A    between atoms: N_11  and  C_32
REMARK    6  A    between atoms: N_14  and  C_36
REMARK    7  A    between atoms: C_18  and  C_21
REMARK    8  A    between atoms: C_22  and  C_23
REMARK    9  A    between atoms: C_24  and  C_26
REMARK   10  A    between atoms: C_24  and  C_28
REMARK   11  A    between atoms: C_26  and  C_31
REMARK   12  A    between atoms: C_30  and  C_34
REMARK                            x       y       z     vdW  Elec       q    Type
REMARK                         _______ _______ _______ _____ _____    ______ ____
ROOT
ATOM      4  O   UNL     1       7.855   7.757   4.753  0.00  0.00    -0.268 OA
ATOM      8  N   UNL     1       9.828   6.792   3.928  0.00  0.00    -0.285 N 
ATOM     16  C   UNL     1      11.297   5.654   1.689  0.00  0.00    +0.080 C 
ATOM     17  C   UNL     1      11.525   5.142   3.112  0.00  0.00    +0.052 C 
ATOM     18  C   UNL     1      11.133   6.159   4.185  0.00  0.00    +0.164 C 
ATOM     19  C   UNL     1       9.874   6.181   1.528  0.00  0.00    +0.039 C 
ATOM     20  C   UNL     1       9.580   7.261   2.560  0.00  0.00    +0.110 C 
ATOM     22  C   UNL     1       8.888   7.109   4.920  0.00  0.00    +0.265 C 
ENDROOT
BRANCH  22  23
ATOM     11  N   UNL     1       9.427   7.427   7.358  0.00  0.00    -0.262 N 
ATOM     13  N   UNL     1       9.612   6.747   8.502  0.00  0.00    -0.176 NA
ATOM     23  C   UNL     1       9.137   6.635   6.286  0.00  0.00    +0.123 A 
ATOM     27  C   UNL     1       9.132   5.346   6.762  0.00  0.00    +0.057 A 
ATOM     30  C   UNL     1       9.430   5.476   8.131  0.00  0.00    +0.061 A 
ATOM     32  C   UNL     1       9.545   8.867   7.366  0.00  0.00    +0.173 C 
ATOM     34  C   UNL     1       9.553   4.398   9.128  0.00  0.00    +0.067 C 
ENDBRANCH  22  23
BRANCH  18  21
ATOM      3  O   UNL     1      11.803   8.422   4.552  0.00  0.00    -0.274 OA
ATOM     10  N   UNL     1      13.434   6.825   4.094  0.00  0.00    -0.302 N 
ATOM     21  C   UNL     1      12.139   7.267   4.308  0.00  0.00    +0.234 C 
ATOM     40  H   UNL     1      13.595   5.839   3.911  0.00  0.00    +0.150 HD
BRANCH  10  24
ATOM     24  C   UNL     1      14.584   7.700   4.133  0.00  0.00    +0.163 C 
BRANCH  24  28
ATOM      7  O   UNL     1      16.475   7.873   2.617  0.00  0.00    -0.274 OA
ATOM     15  N   UNL     1      15.367   5.866   2.767  0.00  0.00    -0.328 N 
ATOM     28  C   UNL     1      15.568   7.192   3.090  0.00  0.00    +0.231 C 
ATOM     41  H   UNL     1      15.966   5.399   2.095  0.00  0.00    +0.145 HD
ATOM     42  H   UNL     1      14.622   5.311   3.174  0.00  0.00    +0.145 HD
ENDBRANCH  24  28
BRANCH  24  26
ATOM     26  C   UNL     1      15.241   7.729   5.518  0.00  0.00    +0.074 C 
BRANCH  26  31
ATOM      2  S   UNL     1      17.067   9.796   5.900  0.00  0.00    -0.102 S 
ATOM     31  C   UNL     1      15.493   9.132   6.014  0.00  0.00    -0.008 A 
ATOM     35  C   UNL     1      14.600  10.015   6.580  0.00  0.00    +0.011 A 
ATOM     37  C   UNL     1      15.216  11.253   6.924  0.00  0.00    +0.008 A 
ATOM     38  C   UNL     1      16.556  11.269   6.608  0.00  0.00    +0.045 A 
ENDBRANCH  26  31
ENDBRANCH  24  26
ENDBRANCH  10  24
ENDBRANCH  18  21
BRANCH  16   9
ATOM      9  N   UNL     1      11.522   4.550   0.725  0.00  0.00    -0.185 NA
ATOM     39  H   UNL     1      10.777   3.845   0.670  0.00  0.00    +0.148 HD
BRANCH   9   1
ATOM      1  S   UNL     1      13.106   4.096   0.314  0.00  0.00    +0.077 S 
ATOM      5  O   UNL     1      13.474   2.903   1.053  0.00  0.00    -0.152 OA
ATOM      6  O   UNL     1      13.955   5.271   0.357  0.00  0.00    -0.152 OA
BRANCH   1  25
ATOM     12  N   UNL     1      12.216   2.544  -1.782  0.00  0.00    -0.216 NA
ATOM     14  N   UNL     1      13.045   3.593  -3.556  0.00  0.00    -0.338 N 
ATOM     25  C   UNL     1      12.928   3.650  -1.387  0.00  0.00    +0.211 A 
ATOM     29  C   UNL     1      13.451   4.315  -2.470  0.00  0.00    +0.135 A 
ATOM     33  C   UNL     1      12.306   2.539  -3.094  0.00  0.00    +0.201 A 
ATOM     36  C   UNL     1      13.340   3.887  -4.937  0.00  0.00    +0.150 C 
ENDBRANCH   1  25
ENDBRANCH   9   1
ENDBRANCH  16   9
TORSDOF 9
ENDMDL
MODEL 6
REMARK VINA RESULT:      -6.5      2.141      2.799
REMARK  Name = 44716821
REMARK  12 active torsions:
REMARK  status: ('A' for Active; 'I' for Inactive)
REMARK    1  A    between atoms: S_1  and  N_9
REMARK    2  A    between atoms: S_1  and  C_25
REMARK    3  A    between atoms: N_9  and  C_16
REMARK    4  A    between atoms: N_10  and  C_24
REMARK    5  A    between atoms: N_11  and  C_32
REMARK    6  A    between atoms: N_14  and  C_36
REMARK    7  A    between atoms: C_18  and  C_21
REMARK    8  A    between atoms: C_22  and  C_23
REMARK    9  A    between atoms: C_24  and  C_26
REMARK   10  A    between atoms: C_24  and  C_28
REMARK   11  A    between atoms: C_26  and  C_31
REMARK   12  A    between atoms: C_30  and  C_34
REMARK                            x       y       z     vdW  Elec       q    Type
REMARK                         _______ _______ _______ _____ _____    ______ ____
ROOT
ATOM      4  O   UNL     1      -3.279 -12.952  11.538  0.00  0.00    -0.268 OA
ATOM      8  N   UNL     1      -4.696 -11.083  11.553  0.00  0.00    -0.285 N 
ATOM     16  C   UNL     1      -6.309  -9.166  10.071  0.00  0.00    +0.080 C 
ATOM     17  C   UNL     1      -5.581  -8.749  11.350  0.00  0.00    +0.052 C 
ATOM     18  C   UNL     1      -5.264  -9.928  12.272  0.00  0.00    +0.164 C 
ATOM     19  C   UNL     1      -5.559 -10.294   9.369  0.00  0.00    +0.039 C 
ATOM     20  C   UNL     1      -5.364 -11.477  10.307  0.00  0.00    +0.110 C 
ATOM     22  C   UNL     1      -3.677 -11.907  12.052  0.00  0.00    +0.265 C 
ENDROOT
BRANCH  22  23
ATOM     11  N   UNL     1      -3.337 -11.945  14.546  0.00  0.00    -0.262 N 
ATOM     13  N   UNL     1      -2.570 -11.427  15.520  0.00  0.00    -0.176 NA
ATOM     23  C   UNL     1      -3.009 -11.507  13.295  0.00  0.00    +0.123 A 
ATOM     27  C   UNL     1      -1.955 -10.643  13.464  0.00  0.00    +0.057 A 
ATOM     30  C   UNL     1      -1.728 -10.632  14.853  0.00  0.00    +0.061 A 
ATOM     32  C   UNL     1      -4.387 -12.874  14.892  0.00  0.00    +0.173 C 
ATOM     34  C   UNL     1      -0.706  -9.868  15.588  0.00  0.00    +0.067 C 
ENDBRANCH  22  23
BRANCH  18  21
ATOM      3  O   UNL     1      -7.159 -11.352  12.570  0.00  0.00    -0.274 OA
ATOM     10  N   UNL     1      -6.732  -9.698  14.152  0.00  0.00    -0.302 N 
ATOM     21  C   UNL     1      -6.482 -10.422  12.999  0.00  0.00    +0.234 C 
ATOM     40  H   UNL     1      -6.093  -8.953  14.416  0.00  0.00    +0.150 HD
BRANCH  10  24
ATOM     24  C   UNL     1      -7.859  -9.958  15.019  0.00  0.00    +0.163 C 
BRANCH  24  28
ATOM      7  O   UNL     1      -9.693  -9.528  13.483  0.00  0.00    -0.274 OA
ATOM     15  N   UNL     1      -9.338  -8.056  15.211  0.00  0.00    -0.328 N 
ATOM     28  C   UNL     1      -9.041  -9.177  14.464  0.00  0.00    +0.231 C 
ATOM     41  H   UNL     1     -10.115  -7.455  14.958  0.00  0.00    +0.145 HD
ATOM     42  H   UNL     1      -8.799  -7.783  16.025  0.00  0.00    +0.145 HD
ENDBRANCH  24  28
BRANCH  24  26
ATOM     26  C   UNL     1      -7.580  -9.545  16.469  0.00  0.00    +0.074 C 
BRANCH  26  31
ATOM      2  S   UNL     1      -7.219 -12.045  17.639  0.00  0.00    -0.102 S 
ATOM     31  C   UNL     1      -6.649 -10.498  17.178  0.00  0.00    -0.008 A 
ATOM     35  C   UNL     1      -5.333 -10.305  17.535  0.00  0.00    +0.011 A 
ATOM     37  C   UNL     1      -4.785 -11.442  18.195  0.00  0.00    +0.008 A 
ATOM     38  C   UNL     1      -5.702 -12.461  18.318  0.00  0.00    +0.045 A 
ENDBRANCH  26  31
ENDBRANCH  24  26
ENDBRANCH  10  24
ENDBRANCH  18  21
BRANCH  16   9
ATOM      9  N   UNL     1      -6.410  -8.002   9.158  0.00  0.00    -0.185 NA
ATOM     39  H   UNL     1      -5.691  -7.278   9.276  0.00  0.00    +0.148 HD
BRANCH   9   1
ATOM      1  S   UNL     1      -7.918  -7.558   8.518  0.00  0.00    +0.077 S 
ATOM      5  O   UNL     1      -7.892  -6.155   8.149  0.00  0.00    -0.152 OA
ATOM      6  O   UNL     1      -8.963  -8.062   9.390  0.00  0.00    -0.152 OA
BRANCH   1  25
ATOM     12  N   UNL     1      -8.226  -9.863   7.042  0.00  0.00    -0.216 NA
ATOM     14  N   UNL     1      -7.939  -9.152   4.956  0.00  0.00    -0.338 N 
ATOM     25  C   UNL     1      -7.980  -8.512   7.032  0.00  0.00    +0.211 A 
ATOM     29  C   UNL     1      -7.798  -8.050   5.751  0.00  0.00    +0.135 A 
ATOM     33  C   UNL     1      -8.195 -10.217   5.775  0.00  0.00    +0.201 A 
ATOM     36  C   UNL     1      -7.836  -9.188   3.518  0.00  0.00    +0.150 C 
ENDBRANCH   1  25
ENDBRANCH   9   1
ENDBRANCH  16   9
TORSDOF 9
ENDMDL
MODEL 7
REMARK VINA RESULT:      -6.4     26.239     29.421
REMARK  Name = 44716821
REMARK  12 active torsions:
REMARK  status: ('A' for Active; 'I' for Inactive)
REMARK    1  A    between atoms: S_1  and  N_9
REMARK    2  A    between atoms: S_1  and  C_25
REMARK    3  A    between atoms: N_9  and  C_16
REMARK    4  A    between atoms: N_10  and  C_24
REMARK    5  A    between atoms: N_11  and  C_32
REMARK    6  A    between atoms: N_14  and  C_36
REMARK    7  A    between atoms: C_18  and  C_21
REMARK    8  A    between atoms: C_22  and  C_23
REMARK    9  A    between atoms: C_24  and  C_26
REMARK   10  A    between atoms: C_24  and  C_28
REMARK   11  A    between atoms: C_26  and  C_31
REMARK   12  A    between atoms: C_30  and  C_34
REMARK                            x       y       z     vdW  Elec       q    Type
REMARK                         _______ _______ _______ _____ _____    ______ ____
ROOT
ATOM      4  O   UNL     1      18.732  10.988   4.786  0.00  0.00    -0.268 OA
ATOM      8  N   UNL     1      17.010   9.413   5.021  0.00  0.00    -0.285 N 
ATOM     16  C   UNL     1      14.328   8.774   5.954  0.00  0.00    +0.080 C 
ATOM     17  C   UNL     1      15.432   7.715   5.970  0.00  0.00    +0.052 C 
ATOM     18  C   UNL     1      16.560   8.010   4.980  0.00  0.00    +0.164 C 
ATOM     19  C   UNL     1      14.920  10.171   6.114  0.00  0.00    +0.039 C 
ATOM     20  C   UNL     1      15.962  10.441   5.038  0.00  0.00    +0.110 C 
ATOM     22  C   UNL     1      18.344   9.825   4.891  0.00  0.00    +0.265 C 
ENDROOT
BRANCH  22  23
ATOM     11  N   UNL     1      20.088   8.366   5.971  0.00  0.00    -0.262 N 
ATOM     13  N   UNL     1      20.992   7.411   5.695  0.00  0.00    -0.176 NA
ATOM     23  C   UNL     1      19.389   8.795   4.880  0.00  0.00    +0.123 A 
ATOM     27  C   UNL     1      19.870   8.071   3.817  0.00  0.00    +0.057 A 
ATOM     30  C   UNL     1      20.854   7.235   4.378  0.00  0.00    +0.061 A 
ATOM     32  C   UNL     1      19.943   8.830   7.331  0.00  0.00    +0.173 C 
ATOM     34  C   UNL     1      21.694   6.246   3.681  0.00  0.00    +0.067 C 
ENDBRANCH  22  23
BRANCH  18  21
ATOM      3  O   UNL     1      16.589   8.381   2.620  0.00  0.00    -0.274 OA
ATOM     10  N   UNL     1      15.257   6.675   3.476  0.00  0.00    -0.302 N 
ATOM     21  C   UNL     1      16.158   7.722   3.562  0.00  0.00    +0.234 C 
ATOM     40  H   UNL     1      14.979   6.191   4.326  0.00  0.00    +0.150 HD
BRANCH  10  24
ATOM     24  C   UNL     1      14.697   6.215   2.226  0.00  0.00    +0.163 C 
BRANCH  24  28
ATOM      7  O   UNL     1      12.707   7.282   1.327  0.00  0.00    -0.274 OA
ATOM     15  N   UNL     1      12.532   6.110   3.295  0.00  0.00    -0.328 N 
ATOM     28  C   UNL     1      13.229   6.617   2.218  0.00  0.00    +0.231 C 
ATOM     41  H   UNL     1      11.539   6.290   3.402  0.00  0.00    +0.145 HD
ATOM     42  H   UNL     1      12.972   5.552   4.019  0.00  0.00    +0.145 HD
ENDBRANCH  24  28
BRANCH  24  26
ATOM     26  C   UNL     1      14.836   4.698   2.052  0.00  0.00    +0.074 C 
BRANCH  26  31
ATOM      2  S   UNL     1      14.817   4.738  -0.731  0.00  0.00    -0.102 S 
ATOM     31  C   UNL     1      14.208   4.197   0.775  0.00  0.00    -0.008 A 
ATOM     35  C   UNL     1      13.156   3.321   0.622  0.00  0.00    +0.011 A 
ATOM     37  C   UNL     1      12.846   3.091  -0.750  0.00  0.00    +0.008 A 
ATOM     38  C   UNL     1      13.673   3.799  -1.593  0.00  0.00    +0.045 A 
ENDBRANCH  26  31
ENDBRANCH  24  26
ENDBRANCH  10  24
ENDBRANCH  18  21
BRANCH  16   9
ATOM      9  N   UNL     1      13.379   8.514   7.064  0.00  0.00    -0.185 NA
ATOM     39  H   UNL     1      13.655   7.778   7.725  0.00  0.00    +0.148 HD
BRANCH   9   1
ATOM      1  S   UNL     1      11.727   8.851   6.859  0.00  0.00    +0.077 S 
ATOM      5  O   UNL     1      11.505   9.395   5.533  0.00  0.00    -0.152 OA
ATOM      6  O   UNL     1      11.248   9.563   8.029  0.00  0.00    -0.152 OA
BRANCH   1  25
ATOM     12  N   UNL     1      10.655   6.558   5.773  0.00  0.00    -0.216 NA
ATOM     14  N   UNL     1      10.208   5.326   7.568  0.00  0.00    -0.338 N 
ATOM     25  C   UNL     1      11.016   7.234   6.912  0.00  0.00    +0.211 A 
ATOM     29  C   UNL     1      10.749   6.490   8.036  0.00  0.00    +0.135 A 
ATOM     33  C   UNL     1      10.172   5.412   6.204  0.00  0.00    +0.201 A 
ATOM     36  C   UNL     1       9.759   4.211   8.364  0.00  0.00    +0.150 C 
ENDBRANCH   1  25
ENDBRANCH   9   1
ENDBRANCH  16   9
TORSDOF 9
ENDMDL
MODEL 8
REMARK VINA RESULT:      -6.4      3.367      7.246
REMARK  Name = 44716821
REMARK  12 active torsions:
REMARK  status: ('A' for Active; 'I' for Inactive)
REMARK    1  A    between atoms: S_1  and  N_9
REMARK    2  A    between atoms: S_1  and  C_25
REMARK    3  A    between atoms: N_9  and  C_16
REMARK    4  A    between atoms: N_10  and  C_24
REMARK    5  A    between atoms: N_11  and  C_32
REMARK    6  A    between atoms: N_14  and  C_36
REMARK    7  A    between atoms: C_18  and  C_21
REMARK    8  A    between atoms: C_22  and  C_23
REMARK    9  A    between atoms: C_24  and  C_26
REMARK   10  A    between atoms: C_24  and  C_28
REMARK   11  A    between atoms: C_26  and  C_31
REMARK   12  A    between atoms: C_30  and  C_34
REMARK                            x       y       z     vdW  Elec       q    Type
REMARK                         _______ _______ _______ _____ _____    ______ ____
ROOT
ATOM      4  O   UNL     1      -1.669 -11.220  14.859  0.00  0.00    -0.268 OA
ATOM      8  N   UNL     1      -3.910 -11.568  15.456  0.00  0.00    -0.285 N 
ATOM     16  C   UNL     1      -5.892 -12.031  17.537  0.00  0.00    +0.080 C 
ATOM     17  C   UNL     1      -6.064 -12.644  16.146  0.00  0.00    +0.052 C 
ATOM     18  C   UNL     1      -5.292 -11.891  15.060  0.00  0.00    +0.164 C 
ATOM     19  C   UNL     1      -4.413 -11.850  17.866  0.00  0.00    +0.039 C 
ATOM     20  C   UNL     1      -3.724 -11.009  16.800  0.00  0.00    +0.110 C 
ATOM     22  C   UNL     1      -2.804 -11.612  14.595  0.00  0.00    +0.265 C 
ENDROOT
BRANCH  22  23
ATOM     11  N   UNL     1      -2.755 -13.474  12.901  0.00  0.00    -0.262 N 
ATOM     13  N   UNL     1      -3.008 -13.740  11.608  0.00  0.00    -0.176 NA
ATOM     23  C   UNL     1      -2.994 -12.177  13.254  0.00  0.00    +0.123 A 
ATOM     27  C   UNL     1      -3.432 -11.552  12.112  0.00  0.00    +0.057 A 
ATOM     30  C   UNL     1      -3.421 -12.562  11.132  0.00  0.00    +0.061 A 
ATOM     32  C   UNL     1      -2.278 -14.533  13.760  0.00  0.00    +0.173 C 
ATOM     34  C   UNL     1      -3.801 -12.439   9.714  0.00  0.00    +0.067 C 
ENDBRANCH  22  23
BRANCH  18  21
ATOM      3  O   UNL     1      -5.725  -9.554  15.296  0.00  0.00    -0.274 OA
ATOM     10  N   UNL     1      -6.837 -10.744  13.632  0.00  0.00    -0.302 N 
ATOM     21  C   UNL     1      -5.955 -10.596  14.689  0.00  0.00    +0.234 C 
ATOM     40  H   UNL     1      -6.938 -11.656  13.196  0.00  0.00    +0.150 HD
BRANCH  10  24
ATOM     24  C   UNL     1      -7.619  -9.652  13.098  0.00  0.00    +0.163 C 
BRANCH  24  28
ATOM      7  O   UNL     1      -9.870 -10.387  13.649  0.00  0.00    -0.274 OA
ATOM     15  N   UNL     1      -8.940  -8.681  14.875  0.00  0.00    -0.328 N 
ATOM     28  C   UNL     1      -8.932  -9.624  13.868  0.00  0.00    +0.231 C 
ATOM     41  H   UNL     1      -9.750  -8.569  15.474  0.00  0.00    +0.145 HD
ATOM     42  H   UNL     1      -8.155  -8.064  15.052  0.00  0.00    +0.145 HD
ENDBRANCH  24  28
BRANCH  24  26
ATOM     26  C   UNL     1      -7.884  -9.811  11.596  0.00  0.00    +0.074 C 
BRANCH  26  31
ATOM      2  S   UNL     1      -6.626  -9.931   9.115  0.00  0.00    -0.102 S 
ATOM     31  C   UNL     1      -6.695  -9.428  10.751  0.00  0.00    -0.008 A 
ATOM     35  C   UNL     1      -5.587  -8.693  11.112  0.00  0.00    +0.011 A 
ATOM     37  C   UNL     1      -4.670  -8.541  10.032  0.00  0.00    +0.008 A 
ATOM     38  C   UNL     1      -5.111  -9.165   8.886  0.00  0.00    +0.045 A 
ENDBRANCH  26  31
ENDBRANCH  24  26
ENDBRANCH  10  24
ENDBRANCH  18  21
BRANCH  16   9
ATOM      9  N   UNL     1      -6.512 -12.921  18.548  0.00  0.00    -0.185 NA
ATOM     39  H   UNL     1      -6.522 -13.922  18.318  0.00  0.00    +0.148 HD
BRANCH   9   1
ATOM      1  S   UNL     1      -7.707 -12.312  19.590  0.00  0.00    +0.077 S 
ATOM      5  O   UNL     1      -7.231 -11.089  20.210  0.00  0.00    -0.152 OA
ATOM      6  O   UNL     1      -8.207 -13.398  20.412  0.00  0.00    -0.152 OA
BRANCH   1  25
ATOM     12  N   UNL     1      -9.433 -12.753  17.489  0.00  0.00    -0.216 NA
ATOM     14  N   UNL     1     -10.566 -10.845  17.376  0.00  0.00    -0.338 N 
ATOM     25  C   UNL     1      -8.995 -11.885  18.458  0.00  0.00    +0.211 A 
ATOM     29  C   UNL     1      -9.683 -10.696  18.407  0.00  0.00    +0.135 A 
ATOM     33  C   UNL     1     -10.380 -12.096  16.855  0.00  0.00    +0.201 A 
ATOM     36  C   UNL     1     -11.520  -9.865  16.919  0.00  0.00    +0.150 C 
ENDBRANCH   1  25
ENDBRANCH   9   1
ENDBRANCH  16   9
TORSDOF 9
ENDMDL
MODEL 9
REMARK VINA RESULT:      -6.2     24.432     27.491
REMARK  Name = 44716821
REMARK  12 active torsions:
REMARK  status: ('A' for Active; 'I' for Inactive)
REMARK    1  A    between atoms: S_1  and  N_9
REMARK    2  A    between atoms: S_1  and  C_25
REMARK    3  A    between atoms: N_9  and  C_16
REMARK    4  A    between atoms: N_10  and  C_24
REMARK    5  A    between atoms: N_11  and  C_32
REMARK    6  A    between atoms: N_14  and  C_36
REMARK    7  A    between atoms: C_18  and  C_21
REMARK    8  A    between atoms: C_22  and  C_23
REMARK    9  A    between atoms: C_24  and  C_26
REMARK   10  A    between atoms: C_24  and  C_28
REMARK   11  A    between atoms: C_26  and  C_31
REMARK   12  A    between atoms: C_30  and  C_34
REMARK                            x       y       z     vdW  Elec       q    Type
REMARK                         _______ _______ _______ _____ _____    ______ ____
ROOT
ATOM      4  O   UNL     1       8.788   8.501   4.620  0.00  0.00    -0.268 OA
ATOM      8  N   UNL     1      10.045   6.920   3.428  0.00  0.00    -0.285 N 
ATOM     16  C   UNL     1      10.540   5.493   0.940  0.00  0.00    +0.080 C 
ATOM     17  C   UNL     1      10.783   4.815   2.289  0.00  0.00    +0.052 C 
ATOM     18  C   UNL     1      11.015   5.811   3.427  0.00  0.00    +0.164 C 
ATOM     19  C   UNL     1       9.438   6.543   1.056  0.00  0.00    +0.039 C 
ATOM     20  C   UNL     1       9.776   7.561   2.135  0.00  0.00    +0.110 C 
ATOM     22  C   UNL     1       9.491   7.492   4.583  0.00  0.00    +0.265 C 
ENDROOT
BRANCH  22  23
ATOM     11  N   UNL     1      10.438   7.407   6.913  0.00  0.00    -0.262 N 
ATOM     13  N   UNL     1      10.547   6.606   7.986  0.00  0.00    -0.176 NA
ATOM     23  C   UNL     1       9.757   6.845   5.872  0.00  0.00    +0.123 A 
ATOM     27  C   UNL     1       9.397   5.589   6.294  0.00  0.00    +0.057 A 
ATOM     30  C   UNL     1       9.909   5.497   7.601  0.00  0.00    +0.061 A 
ATOM     32  C   UNL     1      11.022   8.728   6.956  0.00  0.00    +0.173 C 
ATOM     34  C   UNL     1       9.808   4.354   8.524  0.00  0.00    +0.067 C 
ENDBRANCH  22  23
BRANCH  18  21
ATOM      3  O   UNL     1      13.025   6.482   2.326  0.00  0.00    -0.274 OA
ATOM     10  N   UNL     1      12.805   6.880   4.608  0.00  0.00    -0.302 N 
ATOM     21  C   UNL     1      12.383   6.427   3.370  0.00  0.00    +0.234 C 
ATOM     40  H   UNL     1      12.180   6.793   5.406  0.00  0.00    +0.150 HD
BRANCH  10  24
ATOM     24  C   UNL     1      14.096   7.492   4.828  0.00  0.00    +0.163 C 
BRANCH  24  28
ATOM      7  O   UNL     1      15.483   7.665   6.816  0.00  0.00    -0.274 OA
ATOM     15  N   UNL     1      13.640   6.295   6.877  0.00  0.00    -0.328 N 
ATOM     28  C   UNL     1      14.508   7.168   6.257  0.00  0.00    +0.231 C 
ATOM     41  H   UNL     1      13.790   6.009   7.839  0.00  0.00    +0.145 HD
ATOM     42  H   UNL     1      12.832   5.900   6.408  0.00  0.00    +0.145 HD
ENDBRANCH  24  28
BRANCH  24  26
ATOM     26  C   UNL     1      14.060   9.010   4.614  0.00  0.00    +0.074 C 
BRANCH  26  31
ATOM      2  S   UNL     1      16.623   9.661   3.745  0.00  0.00    -0.102 S 
ATOM     31  C   UNL     1      14.944   9.459   3.476  0.00  0.00    -0.008 A 
ATOM     35  C   UNL     1      14.590   9.751   2.178  0.00  0.00    +0.011 A 
ATOM     37  C   UNL     1      15.711  10.146   1.392  0.00  0.00    +0.008 A 
ATOM     38  C   UNL     1      16.881  10.140   2.120  0.00  0.00    +0.045 A 
ENDBRANCH  26  31
ENDBRANCH  24  26
ENDBRANCH  10  24
ENDBRANCH  18  21
BRANCH  16   9
ATOM      9  N   UNL     1      10.141   4.474  -0.060  0.00  0.00    -0.185 NA
ATOM     39  H   UNL     1       9.597   3.681   0.301  0.00  0.00    +0.148 HD
BRANCH   9   1
ATOM      1  S   UNL     1      11.079   4.249  -1.458  0.00  0.00    +0.077 S 
ATOM      5  O   UNL     1      10.900   5.381  -2.347  0.00  0.00    -0.152 OA
ATOM      6  O   UNL     1      10.873   2.899  -1.947  0.00  0.00    -0.152 OA
BRANCH   1  25
ATOM     12  N   UNL     1      13.215   3.354   0.034  0.00  0.00    -0.216 NA
ATOM     14  N   UNL     1      14.759   4.907  -0.338  0.00  0.00    -0.338 N 
ATOM     25  C   UNL     1      12.722   4.318  -0.810  0.00  0.00    +0.211 A 
ATOM     29  C   UNL     1      13.661   5.291  -1.056  0.00  0.00    +0.135 A 
ATOM     33  C   UNL     1      14.445   3.740   0.299  0.00  0.00    +0.201 A 
ATOM     36  C   UNL     1      16.019   5.605  -0.267  0.00  0.00    +0.150 C 
ENDBRANCH   1  25
ENDBRANCH   9   1
ENDBRANCH  16   9
TORSDOF 9
ENDMDL
MODEL 10
REMARK VINA RESULT:      -6.1      3.383      4.896
REMARK  Name = 44716821
REMARK  12 active torsions:
REMARK  status: ('A' for Active; 'I' for Inactive)
REMARK    1  A    between atoms: S_1  and  N_9
REMARK    2  A    between atoms: S_1  and  C_25
REMARK    3  A    between atoms: N_9  and  C_16
REMARK    4  A    between atoms: N_10  and  C_24
REMARK    5  A    between atoms: N_11  and  C_32
REMARK    6  A    between atoms: N_14  and  C_36
REMARK    7  A    between atoms: C_18  and  C_21
REMARK    8  A    between atoms: C_22  and  C_23
REMARK    9  A    between atoms: C_24  and  C_26
REMARK   10  A    between atoms: C_24  and  C_28
REMARK   11  A    between atoms: C_26  and  C_31
REMARK   12  A    between atoms: C_30  and  C_34
REMARK                            x       y       z     vdW  Elec       q    Type
REMARK                         _______ _______ _______ _____ _____    ______ ____
ROOT
ATOM      4  O   UNL     1      -5.263 -12.612  10.284  0.00  0.00    -0.268 OA
ATOM      8  N   UNL     1      -6.008 -11.501  12.211  0.00  0.00    -0.285 N 
ATOM     16  C   UNL     1      -8.182 -10.873  14.042  0.00  0.00    +0.080 C 
ATOM     17  C   UNL     1      -7.083  -9.848  13.756  0.00  0.00    +0.052 C 
ATOM     18  C   UNL     1      -5.785 -10.485  13.255  0.00  0.00    +0.164 C 
ATOM     19  C   UNL     1      -8.386 -11.792  12.842  0.00  0.00    +0.039 C 
ATOM     20  C   UNL     1      -7.080 -12.473  12.455  0.00  0.00    +0.110 C 
ATOM     22  C   UNL     1      -5.179 -11.691  11.095  0.00  0.00    +0.265 C 
ENDROOT
BRANCH  22  23
ATOM     11  N   UNL     1      -4.209  -9.625  10.033  0.00  0.00    -0.262 N 
ATOM     13  N   UNL     1      -3.089  -8.885   9.981  0.00  0.00    -0.176 NA
ATOM     23  C   UNL     1      -4.113 -10.714  10.851  0.00  0.00    +0.123 A 
ATOM     27  C   UNL     1      -2.841 -10.684  11.368  0.00  0.00    +0.057 A 
ATOM     30  C   UNL     1      -2.257  -9.537  10.798  0.00  0.00    +0.061 A 
ATOM     32  C   UNL     1      -5.359  -9.222   9.259  0.00  0.00    +0.173 C 
ATOM     34  C   UNL     1      -0.892  -9.026  11.012  0.00  0.00    +0.067 C 
ENDBRANCH  22  23
BRANCH  18  21
ATOM      3  O   UNL     1      -4.969 -12.377  14.463  0.00  0.00    -0.274 OA
ATOM     10  N   UNL     1      -4.430 -10.241  15.216  0.00  0.00    -0.302 N 
ATOM     21  C   UNL     1      -5.020 -11.155  14.359  0.00  0.00    +0.234 C 
ATOM     40  H   UNL     1      -4.529  -9.248  15.024  0.00  0.00    +0.150 HD
BRANCH  10  24
ATOM     24  C   UNL     1      -3.657 -10.629  16.374  0.00  0.00    +0.163 C 
BRANCH  24  28
ATOM      7  O   UNL     1      -1.315 -10.080  16.029  0.00  0.00    -0.274 OA
ATOM     15  N   UNL     1      -2.073 -12.139  15.348  0.00  0.00    -0.328 N 
ATOM     28  C   UNL     1      -2.234 -10.884  15.898  0.00  0.00    +0.231 C 
ATOM     41  H   UNL     1      -1.167 -12.443  15.006  0.00  0.00    +0.145 HD
ATOM     42  H   UNL     1      -2.838 -12.799  15.256  0.00  0.00    +0.145 HD
ENDBRANCH  24  28
BRANCH  24  26
ATOM     26  C   UNL     1      -4.224 -11.880  17.055  0.00  0.00    +0.074 C 
BRANCH  26  31
ATOM      2  S   UNL     1      -6.870 -12.431  17.723  0.00  0.00    -0.102 S 
ATOM     31  C   UNL     1      -5.404 -11.574  17.945  0.00  0.00    -0.008 A 
ATOM     35  C   UNL     1      -5.493 -10.657  18.968  0.00  0.00    +0.011 A 
ATOM     37  C   UNL     1      -6.780 -10.657  19.579  0.00  0.00    +0.008 A 
ATOM     38  C   UNL     1      -7.627 -11.575  18.999  0.00  0.00    +0.045 A 
ENDBRANCH  26  31
ENDBRANCH  24  26
ENDBRANCH  10  24
ENDBRANCH  18  21
BRANCH  16   9
ATOM      9  N   UNL     1      -9.451 -10.166  14.339  0.00  0.00    -0.185 NA
ATOM     39  H   UNL     1      -9.882  -9.669  13.550  0.00  0.00    +0.148 HD
BRANCH   9   1
ATOM      1  S   UNL     1      -9.765  -9.620  15.916  0.00  0.00    +0.077 S 
ATOM      5  O   UNL     1      -8.515  -9.285  16.570  0.00  0.00    -0.152 OA
ATOM      6  O   UNL     1     -10.697 -10.534  16.549  0.00  0.00    -0.152 OA
BRANCH   1  25
ATOM     12  N   UNL     1     -10.095  -6.885  15.879  0.00  0.00    -0.216 NA
ATOM     14  N   UNL     1     -12.145  -6.649  15.056  0.00  0.00    -0.338 N 
ATOM     25  C   UNL     1     -10.642  -8.116  15.613  0.00  0.00    +0.211 A 
ATOM     29  C   UNL     1     -11.912  -7.994  15.102  0.00  0.00    +0.135 A 
ATOM     33  C   UNL     1     -11.026  -6.023  15.532  0.00  0.00    +0.201 A 
ATOM     36  C   UNL     1     -13.349  -6.005  14.590  0.00  0.00    +0.150 C 
ENDBRANCH   1  25
ENDBRANCH   9   1
ENDBRANCH  16   9
TORSDOF 9
ENDMDL
