MODEL 1
REMARK VINA RESULT:      -8.0      0.000      0.000
REMARK  Name = 11941651
REMARK  5 active torsions:
REMARK  status: ('A' for Active; 'I' for Inactive)
REMARK    1  A    between atoms: N_8  and  C_15
REMARK    2  A    between atoms: N_9  and  C_16
REMARK    3  A    between atoms: N_10  and  C_21
REMARK    4  A    between atoms: C_22  and  C_26
REMARK    5  A    between atoms: C_28  and  C_32
REMARK                            x       y       z     vdW  Elec       q    Type
REMARK                         _______ _______ _______ _____ _____    ______ ____
ROOT
ATOM      4  O   UNL     1      12.233   5.819  -0.404  0.00  0.00    -0.370 OA
ATOM      5  O   UNL     1      13.244   3.187   0.933  0.00  0.00    -0.370 OA
ATOM     13  C   UNL     1      12.009   3.555   0.295  0.00  0.00    +0.171 C 
ATOM     14  C   UNL     1      11.727   4.999   0.663  0.00  0.00    +0.171 C 
ATOM     15  C   UNL     1      12.181   3.583  -1.204  0.00  0.00    +0.130 C 
ATOM     16  C   UNL     1      12.532   5.222   1.924  0.00  0.00    +0.131 C 
ATOM     17  C   UNL     1      12.734   4.975  -1.450  0.00  0.00    +0.185 C 
ATOM     18  C   UNL     1      13.712   4.289   1.725  0.00  0.00    +0.185 C 
ENDROOT
BRANCH  15   8
ATOM      8  N   UNL     1      10.897   3.433  -1.852  0.00  0.00    -0.306 N 
ATOM     11  N   UNL     1      11.873   3.175  -3.971  0.00  0.00    -0.211 NA
ATOM     12  N   UNL     1       9.479   3.105  -3.693  0.00  0.00    -0.223 NA
ATOM     19  C   UNL     1      10.746   3.232  -3.213  0.00  0.00    +0.216 A 
ATOM     22  C   UNL     1      11.688   2.978  -5.293  0.00  0.00    +0.111 A 
ATOM     23  C   UNL     1       9.369   2.910  -5.024  0.00  0.00    +0.116 A 
ATOM     24  C   UNL     1      10.448   2.836  -5.881  0.00  0.00    +0.051 A 
ATOM     35  H   UNL     1      10.054   3.422  -1.290  0.00  0.00    +0.149 HD
BRANCH  22  26
ATOM      7  O   UNL     1      13.596   4.084  -6.136  0.00  0.00    -0.461 OA
ATOM     26  C   UNL     1      12.898   2.922  -6.069  0.00  0.00    +0.153 A 
ATOM     31  C   UNL     1      13.528   1.932  -6.782  0.00  0.00    +0.051 A 
ATOM     33  C   UNL     1      14.694   2.525  -7.325  0.00  0.00    +0.042 A 
ATOM     34  C   UNL     1      14.689   3.833  -6.903  0.00  0.00    +0.196 A 
ENDBRANCH  22  26
ENDBRANCH  15   8
BRANCH  16   9
ATOM      6  O   UNL     1      11.602   6.998   3.971  0.00  0.00    -0.252 OA
ATOM      9  N   UNL     1      11.773   4.863   3.098  0.00  0.00    -0.292 N 
ATOM     10  N   UNL     1      10.643   5.161   5.075  0.00  0.00    -0.269 N 
ATOM     20  C   UNL     1      11.355   5.797   4.055  0.00  0.00    +0.304 C 
ATOM     36  H   UNL     1      11.472   3.899   3.202  0.00  0.00    +0.151 HD
ATOM     37  H   UNL     1      10.529   4.153   4.992  0.00  0.00    +0.156 HD
BRANCH  10  21
ATOM     21  C   UNL     1      10.055   5.749   6.220  0.00  0.00    +0.035 A 
ATOM     25  C   UNL     1       9.948   5.007   7.384  0.00  0.00    +0.035 A 
ATOM     27  C   UNL     1       9.604   7.057   6.153  0.00  0.00    +0.023 A 
ATOM     28  C   UNL     1       9.370   5.587   8.513  0.00  0.00    +0.057 A 
ATOM     29  C   UNL     1       9.026   7.637   7.283  0.00  0.00    +0.002 A 
ATOM     30  C   UNL     1       8.908   6.903   8.463  0.00  0.00    +0.012 A 
BRANCH  28  32
ATOM      1  F   UNL     1       9.176   3.452   9.576  0.00  0.00    -0.166 F 
ATOM      2  F   UNL     1      10.290   4.981  10.636  0.00  0.00    -0.166 F 
ATOM      3  F   UNL     1       8.125   5.124  10.486  0.00  0.00    -0.166 F 
ATOM     32  C   UNL     1       9.245   4.802   9.776  0.00  0.00    +0.417 C 
ENDBRANCH  28  32
ENDBRANCH  10  21
ENDBRANCH  16   9
TORSDOF 5
ENDMDL
MODEL 2
REMARK VINA RESULT:      -7.9     13.617     15.603
REMARK  Name = 11941651
REMARK  5 active torsions:
REMARK  status: ('A' for Active; 'I' for Inactive)
REMARK    1  A    between atoms: N_8  and  C_15
REMARK    2  A    between atoms: N_9  and  C_16
REMARK    3  A    between atoms: N_10  and  C_21
REMARK    4  A    between atoms: C_22  and  C_26
REMARK    5  A    between atoms: C_28  and  C_32
REMARK                            x       y       z     vdW  Elec       q    Type
REMARK                         _______ _______ _______ _____ _____    ______ ____
ROOT
ATOM      4  O   UNL     1      21.638  -7.258  -0.868  0.00  0.00    -0.370 OA
ATOM      5  O   UNL     1      19.307  -8.468  -2.555  0.00  0.00    -0.370 OA
ATOM     13  C   UNL     1      19.471  -7.224  -1.851  0.00  0.00    +0.171 C 
ATOM     14  C   UNL     1      20.253  -7.523  -0.587  0.00  0.00    +0.171 C 
ATOM     15  C   UNL     1      20.370  -6.294  -2.631  0.00  0.00    +0.130 C 
ATOM     16  C   UNL     1      20.036  -9.003  -0.361  0.00  0.00    +0.131 C 
ATOM     17  C   UNL     1      21.757  -6.732  -2.198  0.00  0.00    +0.185 C 
ATOM     18  C   UNL     1      19.882  -9.528  -1.776  0.00  0.00    +0.185 C 
ENDROOT
BRANCH  15   8
ATOM      8  N   UNL     1      20.130  -4.925  -2.232  0.00  0.00    -0.306 N 
ATOM     11  N   UNL     1      17.909  -4.979  -2.986  0.00  0.00    -0.211 NA
ATOM     12  N   UNL     1      18.829  -2.989  -1.985  0.00  0.00    -0.223 NA
ATOM     19  C   UNL     1      18.919  -4.278  -2.407  0.00  0.00    +0.216 A 
ATOM     22  C   UNL     1      16.743  -4.317  -3.140  0.00  0.00    +0.111 A 
ATOM     23  C   UNL     1      17.634  -2.388  -2.170  0.00  0.00    +0.116 A 
ATOM     24  C   UNL     1      16.545  -3.009  -2.747  0.00  0.00    +0.051 A 
ATOM     35  H   UNL     1      20.860  -4.411  -1.753  0.00  0.00    +0.149 HD
BRANCH  22  26
ATOM      7  O   UNL     1      16.080  -5.869  -4.794  0.00  0.00    -0.461 OA
ATOM     26  C   UNL     1      15.692  -5.083  -3.756  0.00  0.00    +0.153 A 
ATOM     31  C   UNL     1      14.343  -5.204  -3.530  0.00  0.00    +0.051 A 
ATOM     33  C   UNL     1      13.868  -6.128  -4.493  0.00  0.00    +0.042 A 
ATOM     34  C   UNL     1      14.962  -6.502  -5.237  0.00  0.00    +0.196 A 
ENDBRANCH  22  26
ENDBRANCH  15   8
BRANCH  16   9
ATOM      6  O   UNL     1      19.114 -11.530   0.624  0.00  0.00    -0.252 OA
ATOM      9  N   UNL     1      18.847  -9.242   0.420  0.00  0.00    -0.292 N 
ATOM     10  N   UNL     1      17.275 -10.438   1.593  0.00  0.00    -0.269 N 
ATOM     20  C   UNL     1      18.465 -10.514   0.864  0.00  0.00    +0.304 C 
ATOM     36  H   UNL     1      18.295  -8.443   0.716  0.00  0.00    +0.151 HD
ATOM     37  H   UNL     1      16.863  -9.514   1.697  0.00  0.00    +0.156 HD
BRANCH  10  21
ATOM     21  C   UNL     1      16.565 -11.495   2.208  0.00  0.00    +0.035 A 
ATOM     25  C   UNL     1      16.675 -11.682   3.576  0.00  0.00    +0.035 A 
ATOM     27  C   UNL     1      15.769 -12.319   1.429  0.00  0.00    +0.023 A 
ATOM     28  C   UNL     1      15.973 -12.723   4.182  0.00  0.00    +0.057 A 
ATOM     29  C   UNL     1      15.066 -13.361   2.036  0.00  0.00    +0.002 A 
ATOM     30  C   UNL     1      15.168 -13.564   3.412  0.00  0.00    +0.012 A 
BRANCH  28  32
ATOM      1  F   UNL     1      17.313 -12.642   6.163  0.00  0.00    -0.166 F 
ATOM      2  F   UNL     1      15.205 -12.187   6.382  0.00  0.00    -0.166 F 
ATOM      3  F   UNL     1      15.840 -14.233   6.014  0.00  0.00    -0.166 F 
ATOM     32  C   UNL     1      16.081 -12.939   5.654  0.00  0.00    +0.417 C 
ENDBRANCH  28  32
ENDBRANCH  10  21
ENDBRANCH  16   9
TORSDOF 5
ENDMDL
MODEL 3
REMARK VINA RESULT:      -7.8     27.409     32.679
REMARK  Name = 11941651
REMARK  5 active torsions:
REMARK  status: ('A' for Active; 'I' for Inactive)
REMARK    1  A    between atoms: N_8  and  C_15
REMARK    2  A    between atoms: N_9  and  C_16
REMARK    3  A    between atoms: N_10  and  C_21
REMARK    4  A    between atoms: C_22  and  C_26
REMARK    5  A    between atoms: C_28  and  C_32
REMARK                            x       y       z     vdW  Elec       q    Type
REMARK                         _______ _______ _______ _____ _____    ______ ____
ROOT
ATOM      4  O   UNL     1      -9.345 -10.748  20.054  0.00  0.00    -0.370 OA
ATOM      5  O   UNL     1      -9.814 -12.289  17.381  0.00  0.00    -0.370 OA
ATOM     13  C   UNL     1      -9.356 -12.693  18.683  0.00  0.00    +0.171 C 
ATOM     14  C   UNL     1      -8.500 -11.566  19.228  0.00  0.00    +0.171 C 
ATOM     15  C   UNL     1     -10.517 -12.774  19.645  0.00  0.00    +0.130 C 
ATOM     16  C   UNL     1      -8.069 -10.802  17.996  0.00  0.00    +0.131 C 
ATOM     17  C   UNL     1     -10.650 -11.340  20.127  0.00  0.00    +0.185 C 
ATOM     18  C   UNL     1      -9.243 -11.012  17.057  0.00  0.00    +0.185 C 
ENDROOT
BRANCH  15   8
ATOM      8  N   UNL     1     -10.183 -13.644  20.751  0.00  0.00    -0.306 N 
ATOM     11  N   UNL     1     -12.157 -13.116  21.905  0.00  0.00    -0.211 NA
ATOM     12  N   UNL     1     -10.557 -14.664  22.831  0.00  0.00    -0.223 NA
ATOM     19  C   UNL     1     -10.991 -13.812  21.863  0.00  0.00    +0.216 A 
ATOM     22  C   UNL     1     -12.919 -13.305  23.002  0.00  0.00    +0.111 A 
ATOM     23  C   UNL     1     -11.370 -14.805  23.900  0.00  0.00    +0.116 A 
ATOM     24  C   UNL     1     -12.573 -14.146  24.041  0.00  0.00    +0.051 A 
ATOM     35  H   UNL     1      -9.341 -14.206  20.706  0.00  0.00    +0.149 HD
BRANCH  22  26
ATOM      7  O   UNL     1     -14.463 -11.936  21.854  0.00  0.00    -0.461 OA
ATOM     26  C   UNL     1     -14.147 -12.556  23.020  0.00  0.00    +0.153 A 
ATOM     31  C   UNL     1     -15.102 -12.314  23.976  0.00  0.00    +0.051 A 
ATOM     33  C   UNL     1     -16.073 -11.490  23.357  0.00  0.00    +0.042 A 
ATOM     34  C   UNL     1     -15.639 -11.288  22.068  0.00  0.00    +0.196 A 
ENDBRANCH  22  26
ENDBRANCH  15   8
BRANCH  16   9
ATOM      6  O   UNL     1      -6.051  -9.367  16.555  0.00  0.00    -0.252 OA
ATOM      9  N   UNL     1      -6.853 -11.346  17.443  0.00  0.00    -0.292 N 
ATOM     10  N   UNL     1      -4.842 -11.367  16.332  0.00  0.00    -0.269 N 
ATOM     20  C   UNL     1      -5.913 -10.573  16.749  0.00  0.00    +0.304 C 
ATOM     36  H   UNL     1      -6.636 -12.322  17.621  0.00  0.00    +0.151 HD
ATOM     37  H   UNL     1      -4.886 -12.354  16.575  0.00  0.00    +0.156 HD
BRANCH  10  21
ATOM     21  C   UNL     1      -3.696 -10.967  15.608  0.00  0.00    +0.035 A 
ATOM     25  C   UNL     1      -3.759 -10.886  14.227  0.00  0.00    +0.035 A 
ATOM     27  C   UNL     1      -2.532 -10.662  16.296  0.00  0.00    +0.023 A 
ATOM     28  C   UNL     1      -2.628 -10.490  13.513  0.00  0.00    +0.057 A 
ATOM     29  C   UNL     1      -1.401 -10.265  15.582  0.00  0.00    +0.002 A 
ATOM     30  C   UNL     1      -1.448 -10.180  14.190  0.00  0.00    +0.012 A 
BRANCH  28  32
ATOM      1  F   UNL     1      -2.589 -11.607  11.397  0.00  0.00    -0.166 F 
ATOM      2  F   UNL     1      -3.830  -9.835  11.552  0.00  0.00    -0.166 F 
ATOM      3  F   UNL     1      -1.664  -9.642  11.511  0.00  0.00    -0.166 F 
ATOM     32  C   UNL     1      -2.679 -10.397  12.025  0.00  0.00    +0.417 C 
ENDBRANCH  28  32
ENDBRANCH  10  21
ENDBRANCH  16   9
TORSDOF 5
ENDMDL
MODEL 4
REMARK VINA RESULT:      -7.6     23.032     26.685
REMARK  Name = 11941651
REMARK  5 active torsions:
REMARK  status: ('A' for Active; 'I' for Inactive)
REMARK    1  A    between atoms: N_8  and  C_15
REMARK    2  A    between atoms: N_9  and  C_16
REMARK    3  A    between atoms: N_10  and  C_21
REMARK    4  A    between atoms: C_22  and  C_26
REMARK    5  A    between atoms: C_28  and  C_32
REMARK                            x       y       z     vdW  Elec       q    Type
REMARK                         _______ _______ _______ _____ _____    ______ ____
ROOT
ATOM      4  O   UNL     1      -5.616  -9.133  10.639  0.00  0.00    -0.370 OA
ATOM      5  O   UNL     1      -6.734 -11.972  11.297  0.00  0.00    -0.370 OA
ATOM     13  C   UNL     1      -5.406 -11.420  11.261  0.00  0.00    +0.171 C 
ATOM     14  C   UNL     1      -5.356 -10.442  10.104  0.00  0.00    +0.171 C 
ATOM     15  C   UNL     1      -5.162 -10.563  12.480  0.00  0.00    +0.130 C 
ATOM     16  C   UNL     1      -6.491 -10.878   9.204  0.00  0.00    +0.131 C 
ATOM     17  C   UNL     1      -5.739  -9.222  12.065  0.00  0.00    +0.185 C 
ATOM     18  C   UNL     1      -7.491 -11.447  10.196  0.00  0.00    +0.185 C 
ENDROOT
BRANCH  15   8
ATOM      8  N   UNL     1      -3.741 -10.443  12.724  0.00  0.00    -0.306 N 
ATOM     11  N   UNL     1      -4.004 -10.715  15.039  0.00  0.00    -0.211 NA
ATOM     12  N   UNL     1      -1.821 -10.389  14.070  0.00  0.00    -0.223 NA
ATOM     19  C   UNL     1      -3.172 -10.517  13.983  0.00  0.00    +0.216 A 
ATOM     22  C   UNL     1      -3.414 -10.783  16.251  0.00  0.00    +0.111 A 
ATOM     23  C   UNL     1      -1.299 -10.467  15.313  0.00  0.00    +0.116 A 
ATOM     24  C   UNL     1      -2.054 -10.666  16.450  0.00  0.00    +0.051 A 
ATOM     35  H   UNL     1      -3.108 -10.347  11.938  0.00  0.00    +0.149 HD
BRANCH  22  26
ATOM      7  O   UNL     1      -3.808 -11.693  18.395  0.00  0.00    -0.461 OA
ATOM     26  C   UNL     1      -4.319 -10.992  17.350  0.00  0.00    +0.153 A 
ATOM     31  C   UNL     1      -5.623 -10.636  17.593  0.00  0.00    +0.051 A 
ATOM     33  C   UNL     1      -5.936 -11.152  18.874  0.00  0.00    +0.042 A 
ATOM     34  C   UNL     1      -4.800 -11.786  19.319  0.00  0.00    +0.196 A 
ENDBRANCH  22  26
ENDBRANCH  15   8
BRANCH  16   9
ATOM      6  O   UNL     1      -4.545 -10.551   7.128  0.00  0.00    -0.252 OA
ATOM      9  N   UNL     1      -6.056 -11.882   8.265  0.00  0.00    -0.292 N 
ATOM     10  N   UNL     1      -4.878 -12.793   6.516  0.00  0.00    -0.269 N 
ATOM     20  C   UNL     1      -5.095 -11.641   7.275  0.00  0.00    +0.304 C 
ATOM     36  H   UNL     1      -6.416 -12.826   8.366  0.00  0.00    +0.151 HD
ATOM     37  H   UNL     1      -5.421 -13.615   6.770  0.00  0.00    +0.156 HD
BRANCH  10  21
ATOM     21  C   UNL     1      -3.990 -12.962   5.428  0.00  0.00    +0.035 A 
ATOM     25  C   UNL     1      -2.777 -13.598   5.635  0.00  0.00    +0.035 A 
ATOM     27  C   UNL     1      -4.354 -12.491   4.177  0.00  0.00    +0.023 A 
ATOM     28  C   UNL     1      -1.902 -13.766   4.561  0.00  0.00    +0.057 A 
ATOM     29  C   UNL     1      -3.479 -12.659   3.104  0.00  0.00    +0.002 A 
ATOM     30  C   UNL     1      -2.252 -13.296   3.295  0.00  0.00    +0.012 A 
BRANCH  28  32
ATOM      1  F   UNL     1       0.229 -14.398   3.675  0.00  0.00    -0.166 F 
ATOM      2  F   UNL     1       0.144 -13.925   5.789  0.00  0.00    -0.166 F 
ATOM      3  F   UNL     1      -0.731 -15.776   5.056  0.00  0.00    -0.166 F 
ATOM     32  C   UNL     1      -0.592 -14.449   4.765  0.00  0.00    +0.417 C 
ENDBRANCH  28  32
ENDBRANCH  10  21
ENDBRANCH  16   9
TORSDOF 5
ENDMDL
MODEL 5
REMARK VINA RESULT:      -7.6      7.758     12.732
REMARK  Name = 11941651
REMARK  5 active torsions:
REMARK  status: ('A' for Active; 'I' for Inactive)
REMARK    1  A    between atoms: N_8  and  C_15
REMARK    2  A    between atoms: N_9  and  C_16
REMARK    3  A    between atoms: N_10  and  C_21
REMARK    4  A    between atoms: C_22  and  C_26
REMARK    5  A    between atoms: C_28  and  C_32
REMARK                            x       y       z     vdW  Elec       q    Type
REMARK                         _______ _______ _______ _____ _____    ______ ____
ROOT
ATOM      4  O   UNL     1       5.755  13.313   4.565  0.00  0.00    -0.370 OA
ATOM      5  O   UNL     1       3.916  11.366   2.962  0.00  0.00    -0.370 OA
ATOM     13  C   UNL     1       4.013  11.705   4.356  0.00  0.00    +0.171 C 
ATOM     14  C   UNL     1       5.484  11.905   4.669  0.00  0.00    +0.171 C 
ATOM     15  C   UNL     1       3.393  13.058   4.611  0.00  0.00    +0.130 C 
ATOM     16  C   UNL     1       6.199  11.148   3.572  0.00  0.00    +0.131 C 
ATOM     17  C   UNL     1       4.531  14.010   4.291  0.00  0.00    +0.185 C 
ATOM     18  C   UNL     1       5.237  11.279   2.405  0.00  0.00    +0.185 C 
ENDROOT
BRANCH  15   8
ATOM      8  N   UNL     1       3.018  13.176   6.002  0.00  0.00    -0.306 N 
ATOM     11  N   UNL     1       1.048  11.941   5.690  0.00  0.00    -0.211 NA
ATOM     12  N   UNL     1       1.632  12.811   7.860  0.00  0.00    -0.223 NA
ATOM     19  C   UNL     1       1.864  12.626   6.533  0.00  0.00    +0.216 A 
ATOM     22  C   UNL     1      -0.067  11.418   6.241  0.00  0.00    +0.111 A 
ATOM     23  C   UNL     1       0.498  12.261   8.344  0.00  0.00    +0.116 A 
ATOM     24  C   UNL     1      -0.396  11.547   7.574  0.00  0.00    +0.051 A 
ATOM     35  H   UNL     1       3.645  13.640   6.649  0.00  0.00    +0.149 HD
BRANCH  22  26
ATOM      7  O   UNL     1      -1.276   9.455   5.728  0.00  0.00    -0.461 OA
ATOM     26  C   UNL     1      -0.912  10.699   5.325  0.00  0.00    +0.153 A 
ATOM     31  C   UNL     1      -1.450  10.990   4.095  0.00  0.00    +0.051 A 
ATOM     33  C   UNL     1      -2.197   9.848   3.716  0.00  0.00    +0.042 A 
ATOM     34  C   UNL     1      -2.059   8.943   4.742  0.00  0.00    +0.196 A 
ENDBRANCH  22  26
ENDBRANCH  15   8
BRANCH  16   9
ATOM      6  O   UNL     1       8.626   9.957   4.521  0.00  0.00    -0.252 OA
ATOM      9  N   UNL     1       6.397   9.766   3.935  0.00  0.00    -0.292 N 
ATOM     10  N   UNL     1       7.512   7.895   4.665  0.00  0.00    -0.269 N 
ATOM     20  C   UNL     1       7.621   9.261   4.393  0.00  0.00    +0.304 C 
ATOM     36  H   UNL     1       5.595   9.143   3.920  0.00  0.00    +0.151 HD
ATOM     37  H   UNL     1       6.603   7.469   4.501  0.00  0.00    +0.156 HD
BRANCH  10  21
ATOM     21  C   UNL     1       8.517   7.023   5.143  0.00  0.00    +0.035 A 
ATOM     25  C   UNL     1       8.551   6.699   6.489  0.00  0.00    +0.035 A 
ATOM     27  C   UNL     1       9.445   6.506   4.253  0.00  0.00    +0.023 A 
ATOM     28  C   UNL     1       9.542   5.837   6.960  0.00  0.00    +0.057 A 
ATOM     29  C   UNL     1      10.436   5.644   4.724  0.00  0.00    +0.002 A 
ATOM     30  C   UNL     1      10.485   5.309   6.077  0.00  0.00    +0.012 A 
BRANCH  28  32
ATOM      1  F   UNL     1       8.681   6.148   9.170  0.00  0.00    -0.166 F 
ATOM      2  F   UNL     1       9.357   4.155   8.650  0.00  0.00    -0.166 F 
ATOM      3  F   UNL     1      10.808   5.743   8.970  0.00  0.00    -0.166 F 
ATOM     32  C   UNL     1       9.593   5.477   8.407  0.00  0.00    +0.417 C 
ENDBRANCH  28  32
ENDBRANCH  10  21
ENDBRANCH  16   9
TORSDOF 5
ENDMDL
MODEL 6
REMARK VINA RESULT:      -7.6     21.327     24.634
REMARK  Name = 11941651
REMARK  5 active torsions:
REMARK  status: ('A' for Active; 'I' for Inactive)
REMARK    1  A    between atoms: N_8  and  C_15
REMARK    2  A    between atoms: N_9  and  C_16
REMARK    3  A    between atoms: N_10  and  C_21
REMARK    4  A    between atoms: C_22  and  C_26
REMARK    5  A    between atoms: C_28  and  C_32
REMARK                            x       y       z     vdW  Elec       q    Type
REMARK                         _______ _______ _______ _____ _____    ______ ____
ROOT
ATOM      4  O   UNL     1      -4.380 -14.837   4.606  0.00  0.00    -0.370 OA
ATOM      5  O   UNL     1      -1.553 -14.234   5.783  0.00  0.00    -0.370 OA
ATOM     13  C   UNL     1      -2.662 -13.398   5.405  0.00  0.00    +0.171 C 
ATOM     14  C   UNL     1      -3.287 -14.013   4.168  0.00  0.00    +0.171 C 
ATOM     15  C   UNL     1      -3.753 -13.473   6.447  0.00  0.00    +0.130 C 
ATOM     16  C   UNL     1      -2.184 -14.867   3.584  0.00  0.00    +0.131 C 
ATOM     17  C   UNL     1      -4.529 -14.708   6.027  0.00  0.00    +0.185 C 
ATOM     18  C   UNL     1      -1.412 -15.290   4.821  0.00  0.00    +0.185 C 
ENDROOT
BRANCH  15   8
ATOM      8  N   UNL     1      -4.595 -12.301   6.366  0.00  0.00    -0.306 N 
ATOM     11  N   UNL     1      -3.976 -11.572   8.508  0.00  0.00    -0.211 NA
ATOM     12  N   UNL     1      -5.533 -10.307   7.172  0.00  0.00    -0.223 NA
ATOM     19  C   UNL     1      -4.705 -11.366   7.380  0.00  0.00    +0.216 A 
ATOM     22  C   UNL     1      -4.107 -10.641   9.476  0.00  0.00    +0.111 A 
ATOM     23  C   UNL     1      -5.616  -9.415   8.182  0.00  0.00    +0.116 A 
ATOM     24  C   UNL     1      -4.919  -9.530   9.367  0.00  0.00    +0.051 A 
ATOM     35  H   UNL     1      -5.102 -12.111   5.509  0.00  0.00    +0.149 HD
BRANCH  22  26
ATOM      7  O   UNL     1      -2.478  -9.884  11.010  0.00  0.00    -0.461 OA
ATOM     26  C   UNL     1      -3.325 -10.886  10.658  0.00  0.00    +0.153 A 
ATOM     31  C   UNL     1      -3.232 -11.934  11.540  0.00  0.00    +0.051 A 
ATOM     33  C   UNL     1      -2.264 -11.553  12.500  0.00  0.00    +0.042 A 
ATOM     34  C   UNL     1      -1.836 -10.299  12.134  0.00  0.00    +0.196 A 
ENDBRANCH  22  26
ENDBRANCH  15   8
BRANCH  16   9
ATOM      6  O   UNL     1      -0.423 -15.911   1.580  0.00  0.00    -0.252 OA
ATOM      9  N   UNL     1      -1.354 -14.105   2.683  0.00  0.00    -0.292 N 
ATOM     10  N   UNL     1       0.162 -13.712   1.004  0.00  0.00    -0.269 N 
ATOM     20  C   UNL     1      -0.517 -14.695   1.728  0.00  0.00    +0.304 C 
ATOM     36  H   UNL     1      -1.429 -13.092   2.699  0.00  0.00    +0.151 HD
ATOM     37  H   UNL     1      -0.031 -12.745   1.256  0.00  0.00    +0.156 HD
BRANCH  10  21
ATOM     21  C   UNL     1       1.094 -13.894  -0.045  0.00  0.00    +0.035 A 
ATOM     25  C   UNL     1       2.419 -14.156   0.262  0.00  0.00    +0.035 A 
ATOM     27  C   UNL     1       0.660 -13.812  -1.358  0.00  0.00    +0.023 A 
ATOM     28  C   UNL     1       3.337 -14.337  -0.772  0.00  0.00    +0.057 A 
ATOM     29  C   UNL     1       1.579 -13.993  -2.393  0.00  0.00    +0.002 A 
ATOM     30  C   UNL     1       2.917 -14.256  -2.100  0.00  0.00    +0.012 A 
BRANCH  28  32
ATOM      1  F   UNL     1       5.006 -14.833   0.869  0.00  0.00    -0.166 F 
ATOM      2  F   UNL     1       5.258 -15.725  -1.091  0.00  0.00    -0.166 F 
ATOM      3  F   UNL     1       5.595 -13.595  -0.819  0.00  0.00    -0.166 F 
ATOM     32  C   UNL     1       4.768 -14.619  -0.459  0.00  0.00    +0.417 C 
ENDBRANCH  28  32
ENDBRANCH  10  21
ENDBRANCH  16   9
TORSDOF 5
ENDMDL
MODEL 7
REMARK VINA RESULT:      -7.5      5.458     12.633
REMARK  Name = 11941651
REMARK  5 active torsions:
REMARK  status: ('A' for Active; 'I' for Inactive)
REMARK    1  A    between atoms: N_8  and  C_15
REMARK    2  A    between atoms: N_9  and  C_16
REMARK    3  A    between atoms: N_10  and  C_21
REMARK    4  A    between atoms: C_22  and  C_26
REMARK    5  A    between atoms: C_28  and  C_32
REMARK                            x       y       z     vdW  Elec       q    Type
REMARK                         _______ _______ _______ _____ _____    ______ ____
ROOT
ATOM      4  O   UNL     1       9.661   8.193   5.351  0.00  0.00    -0.370 OA
ATOM      5  O   UNL     1      10.758   5.881   7.137  0.00  0.00    -0.370 OA
ATOM     13  C   UNL     1      11.370   7.034   6.532  0.00  0.00    +0.171 C 
ATOM     14  C   UNL     1      10.716   7.232   5.179  0.00  0.00    +0.171 C 
ATOM     15  C   UNL     1      11.012   8.282   7.303  0.00  0.00    +0.130 C 
ATOM     16  C   UNL     1      10.142   5.874   4.845  0.00  0.00    +0.131 C 
ATOM     17  C   UNL     1       9.671   8.669   6.704  0.00  0.00    +0.185 C 
ATOM     18  C   UNL     1       9.813   5.314   6.217  0.00  0.00    +0.185 C 
ENDROOT
BRANCH  15   8
ATOM      8  N   UNL     1      11.989   9.317   7.051  0.00  0.00    -0.306 N 
ATOM     11  N   UNL     1      11.250  10.610   8.864  0.00  0.00    -0.211 NA
ATOM     12  N   UNL     1      13.072  11.355   7.472  0.00  0.00    -0.223 NA
ATOM     19  C   UNL     1      12.107  10.462   7.819  0.00  0.00    +0.216 A 
ATOM     22  C   UNL     1      11.394  11.738   9.591  0.00  0.00    +0.111 A 
ATOM     23  C   UNL     1      13.159  12.460   8.243  0.00  0.00    +0.116 A 
ATOM     24  C   UNL     1      12.340  12.706   9.326  0.00  0.00    +0.051 A 
ATOM     35  H   UNL     1      12.666   9.192   6.306  0.00  0.00    +0.149 HD
BRANCH  22  26
ATOM      7  O   UNL     1      11.048  11.976  11.916  0.00  0.00    -0.461 OA
ATOM     26  C   UNL     1      10.474  11.867  10.690  0.00  0.00    +0.153 A 
ATOM     31  C   UNL     1       9.105  11.905  10.787  0.00  0.00    +0.051 A 
ATOM     33  C   UNL     1       8.816  12.047  12.166  0.00  0.00    +0.042 A 
ATOM     34  C   UNL     1      10.030  12.086  12.809  0.00  0.00    +0.196 A 
ENDBRANCH  22  26
ENDBRANCH  15   8
BRANCH  16   9
ATOM      6  O   UNL     1      10.961   6.106   2.110  0.00  0.00    -0.252 OA
ATOM      9  N   UNL     1      11.110   5.051   4.162  0.00  0.00    -0.292 N 
ATOM     10  N   UNL     1      12.414   4.291   2.431  0.00  0.00    -0.269 N 
ATOM     20  C   UNL     1      11.456   5.231   2.817  0.00  0.00    +0.304 C 
ATOM     36  H   UNL     1      11.612   4.350   4.698  0.00  0.00    +0.151 HD
ATOM     37  H   UNL     1      12.718   3.631   3.144  0.00  0.00    +0.156 HD
BRANCH  10  21
ATOM     21  C   UNL     1      13.020   4.139   1.162  0.00  0.00    +0.035 A 
ATOM     25  C   UNL     1      12.329   3.490   0.153  0.00  0.00    +0.035 A 
ATOM     27  C   UNL     1      14.292   4.647   0.954  0.00  0.00    +0.023 A 
ATOM     28  C   UNL     1      12.926   3.342  -1.099  0.00  0.00    +0.057 A 
ATOM     29  C   UNL     1      14.890   4.499  -0.298  0.00  0.00    +0.002 A 
ATOM     30  C   UNL     1      14.207   3.846  -1.325  0.00  0.00    +0.012 A 
BRANCH  28  32
ATOM      1  F   UNL     1      10.913   3.084  -2.367  0.00  0.00    -0.166 F 
ATOM      2  F   UNL     1      12.785   2.786  -3.420  0.00  0.00    -0.166 F 
ATOM      3  F   UNL     1      12.097   1.299  -1.990  0.00  0.00    -0.166 F 
ATOM     32  C   UNL     1      12.196   2.645  -2.197  0.00  0.00    +0.417 C 
ENDBRANCH  28  32
ENDBRANCH  10  21
ENDBRANCH  16   9
TORSDOF 5
ENDMDL
MODEL 8
REMARK VINA RESULT:      -7.4     26.666     28.887
REMARK  Name = 11941651
REMARK  5 active torsions:
REMARK  status: ('A' for Active; 'I' for Inactive)
REMARK    1  A    between atoms: N_8  and  C_15
REMARK    2  A    between atoms: N_9  and  C_16
REMARK    3  A    between atoms: N_10  and  C_21
REMARK    4  A    between atoms: C_22  and  C_26
REMARK    5  A    between atoms: C_28  and  C_32
REMARK                            x       y       z     vdW  Elec       q    Type
REMARK                         _______ _______ _______ _____ _____    ______ ____
ROOT
ATOM      4  O   UNL     1     -12.751  -9.397  13.868  0.00  0.00    -0.370 OA
ATOM      5  O   UNL     1     -12.641  -6.710  15.452  0.00  0.00    -0.370 OA
ATOM     13  C   UNL     1     -11.949  -7.196  14.288  0.00  0.00    +0.171 C 
ATOM     14  C   UNL     1     -11.686  -8.673  14.507  0.00  0.00    +0.171 C 
ATOM     15  C   UNL     1     -12.859  -7.157  13.083  0.00  0.00    +0.130 C 
ATOM     16  C   UNL     1     -11.761  -8.842  16.008  0.00  0.00    +0.131 C 
ATOM     17  C   UNL     1     -13.613  -8.469  13.194  0.00  0.00    +0.185 C 
ATOM     18  C   UNL     1     -12.765  -7.776  16.405  0.00  0.00    +0.185 C 
ENDROOT
BRANCH  15   8
ATOM      8  N   UNL     1     -12.072  -7.133  11.870  0.00  0.00    -0.306 N 
ATOM     11  N   UNL     1     -13.186  -5.236  11.054  0.00  0.00    -0.211 NA
ATOM     12  N   UNL     1     -11.424  -6.280   9.783  0.00  0.00    -0.223 NA
ATOM     19  C   UNL     1     -12.233  -6.188  10.872  0.00  0.00    +0.216 A 
ATOM     22  C   UNL     1     -13.315  -4.331  10.062  0.00  0.00    +0.111 A 
ATOM     23  C   UNL     1     -11.608  -5.342   8.829  0.00  0.00    +0.116 A 
ATOM     24  C   UNL     1     -12.546  -4.334   8.916  0.00  0.00    +0.051 A 
ATOM     35  H   UNL     1     -11.324  -7.807  11.748  0.00  0.00    +0.149 HD
BRANCH  22  26
ATOM      7  O   UNL     1     -14.638  -2.574   9.201  0.00  0.00    -0.461 OA
ATOM     26  C   UNL     1     -14.331  -3.336  10.281  0.00  0.00    +0.153 A 
ATOM     31  C   UNL     1     -15.084  -2.967  11.369  0.00  0.00    +0.051 A 
ATOM     33  C   UNL     1     -15.912  -1.907  10.928  0.00  0.00    +0.042 A 
ATOM     34  C   UNL     1     -15.603  -1.705   9.603  0.00  0.00    +0.196 A 
ENDBRANCH  22  26
ENDBRANCH  15   8
BRANCH  16   9
ATOM      6  O   UNL     1      -9.683 -10.771  16.420  0.00  0.00    -0.252 OA
ATOM      9  N   UNL     1     -10.478  -8.609  16.624  0.00  0.00    -0.292 N 
ATOM     10  N   UNL     1      -8.376  -9.093  17.414  0.00  0.00    -0.269 N 
ATOM     20  C   UNL     1      -9.513  -9.610  16.788  0.00  0.00    +0.304 C 
ATOM     36  H   UNL     1     -10.237  -7.660  16.893  0.00  0.00    +0.151 HD
ATOM     37  H   UNL     1      -8.399  -8.105  17.657  0.00  0.00    +0.156 HD
BRANCH  10  21
ATOM     21  C   UNL     1      -7.186  -9.776  17.756  0.00  0.00    +0.035 A 
ATOM     25  C   UNL     1      -6.192  -9.927  16.804  0.00  0.00    +0.035 A 
ATOM     27  C   UNL     1      -7.038 -10.278  19.039  0.00  0.00    +0.023 A 
ATOM     28  C   UNL     1      -5.017 -10.599  17.143  0.00  0.00    +0.057 A 
ATOM     29  C   UNL     1      -5.864 -10.951  19.378  0.00  0.00    +0.002 A 
ATOM     30  C   UNL     1      -4.853 -11.112  18.430  0.00  0.00    +0.012 A 
BRANCH  28  32
ATOM      1  F   UNL     1      -3.581 -12.073  15.922  0.00  0.00    -0.166 F 
ATOM      2  F   UNL     1      -4.264 -10.290  14.895  0.00  0.00    -0.166 F 
ATOM      3  F   UNL     1      -2.783 -10.129  16.479  0.00  0.00    -0.166 F 
ATOM     32  C   UNL     1      -3.936 -10.771  16.130  0.00  0.00    +0.417 C 
ENDBRANCH  28  32
ENDBRANCH  10  21
ENDBRANCH  16   9
TORSDOF 5
ENDMDL
MODEL 9
REMARK VINA RESULT:      -7.3     27.241     28.878
REMARK  Name = 11941651
REMARK  5 active torsions:
REMARK  status: ('A' for Active; 'I' for Inactive)
REMARK    1  A    between atoms: N_8  and  C_15
REMARK    2  A    between atoms: N_9  and  C_16
REMARK    3  A    between atoms: N_10  and  C_21
REMARK    4  A    between atoms: C_22  and  C_26
REMARK    5  A    between atoms: C_28  and  C_32
REMARK                            x       y       z     vdW  Elec       q    Type
REMARK                         _______ _______ _______ _____ _____    ______ ____
ROOT
ATOM      4  O   UNL     1     -12.433  -9.233  14.879  0.00  0.00    -0.370 OA
ATOM      5  O   UNL     1     -11.426  -6.335  15.450  0.00  0.00    -0.370 OA
ATOM     13  C   UNL     1     -11.275  -7.228  14.332  0.00  0.00    +0.171 C 
ATOM     14  C   UNL     1     -11.129  -8.629  14.894  0.00  0.00    +0.171 C 
ATOM     15  C   UNL     1     -12.552  -7.282  13.528  0.00  0.00    +0.130 C 
ATOM     16  C   UNL     1     -10.666  -8.409  16.316  0.00  0.00    +0.131 C 
ATOM     17  C   UNL     1     -13.364  -8.330  14.267  0.00  0.00    +0.185 C 
ATOM     18  C   UNL     1     -11.318  -7.085  16.669  0.00  0.00    +0.185 C 
ENDROOT
BRANCH  15   8
ATOM      8  N   UNL     1     -12.269  -7.726  12.181  0.00  0.00    -0.306 N 
ATOM     11  N   UNL     1     -13.361  -5.881  11.228  0.00  0.00    -0.211 NA
ATOM     12  N   UNL     1     -12.334  -7.564   9.842  0.00  0.00    -0.223 NA
ATOM     19  C   UNL     1     -12.667  -7.036  11.050  0.00  0.00    +0.216 A 
ATOM     22  C   UNL     1     -13.733  -5.235  10.103  0.00  0.00    +0.111 A 
ATOM     23  C   UNL     1     -12.738  -6.865   8.759  0.00  0.00    +0.116 A 
ATOM     24  C   UNL     1     -13.445  -5.683   8.830  0.00  0.00    +0.051 A 
ATOM     35  H   UNL     1     -11.709  -8.558  12.038  0.00  0.00    +0.149 HD
BRANCH  22  26
ATOM      7  O   UNL     1     -14.536  -3.608  11.615  0.00  0.00    -0.461 OA
ATOM     26  C   UNL     1     -14.465  -4.016  10.322  0.00  0.00    +0.153 A 
ATOM     31  C   UNL     1     -15.133  -3.144   9.498  0.00  0.00    +0.051 A 
ATOM     33  C   UNL     1     -15.649  -2.129  10.340  0.00  0.00    +0.042 A 
ATOM     34  C   UNL     1     -15.259  -2.457  11.617  0.00  0.00    +0.196 A 
ENDBRANCH  22  26
ENDBRANCH  15   8
BRANCH  16   9
ATOM      6  O   UNL     1      -8.816 -10.597  16.361  0.00  0.00    -0.252 OA
ATOM      9  N   UNL     1      -9.228  -8.321  16.390  0.00  0.00    -0.292 N 
ATOM     10  N   UNL     1      -7.053  -9.052  16.483  0.00  0.00    -0.269 N 
ATOM     20  C   UNL     1      -8.391  -9.444  16.407  0.00  0.00    +0.304 C 
ATOM     36  H   UNL     1      -8.799  -7.402  16.363  0.00  0.00    +0.151 HD
ATOM     37  H   UNL     1      -6.872  -8.051  16.516  0.00  0.00    +0.156 HD
BRANCH  10  21
ATOM     21  C   UNL     1      -5.906  -9.880  16.522  0.00  0.00    +0.035 A 
ATOM     25  C   UNL     1      -5.567 -10.514  17.705  0.00  0.00    +0.035 A 
ATOM     27  C   UNL     1      -5.149 -10.041  15.373  0.00  0.00    +0.023 A 
ATOM     28  C   UNL     1      -4.437 -11.332  17.742  0.00  0.00    +0.057 A 
ATOM     29  C   UNL     1      -4.019 -10.859  15.410  0.00  0.00    +0.002 A 
ATOM     30  C   UNL     1      -3.662 -11.505  16.594  0.00  0.00    +0.012 A 
BRANCH  28  32
ATOM      1  F   UNL     1      -4.228 -13.378  18.965  0.00  0.00    -0.166 F 
ATOM      2  F   UNL     1      -2.750 -11.841  19.358  0.00  0.00    -0.166 F 
ATOM      3  F   UNL     1      -4.786 -11.595  20.079  0.00  0.00    -0.166 F 
ATOM     32  C   UNL     1      -4.056 -12.023  19.008  0.00  0.00    +0.417 C 
ENDBRANCH  28  32
ENDBRANCH  10  21
ENDBRANCH  16   9
TORSDOF 5
ENDMDL
MODEL 10
REMARK VINA RESULT:      -7.3      5.477     12.788
REMARK  Name = 11941651
REMARK  5 active torsions:
REMARK  status: ('A' for Active; 'I' for Inactive)
REMARK    1  A    between atoms: N_8  and  C_15
REMARK    2  A    between atoms: N_9  and  C_16
REMARK    3  A    between atoms: N_10  and  C_21
REMARK    4  A    between atoms: C_22  and  C_26
REMARK    5  A    between atoms: C_28  and  C_32
REMARK                            x       y       z     vdW  Elec       q    Type
REMARK                         _______ _______ _______ _____ _____    ______ ____
ROOT
ATOM      4  O   UNL     1       8.866   7.105   6.860  0.00  0.00    -0.370 OA
ATOM      5  O   UNL     1      11.922   7.358   7.443  0.00  0.00    -0.370 OA
ATOM     13  C   UNL     1      10.989   8.170   6.708  0.00  0.00    +0.171 C 
ATOM     14  C   UNL     1      10.023   7.228   6.015  0.00  0.00    +0.171 C 
ATOM     15  C   UNL     1      10.120   8.959   7.656  0.00  0.00    +0.130 C 
ATOM     16  C   UNL     1      10.771   5.915   5.952  0.00  0.00    +0.131 C 
ATOM     17  C   UNL     1       9.014   7.975   7.991  0.00  0.00    +0.185 C 
ATOM     18  C   UNL     1      11.635   5.973   7.199  0.00  0.00    +0.185 C 
ENDROOT
BRANCH  15   8
ATOM      8  N   UNL     1       9.574  10.115   6.981  0.00  0.00    -0.306 N 
ATOM     11  N   UNL     1       9.338  11.312   8.985  0.00  0.00    -0.211 NA
ATOM     12  N   UNL     1       8.692  12.287   6.877  0.00  0.00    -0.223 NA
ATOM     19  C   UNL     1       9.189  11.273   7.635  0.00  0.00    +0.216 A 
ATOM     22  C   UNL     1       8.953  12.456   9.589  0.00  0.00    +0.111 A 
ATOM     23  C   UNL     1       8.327  13.401   7.547  0.00  0.00    +0.116 A 
ATOM     24  C   UNL     1       8.437  13.544   8.915  0.00  0.00    +0.051 A 
ATOM     35  H   UNL     1       9.507  10.116   5.969  0.00  0.00    +0.149 HD
BRANCH  22  26
ATOM      7  O   UNL     1      10.274  11.912  11.470  0.00  0.00    -0.461 OA
ATOM     26  C   UNL     1       9.122  12.469  11.018  0.00  0.00    +0.153 A 
ATOM     31  C   UNL     1       8.359  12.928  12.063  0.00  0.00    +0.051 A 
ATOM     33  C   UNL     1       9.091  12.634  13.239  0.00  0.00    +0.042 A 
ATOM     34  C   UNL     1      10.248  12.017  12.825  0.00  0.00    +0.196 A 
ENDBRANCH  22  26
ENDBRANCH  15   8
BRANCH  16   9
ATOM      6  O   UNL     1      10.133   4.485   3.553  0.00  0.00    -0.252 OA
ATOM      9  N   UNL     1      11.577   5.830   4.759  0.00  0.00    -0.292 N 
ATOM     10  N   UNL     1      12.167   5.205   2.629  0.00  0.00    -0.269 N 
ATOM     20  C   UNL     1      11.191   5.106   3.623  0.00  0.00    +0.304 C 
ATOM     36  H   UNL     1      12.434   6.372   4.716  0.00  0.00    +0.151 HD
ATOM     37  H   UNL     1      12.990   5.760   2.852  0.00  0.00    +0.156 HD
BRANCH  10  21
ATOM     21  C   UNL     1      12.156   4.622   1.340  0.00  0.00    +0.035 A 
ATOM     25  C   UNL     1      11.208   5.032   0.418  0.00  0.00    +0.035 A 
ATOM     27  C   UNL     1      13.097   3.655   1.026  0.00  0.00    +0.023 A 
ATOM     28  C   UNL     1      11.199   4.458  -0.854  0.00  0.00    +0.057 A 
ATOM     29  C   UNL     1      13.088   3.081  -0.246  0.00  0.00    +0.002 A 
ATOM     30  C   UNL     1      12.139   3.482  -1.186  0.00  0.00    +0.012 A 
BRANCH  28  32
ATOM      1  F   UNL     1      10.588   5.944  -2.628  0.00  0.00    -0.166 F 
ATOM      2  F   UNL     1       9.848   3.909  -2.749  0.00  0.00    -0.166 F 
ATOM      3  F   UNL     1       9.011   5.282  -1.285  0.00  0.00    -0.166 F 
ATOM     32  C   UNL     1      10.184   4.889  -1.859  0.00  0.00    +0.417 C 
ENDBRANCH  28  32
ENDBRANCH  10  21
ENDBRANCH  16   9
TORSDOF 5
ENDMDL
