MODEL 1
REMARK VINA RESULT:      -6.6      0.000      0.000
REMARK  Name = 75536403
REMARK  10 active torsions:
REMARK  status: ('A' for Active; 'I' for Inactive)
REMARK    1  A    between atoms: O_2  and  C_8
REMARK    2  A    between atoms: O_4  and  C_24
REMARK    3  A    between atoms: O_4  and  C_25
REMARK    4  A    between atoms: N_5  and  C_12
REMARK    5  A    between atoms: N_5  and  C_15
REMARK    6  A    between atoms: N_5  and  C_16
REMARK    7  A    between atoms: C_7  and  C_12
REMARK    8  A    between atoms: C_9  and  C_13
REMARK    9  A    between atoms: C_13  and  C_14
REMARK   10  A    between atoms: C_18  and  C_19
REMARK                            x       y       z     vdW  Elec       q    Type
REMARK                         _______ _______ _______ _____ _____    ______ ____
ROOT
ATOM     13  C   UNL     1      11.464   8.708  17.610  0.00  0.00    +0.090 C 
ENDROOT
BRANCH  13   9
ATOM      1  O   UNL     1      10.872   8.268  19.875  0.00  0.00    -0.369 OA
ATOM      7  C   UNL     1      11.185   7.915  21.229  0.00  0.00    +0.161 C 
ATOM      8  C   UNL     1      11.935   6.579  21.298  0.00  0.00    +0.145 C 
ATOM      9  C   UNL     1      11.990   8.319  18.986  0.00  0.00    +0.125 C 
ATOM     10  C   UNL     1      13.117   6.526  20.334  0.00  0.00    +0.036 C 
ATOM     11  C   UNL     1      12.701   6.967  18.934  0.00  0.00    +0.034 C 
BRANCH   8   2
ATOM      2  O   UNL     1      11.036   5.525  20.944  0.00  0.00    -0.389 OA
ATOM     26  H   UNL     1      10.322   5.512  21.604  0.00  0.00    +0.210 HD
ENDBRANCH   8   2
BRANCH   7  12
ATOM     12  C   UNL     1      11.920   9.050  21.937  0.00  0.00    +0.118 C 
BRANCH  12   5
ATOM      5  N   UNL     1      11.066  10.221  22.067  0.00  0.00    -0.306 NA
ATOM     15  C   UNL     1      11.646  11.366  21.362  0.00  0.00    +0.104 C 
ATOM     16  C   UNL     1      10.851  10.551  23.477  0.00  0.00    +0.104 C 
ENDBRANCH  12   5
ENDBRANCH   7  12
ENDBRANCH  13   9
BRANCH  13  14
ATOM      3  O   UNL     1      13.733   9.683  14.984  0.00  0.00    -0.354 OA
ATOM      6  N   UNL     1      12.659   8.947  15.471  0.00  0.00    -0.083 NA
ATOM     14  C   UNL     1      12.542   9.313  16.751  0.00  0.00    +0.087 A 
ATOM     17  C   UNL     1      13.505  10.267  17.123  0.00  0.00    +0.076 A 
ATOM     18  C   UNL     1      14.228  10.465  15.977  0.00  0.00    +0.167 A 
BRANCH  18  19
ATOM     19  C   UNL     1      15.347  11.289  15.621  0.00  0.00    +0.020 A 
ATOM     20  C   UNL     1      15.865  11.242  14.327  0.00  0.00    +0.015 A 
ATOM     21  C   UNL     1      15.915  12.139  16.570  0.00  0.00    +0.015 A 
ATOM     22  C   UNL     1      16.952  12.045  13.982  0.00  0.00    +0.046 A 
ATOM     23  C   UNL     1      17.003  12.941  16.225  0.00  0.00    +0.046 A 
ATOM     24  C   UNL     1      17.521  12.894  14.930  0.00  0.00    +0.120 A 
BRANCH  24   4
ATOM      4  O   UNL     1      18.581  13.679  14.592  0.00  0.00    -0.495 OA
ATOM     25  C   UNL     1      19.020  13.627  13.236  0.00  0.00    +0.277 C 
ENDBRANCH  24   4
ENDBRANCH  18  19
ENDBRANCH  13  14
TORSDOF 7
ENDMDL
MODEL 2
REMARK VINA RESULT:      -6.5      5.311      6.773
REMARK  Name = 75536403
REMARK  10 active torsions:
REMARK  status: ('A' for Active; 'I' for Inactive)
REMARK    1  A    between atoms: O_2  and  C_8
REMARK    2  A    between atoms: O_4  and  C_24
REMARK    3  A    between atoms: O_4  and  C_25
REMARK    4  A    between atoms: N_5  and  C_12
REMARK    5  A    between atoms: N_5  and  C_15
REMARK    6  A    between atoms: N_5  and  C_16
REMARK    7  A    between atoms: C_7  and  C_12
REMARK    8  A    between atoms: C_9  and  C_13
REMARK    9  A    between atoms: C_13  and  C_14
REMARK   10  A    between atoms: C_18  and  C_19
REMARK                            x       y       z     vdW  Elec       q    Type
REMARK                         _______ _______ _______ _____ _____    ______ ____
ROOT
ATOM     13  C   UNL     1      14.528   7.546  18.800  0.00  0.00    +0.090 C 
ENDROOT
BRANCH  13   9
ATOM      1  O   UNL     1      12.916   8.966  19.831  0.00  0.00    -0.369 OA
ATOM      7  C   UNL     1      12.042   9.332  20.907  0.00  0.00    +0.161 C 
ATOM      8  C   UNL     1      11.073   8.194  21.251  0.00  0.00    +0.145 C 
ATOM      9  C   UNL     1      13.666   7.766  20.038  0.00  0.00    +0.125 C 
ATOM     10  C   UNL     1      11.787   6.857  21.433  0.00  0.00    +0.036 C 
ATOM     11  C   UNL     1      12.731   6.579  20.267  0.00  0.00    +0.034 C 
BRANCH   8   2
ATOM      2  O   UNL     1      10.137   8.046  20.180  0.00  0.00    -0.389 OA
ATOM     26  H   UNL     1       9.294   7.751  20.564  0.00  0.00    +0.210 HD
ENDBRANCH   8   2
BRANCH   7  12
ATOM     12  C   UNL     1      12.835   9.825  22.115  0.00  0.00    +0.118 C 
BRANCH  12   5
ATOM      5  N   UNL     1      12.325  11.105  22.583  0.00  0.00    -0.306 NA
ATOM     15  C   UNL     1      11.351  10.913  23.660  0.00  0.00    +0.104 C 
ATOM     16  C   UNL     1      11.718  11.856  21.482  0.00  0.00    +0.104 C 
ENDBRANCH  12   5
ENDBRANCH   7  12
ENDBRANCH  13   9
BRANCH  13  14
ATOM      3  O   UNL     1      17.537   5.571  18.979  0.00  0.00    -0.354 OA
ATOM      6  N   UNL     1      16.328   5.919  18.388  0.00  0.00    -0.083 NA
ATOM     14  C   UNL     1      15.847   6.909  19.146  0.00  0.00    +0.087 A 
ATOM     17  C   UNL     1      16.701   7.225  20.217  0.00  0.00    +0.076 A 
ATOM     18  C   UNL     1      17.747   6.356  20.067  0.00  0.00    +0.167 A 
BRANCH  18  19
ATOM     19  C   UNL     1      18.966   6.112  20.784  0.00  0.00    +0.020 A 
ATOM     20  C   UNL     1      19.213   6.777  21.984  0.00  0.00    +0.015 A 
ATOM     21  C   UNL     1      19.903   5.210  20.280  0.00  0.00    +0.015 A 
ATOM     22  C   UNL     1      20.398   6.540  22.682  0.00  0.00    +0.046 A 
ATOM     23  C   UNL     1      21.087   4.973  20.977  0.00  0.00    +0.046 A 
ATOM     24  C   UNL     1      21.335   5.638  22.178  0.00  0.00    +0.120 A 
BRANCH  24   4
ATOM      4  O   UNL     1      22.490   5.404  22.860  0.00  0.00    -0.495 OA
ATOM     25  C   UNL     1      23.319   4.345  22.386  0.00  0.00    +0.277 C 
ENDBRANCH  24   4
ENDBRANCH  18  19
ENDBRANCH  13  14
TORSDOF 7
ENDMDL
MODEL 3
REMARK VINA RESULT:      -5.9      5.694      7.184
REMARK  Name = 75536403
REMARK  10 active torsions:
REMARK  status: ('A' for Active; 'I' for Inactive)
REMARK    1  A    between atoms: O_2  and  C_8
REMARK    2  A    between atoms: O_4  and  C_24
REMARK    3  A    between atoms: O_4  and  C_25
REMARK    4  A    between atoms: N_5  and  C_12
REMARK    5  A    between atoms: N_5  and  C_15
REMARK    6  A    between atoms: N_5  and  C_16
REMARK    7  A    between atoms: C_7  and  C_12
REMARK    8  A    between atoms: C_9  and  C_13
REMARK    9  A    between atoms: C_13  and  C_14
REMARK   10  A    between atoms: C_18  and  C_19
REMARK                            x       y       z     vdW  Elec       q    Type
REMARK                         _______ _______ _______ _____ _____    ______ ____
ROOT
ATOM     13  C   UNL     1      14.546   7.051  21.244  0.00  0.00    +0.090 C 
ENDROOT
BRANCH  13   9
ATOM      1  O   UNL     1      14.320   7.680  18.957  0.00  0.00    -0.369 OA
ATOM      7  C   UNL     1      13.734   8.449  17.898  0.00  0.00    +0.161 C 
ATOM      8  C   UNL     1      12.208   8.297  17.876  0.00  0.00    +0.145 C 
ATOM      9  C   UNL     1      13.809   7.955  20.263  0.00  0.00    +0.125 C 
ATOM     10  C   UNL     1      11.582   8.520  19.250  0.00  0.00    +0.036 C 
ATOM     11  C   UNL     1      12.303   7.702  20.318  0.00  0.00    +0.034 C 
BRANCH   8   2
ATOM      2  O   UNL     1      11.882   6.969  17.459  0.00  0.00    -0.389 OA
ATOM     26  H   UNL     1      10.985   6.772  17.777  0.00  0.00    +0.210 HD
ENDBRANCH   8   2
BRANCH   7  12
ATOM     12  C   UNL     1      14.188   9.905  17.961  0.00  0.00    +0.118 C 
BRANCH  12   5
ATOM      5  N   UNL     1      13.979  10.570  16.683  0.00  0.00    -0.306 NA
ATOM     15  C   UNL     1      14.428   9.721  15.577  0.00  0.00    +0.104 C 
ATOM     16  C   UNL     1      14.677  11.857  16.648  0.00  0.00    +0.104 C 
ENDBRANCH  12   5
ENDBRANCH   7  12
ENDBRANCH  13   9
BRANCH  13  14
ATOM      3  O   UNL     1      17.926   8.304  21.228  0.00  0.00    -0.354 OA
ATOM      6  N   UNL     1      16.552   8.474  21.351  0.00  0.00    -0.083 NA
ATOM     14  C   UNL     1      16.036   7.253  21.176  0.00  0.00    +0.087 A 
ATOM     17  C   UNL     1      17.026   6.285  20.941  0.00  0.00    +0.076 A 
ATOM     18  C   UNL     1      18.196   6.996  20.983  0.00  0.00    +0.167 A 
BRANCH  18  19
ATOM     19  C   UNL     1      19.583   6.664  20.833  0.00  0.00    +0.020 A 
ATOM     20  C   UNL     1      19.961   5.346  20.578  0.00  0.00    +0.015 A 
ATOM     21  C   UNL     1      20.554   7.660  20.941  0.00  0.00    +0.015 A 
ATOM     22  C   UNL     1      21.311   5.024  20.431  0.00  0.00    +0.046 A 
ATOM     23  C   UNL     1      21.903   7.337  20.795  0.00  0.00    +0.046 A 
ATOM     24  C   UNL     1      22.281   6.019  20.539  0.00  0.00    +0.120 A 
BRANCH  24   4
ATOM      4  O   UNL     1      23.598   5.705  20.394  0.00  0.00    -0.495 OA
ATOM     25  C   UNL     1      24.469   6.046  21.471  0.00  0.00    +0.277 C 
ENDBRANCH  24   4
ENDBRANCH  18  19
ENDBRANCH  13  14
TORSDOF 7
ENDMDL
MODEL 4
REMARK VINA RESULT:      -5.9      6.612      7.899
REMARK  Name = 75536403
REMARK  10 active torsions:
REMARK  status: ('A' for Active; 'I' for Inactive)
REMARK    1  A    between atoms: O_2  and  C_8
REMARK    2  A    between atoms: O_4  and  C_24
REMARK    3  A    between atoms: O_4  and  C_25
REMARK    4  A    between atoms: N_5  and  C_12
REMARK    5  A    between atoms: N_5  and  C_15
REMARK    6  A    between atoms: N_5  and  C_16
REMARK    7  A    between atoms: C_7  and  C_12
REMARK    8  A    between atoms: C_9  and  C_13
REMARK    9  A    between atoms: C_13  and  C_14
REMARK   10  A    between atoms: C_18  and  C_19
REMARK                            x       y       z     vdW  Elec       q    Type
REMARK                         _______ _______ _______ _____ _____    ______ ____
ROOT
ATOM     13  C   UNL     1      16.436   8.154  21.114  0.00  0.00    +0.090 C 
ENDROOT
BRANCH  13   9
ATOM      1  O   UNL     1      14.063   8.368  21.110  0.00  0.00    -0.369 OA
ATOM      7  C   UNL     1      12.767   8.179  20.527  0.00  0.00    +0.161 C 
ATOM      8  C   UNL     1      12.696   8.777  19.116  0.00  0.00    +0.145 C 
ATOM      9  C   UNL     1      15.156   7.864  20.339  0.00  0.00    +0.125 C 
ATOM     10  C   UNL     1      13.863   8.333  18.238  0.00  0.00    +0.036 C 
ATOM     11  C   UNL     1      15.194   8.524  18.961  0.00  0.00    +0.034 C 
BRANCH   8   2
ATOM      2  O   UNL     1      12.743  10.203  19.216  0.00  0.00    -0.389 OA
ATOM     26  H   UNL     1      13.646  10.450  19.479  0.00  0.00    +0.210 HD
ENDBRANCH   8   2
BRANCH   7  12
ATOM     12  C   UNL     1      12.352   6.710  20.574  0.00  0.00    +0.118 C 
BRANCH  12   5
ATOM      5  N   UNL     1      11.546   6.436  21.754  0.00  0.00    -0.306 NA
ATOM     15  C   UNL     1      10.890   5.131  21.641  0.00  0.00    +0.104 C 
ATOM     16  C   UNL     1      10.547   7.488  21.956  0.00  0.00    +0.104 C 
ENDBRANCH  12   5
ENDBRANCH   7  12
ENDBRANCH  13   9
BRANCH  13  14
ATOM      3  O   UNL     1      18.509   5.528  19.774  0.00  0.00    -0.354 OA
ATOM      6  N   UNL     1      17.316   6.237  19.845  0.00  0.00    -0.083 NA
ATOM     14  C   UNL     1      17.530   7.181  20.767  0.00  0.00    +0.087 A 
ATOM     17  C   UNL     1      18.827   7.116  21.305  0.00  0.00    +0.076 A 
ATOM     18  C   UNL     1      19.400   6.061  20.648  0.00  0.00    +0.167 A 
BRANCH  18  19
ATOM     19  C   UNL     1      20.688   5.430  20.686  0.00  0.00    +0.020 A 
ATOM     20  C   UNL     1      21.842   6.189  20.491  0.00  0.00    +0.015 A 
ATOM     21  C   UNL     1      20.786   4.058  20.918  0.00  0.00    +0.015 A 
ATOM     22  C   UNL     1      23.095   5.575  20.529  0.00  0.00    +0.046 A 
ATOM     23  C   UNL     1      22.038   3.445  20.954  0.00  0.00    +0.046 A 
ATOM     24  C   UNL     1      23.192   4.203  20.761  0.00  0.00    +0.120 A 
BRANCH  24   4
ATOM      4  O   UNL     1      24.414   3.605  20.800  0.00  0.00    -0.495 OA
ATOM     25  C   UNL     1      24.447   2.187  20.643  0.00  0.00    +0.277 C 
ENDBRANCH  24   4
ENDBRANCH  18  19
ENDBRANCH  13  14
TORSDOF 7
ENDMDL
MODEL 5
REMARK VINA RESULT:      -5.8     29.394     31.851
REMARK  Name = 75536403
REMARK  10 active torsions:
REMARK  status: ('A' for Active; 'I' for Inactive)
REMARK    1  A    between atoms: O_2  and  C_8
REMARK    2  A    between atoms: O_4  and  C_24
REMARK    3  A    between atoms: O_4  and  C_25
REMARK    4  A    between atoms: N_5  and  C_12
REMARK    5  A    between atoms: N_5  and  C_15
REMARK    6  A    between atoms: N_5  and  C_16
REMARK    7  A    between atoms: C_7  and  C_12
REMARK    8  A    between atoms: C_9  and  C_13
REMARK    9  A    between atoms: C_13  and  C_14
REMARK   10  A    between atoms: C_18  and  C_19
REMARK                            x       y       z     vdW  Elec       q    Type
REMARK                         _______ _______ _______ _____ _____    ______ ____
ROOT
ATOM     13  C   UNL     1     -14.622   2.556  33.207  0.00  0.00    +0.090 C 
ENDROOT
BRANCH  13   9
ATOM      1  O   UNL     1     -14.180   2.215  30.891  0.00  0.00    -0.369 OA
ATOM      7  C   UNL     1     -14.417   1.578  29.628  0.00  0.00    +0.161 C 
ATOM      8  C   UNL     1     -14.313   0.053  29.743  0.00  0.00    +0.145 C 
ATOM      9  C   UNL     1     -15.018   1.773  31.961  0.00  0.00    +0.125 C 
ATOM     10  C   UNL     1     -15.136  -0.501  30.903  0.00  0.00    +0.036 C 
ATOM     11  C   UNL     1     -14.856   0.271  32.189  0.00  0.00    +0.034 C 
BRANCH   8   2
ATOM      2  O   UNL     1     -12.946  -0.300  29.972  0.00  0.00    -0.389 OA
ATOM     26  H   UNL     1     -12.910  -0.825  30.789  0.00  0.00    +0.210 HD
ENDBRANCH   8   2
BRANCH   7  12
ATOM     12  C   UNL     1     -15.739   2.041  29.019  0.00  0.00    +0.118 C 
BRANCH  12   5
ATOM      5  N   UNL     1     -15.586   3.332  28.366  0.00  0.00    -0.306 NA
ATOM     15  C   UNL     1     -16.130   4.404  29.203  0.00  0.00    +0.104 C 
ATOM     16  C   UNL     1     -16.240   3.332  27.056  0.00  0.00    +0.104 C 
ENDBRANCH  12   5
ENDBRANCH   7  12
ENDBRANCH  13   9
BRANCH  13  14
ATOM      3  O   UNL     1     -15.620   5.998  32.825  0.00  0.00    -0.354 OA
ATOM      6  N   UNL     1     -15.892   4.661  33.087  0.00  0.00    -0.083 NA
ATOM     14  C   UNL     1     -14.712   4.042  32.983  0.00  0.00    +0.087 A 
ATOM     17  C   UNL     1     -13.671   4.929  32.662  0.00  0.00    +0.076 A 
ATOM     18  C   UNL     1     -14.294   6.145  32.574  0.00  0.00    +0.167 A 
BRANCH  18  19
ATOM     19  C   UNL     1     -13.859   7.481  32.286  0.00  0.00    +0.020 A 
ATOM     20  C   UNL     1     -12.539   7.855  32.538  0.00  0.00    +0.015 A 
ATOM     21  C   UNL     1     -14.757   8.408  31.755  0.00  0.00    +0.015 A 
ATOM     22  C   UNL     1     -12.116   9.154  32.257  0.00  0.00    +0.046 A 
ATOM     23  C   UNL     1     -14.334   9.707  31.476  0.00  0.00    +0.046 A 
ATOM     24  C   UNL     1     -13.013  10.080  31.726  0.00  0.00    +0.120 A 
BRANCH  24   4
ATOM      4  O   UNL     1     -12.600  11.347  31.451  0.00  0.00    -0.495 OA
ATOM     25  C   UNL     1     -11.279  11.702  31.856  0.00  0.00    +0.277 C 
ENDBRANCH  24   4
ENDBRANCH  18  19
ENDBRANCH  13  14
TORSDOF 7
ENDMDL
MODEL 6
REMARK VINA RESULT:      -5.8     25.032     27.608
REMARK  Name = 75536403
REMARK  10 active torsions:
REMARK  status: ('A' for Active; 'I' for Inactive)
REMARK    1  A    between atoms: O_2  and  C_8
REMARK    2  A    between atoms: O_4  and  C_24
REMARK    3  A    between atoms: O_4  and  C_25
REMARK    4  A    between atoms: N_5  and  C_12
REMARK    5  A    between atoms: N_5  and  C_15
REMARK    6  A    between atoms: N_5  and  C_16
REMARK    7  A    between atoms: C_7  and  C_12
REMARK    8  A    between atoms: C_9  and  C_13
REMARK    9  A    between atoms: C_13  and  C_14
REMARK   10  A    between atoms: C_18  and  C_19
REMARK                            x       y       z     vdW  Elec       q    Type
REMARK                         _______ _______ _______ _____ _____    ______ ____
ROOT
ATOM     13  C   UNL     1     -12.850   5.458  21.963  0.00  0.00    +0.090 C 
ENDROOT
BRANCH  13   9
ATOM      1  O   UNL     1     -15.074   4.730  21.521  0.00  0.00    -0.369 OA
ATOM      7  C   UNL     1     -16.461   4.592  21.858  0.00  0.00    +0.161 C 
ATOM      8  C   UNL     1     -16.640   3.900  23.215  0.00  0.00    +0.145 C 
ATOM      9  C   UNL     1     -14.277   5.408  22.494  0.00  0.00    +0.125 C 
ATOM     10  C   UNL     1     -15.777   4.529  24.305  0.00  0.00    +0.036 C 
ATOM     11  C   UNL     1     -14.332   4.683  23.838  0.00  0.00    +0.034 C 
BRANCH   8   2
ATOM      2  O   UNL     1     -16.254   2.529  23.089  0.00  0.00    -0.389 OA
ATOM     26  H   UNL     1     -15.548   2.482  22.422  0.00  0.00    +0.210 HD
ENDBRANCH   8   2
BRANCH   7  12
ATOM     12  C   UNL     1     -17.184   5.934  21.772  0.00  0.00    +0.118 C 
BRANCH  12   5
ATOM      5  N   UNL     1     -18.315   5.857  20.860  0.00  0.00    -0.306 NA
ATOM     15  C   UNL     1     -18.142   4.756  19.910  0.00  0.00    +0.104 C 
ATOM     16  C   UNL     1     -18.489   7.121  20.141  0.00  0.00    +0.104 C 
ENDBRANCH  12   5
ENDBRANCH   7  12
ENDBRANCH  13   9
BRANCH  13  14
ATOM      3  O   UNL     1     -12.791   8.804  20.626  0.00  0.00    -0.354 OA
ATOM      6  N   UNL     1     -13.294   7.830  21.481  0.00  0.00    -0.083 NA
ATOM     14  C   UNL     1     -12.578   6.734  21.213  0.00  0.00    +0.087 A 
ATOM     17  C   UNL     1     -11.619   6.955  20.209  0.00  0.00    +0.076 A 
ATOM     18  C   UNL     1     -11.795   8.270  19.874  0.00  0.00    +0.167 A 
BRANCH  18  19
ATOM     19  C   UNL     1     -11.174   9.163  18.938  0.00  0.00    +0.020 A 
ATOM     20  C   UNL     1     -11.063  10.521  19.238  0.00  0.00    +0.015 A 
ATOM     21  C   UNL     1     -10.682   8.673  17.729  0.00  0.00    +0.015 A 
ATOM     22  C   UNL     1     -10.458  11.389  18.329  0.00  0.00    +0.046 A 
ATOM     23  C   UNL     1     -10.079   9.541  16.819  0.00  0.00    +0.046 A 
ATOM     24  C   UNL     1      -9.966  10.899  17.119  0.00  0.00    +0.120 A 
BRANCH  24   4
ATOM      4  O   UNL     1      -9.374  11.745  16.233  0.00  0.00    -0.495 OA
ATOM     25  C   UNL     1      -8.860  12.971  16.750  0.00  0.00    +0.277 C 
ENDBRANCH  24   4
ENDBRANCH  18  19
ENDBRANCH  13  14
TORSDOF 7
ENDMDL
MODEL 7
REMARK VINA RESULT:      -5.8     28.506     31.372
REMARK  Name = 75536403
REMARK  10 active torsions:
REMARK  status: ('A' for Active; 'I' for Inactive)
REMARK    1  A    between atoms: O_2  and  C_8
REMARK    2  A    between atoms: O_4  and  C_24
REMARK    3  A    between atoms: O_4  and  C_25
REMARK    4  A    between atoms: N_5  and  C_12
REMARK    5  A    between atoms: N_5  and  C_15
REMARK    6  A    between atoms: N_5  and  C_16
REMARK    7  A    between atoms: C_7  and  C_12
REMARK    8  A    between atoms: C_9  and  C_13
REMARK    9  A    between atoms: C_13  and  C_14
REMARK   10  A    between atoms: C_18  and  C_19
REMARK                            x       y       z     vdW  Elec       q    Type
REMARK                         _______ _______ _______ _____ _____    ______ ____
ROOT
ATOM     13  C   UNL     1     -16.834   1.375  28.124  0.00  0.00    +0.090 C 
ENDROOT
BRANCH  13   9
ATOM      1  O   UNL     1     -16.287   2.112  30.323  0.00  0.00    -0.369 OA
ATOM      7  C   UNL     1     -15.357   2.478  31.350  0.00  0.00    +0.161 C 
ATOM      8  C   UNL     1     -14.343   1.357  31.611  0.00  0.00    +0.145 C 
ATOM      9  C   UNL     1     -15.698   1.723  29.080  0.00  0.00    +0.125 C 
ATOM     10  C   UNL     1     -13.704   0.841  30.324  0.00  0.00    +0.036 C 
ATOM     11  C   UNL     1     -14.767   0.527  29.274  0.00  0.00    +0.034 C 
BRANCH   8   2
ATOM      2  O   UNL     1     -15.017   0.260  32.233  0.00  0.00    -0.389 OA
ATOM     26  H   UNL     1     -14.399  -0.145  32.865  0.00  0.00    +0.210 HD
ENDBRANCH   8   2
BRANCH   7  12
ATOM     12  C   UNL     1     -14.697   3.819  31.041  0.00  0.00    +0.118 C 
BRANCH  12   5
ATOM      5  N   UNL     1     -15.140   4.843  31.975  0.00  0.00    -0.306 NA
ATOM     15  C   UNL     1     -13.993   5.525  32.580  0.00  0.00    +0.104 C 
ATOM     16  C   UNL     1     -15.989   4.262  33.018  0.00  0.00    +0.104 C 
ENDBRANCH  12   5
ENDBRANCH   7  12
ENDBRANCH  13   9
BRANCH  13  14
ATOM      3  O   UNL     1     -16.243   1.703  24.584  0.00  0.00    -0.354 OA
ATOM      6  N   UNL     1     -16.542   0.955  25.716  0.00  0.00    -0.083 NA
ATOM     14  C   UNL     1     -16.542   1.837  26.722  0.00  0.00    +0.087 A 
ATOM     17  C   UNL     1     -16.252   3.141  26.287  0.00  0.00    +0.076 A 
ATOM     18  C   UNL     1     -16.072   3.003  24.937  0.00  0.00    +0.167 A 
BRANCH  18  19
ATOM     19  C   UNL     1     -15.757   3.903  23.865  0.00  0.00    +0.020 A 
ATOM     20  C   UNL     1     -16.718   4.202  22.900  0.00  0.00    +0.015 A 
ATOM     21  C   UNL     1     -14.489   4.479  23.789  0.00  0.00    +0.015 A 
ATOM     22  C   UNL     1     -16.412   5.079  21.859  0.00  0.00    +0.046 A 
ATOM     23  C   UNL     1     -14.182   5.354  22.747  0.00  0.00    +0.046 A 
ATOM     24  C   UNL     1     -15.144   5.654  21.782  0.00  0.00    +0.120 A 
BRANCH  24   4
ATOM      4  O   UNL     1     -14.846   6.511  20.767  0.00  0.00    -0.495 OA
ATOM     25  C   UNL     1     -13.583   7.172  20.827  0.00  0.00    +0.277 C 
ENDBRANCH  24   4
ENDBRANCH  18  19
ENDBRANCH  13  14
TORSDOF 7
ENDMDL
MODEL 8
REMARK VINA RESULT:      -5.8     25.945     29.524
REMARK  Name = 75536403
REMARK  10 active torsions:
REMARK  status: ('A' for Active; 'I' for Inactive)
REMARK    1  A    between atoms: O_2  and  C_8
REMARK    2  A    between atoms: O_4  and  C_24
REMARK    3  A    between atoms: O_4  and  C_25
REMARK    4  A    between atoms: N_5  and  C_12
REMARK    5  A    between atoms: N_5  and  C_15
REMARK    6  A    between atoms: N_5  and  C_16
REMARK    7  A    between atoms: C_7  and  C_12
REMARK    8  A    between atoms: C_9  and  C_13
REMARK    9  A    between atoms: C_13  and  C_14
REMARK   10  A    between atoms: C_18  and  C_19
REMARK                            x       y       z     vdW  Elec       q    Type
REMARK                         _______ _______ _______ _____ _____    ______ ____
ROOT
ATOM     13  C   UNL     1      -3.184 -10.522  16.301  0.00  0.00    +0.090 C 
ENDROOT
BRANCH  13   9
ATOM      1  O   UNL     1      -2.195 -10.649  14.137  0.00  0.00    -0.369 OA
ATOM      7  C   UNL     1      -2.172 -11.077  12.769  0.00  0.00    +0.161 C 
ATOM      8  C   UNL     1      -2.305 -12.601  12.658  0.00  0.00    +0.145 C 
ATOM      9  C   UNL     1      -3.337 -11.069  14.886  0.00  0.00    +0.125 C 
ATOM     10  C   UNL     1      -3.472 -13.144  13.479  0.00  0.00    +0.036 C 
ATOM     11  C   UNL     1      -3.442 -12.594  14.902  0.00  0.00    +0.034 C 
BRANCH   8   2
ATOM      2  O   UNL     1      -1.107 -13.206  13.152  0.00  0.00    -0.389 OA
ATOM     26  H   UNL     1      -0.424 -12.516  13.193  0.00  0.00    +0.210 HD
ENDBRANCH   8   2
BRANCH   7  12
ATOM     12  C   UNL     1      -3.212 -10.326  11.941  0.00  0.00    +0.118 C 
BRANCH  12   5
ATOM      5  N   UNL     1      -2.637  -9.853  10.691  0.00  0.00    -0.306 NA
ATOM     15  C   UNL     1      -1.409  -9.093  10.940  0.00  0.00    +0.104 C 
ATOM     16  C   UNL     1      -3.600  -9.030   9.956  0.00  0.00    +0.104 C 
ENDBRANCH  12   5
ENDBRANCH   7  12
ENDBRANCH  13   9
BRANCH  13  14
ATOM      3  O   UNL     1      -5.834 -11.136  18.666  0.00  0.00    -0.354 OA
ATOM      6  N   UNL     1      -4.519 -11.262  18.232  0.00  0.00    -0.083 NA
ATOM     14  C   UNL     1      -4.474 -10.599  17.071  0.00  0.00    +0.087 A 
ATOM     17  C   UNL     1      -5.717 -10.041  16.728  0.00  0.00    +0.076 A 
ATOM     18  C   UNL     1      -6.537 -10.407  17.761  0.00  0.00    +0.167 A 
BRANCH  18  19
ATOM     19  C   UNL     1      -7.919 -10.190  18.076  0.00  0.00    +0.020 A 
ATOM     20  C   UNL     1      -8.528 -10.928  19.091  0.00  0.00    +0.015 A 
ATOM     21  C   UNL     1      -8.654  -9.239  17.368  0.00  0.00    +0.015 A 
ATOM     22  C   UNL     1      -9.872 -10.716  19.397  0.00  0.00    +0.046 A 
ATOM     23  C   UNL     1      -9.999  -9.028  17.674  0.00  0.00    +0.046 A 
ATOM     24  C   UNL     1     -10.608  -9.766  18.689  0.00  0.00    +0.120 A 
BRANCH  24   4
ATOM      4  O   UNL     1     -11.919  -9.558  18.989  0.00  0.00    -0.495 OA
ATOM     25  C   UNL     1     -12.347  -9.910  20.303  0.00  0.00    +0.277 C 
ENDBRANCH  24   4
ENDBRANCH  18  19
ENDBRANCH  13  14
TORSDOF 7
ENDMDL
MODEL 9
REMARK VINA RESULT:      -5.8      6.767      9.185
REMARK  Name = 75536403
REMARK  10 active torsions:
REMARK  status: ('A' for Active; 'I' for Inactive)
REMARK    1  A    between atoms: O_2  and  C_8
REMARK    2  A    between atoms: O_4  and  C_24
REMARK    3  A    between atoms: O_4  and  C_25
REMARK    4  A    between atoms: N_5  and  C_12
REMARK    5  A    between atoms: N_5  and  C_15
REMARK    6  A    between atoms: N_5  and  C_16
REMARK    7  A    between atoms: C_7  and  C_12
REMARK    8  A    between atoms: C_9  and  C_13
REMARK    9  A    between atoms: C_13  and  C_14
REMARK   10  A    between atoms: C_18  and  C_19
REMARK                            x       y       z     vdW  Elec       q    Type
REMARK                         _______ _______ _______ _____ _____    ______ ____
ROOT
ATOM     13  C   UNL     1      19.609   5.575  20.182  0.00  0.00    +0.090 C 
ENDROOT
BRANCH  13   9
ATOM      1  O   UNL     1      20.660   5.850  22.303  0.00  0.00    -0.369 OA
ATOM      7  C   UNL     1      21.288   6.639  23.321  0.00  0.00    +0.161 C 
ATOM      8  C   UNL     1      22.491   7.412  22.767  0.00  0.00    +0.145 C 
ATOM      9  C   UNL     1      20.249   6.573  21.140  0.00  0.00    +0.125 C 
ATOM     10  C   UNL     1      22.154   8.172  21.487  0.00  0.00    +0.036 C 
ATOM     11  C   UNL     1      21.444   7.266  20.485  0.00  0.00    +0.034 C 
BRANCH   8   2
ATOM      2  O   UNL     1      23.535   6.484  22.461  0.00  0.00    -0.389 OA
ATOM     26  H   UNL     1      23.416   6.201  21.539  0.00  0.00    +0.210 HD
ENDBRANCH   8   2
BRANCH   7  12
ATOM     12  C   UNL     1      20.274   7.538  24.024  0.00  0.00    +0.118 C 
BRANCH  12   5
ATOM      5  N   UNL     1      20.842   8.119  25.230  0.00  0.00    -0.306 NA
ATOM     15  C   UNL     1      20.229   7.536  26.426  0.00  0.00    +0.104 C 
ATOM     16  C   UNL     1      20.673   9.574  25.235  0.00  0.00    +0.104 C 
ENDBRANCH  12   5
ENDBRANCH   7  12
ENDBRANCH  13   9
BRANCH  13  14
ATOM      3  O   UNL     1      16.266   5.954  18.890  0.00  0.00    -0.354 OA
ATOM      6  N   UNL     1      17.579   5.508  18.793  0.00  0.00    -0.083 NA
ATOM     14  C   UNL     1      18.160   5.893  19.933  0.00  0.00    +0.087 A 
ATOM     17  C   UNL     1      17.271   6.578  20.779  0.00  0.00    +0.076 A 
ATOM     18  C   UNL     1      16.095   6.590  20.077  0.00  0.00    +0.167 A 
BRANCH  18  19
ATOM     19  C   UNL     1      14.780   7.108  20.323  0.00  0.00    +0.020 A 
ATOM     20  C   UNL     1      14.429   7.542  21.601  0.00  0.00    +0.015 A 
ATOM     21  C   UNL     1      13.853   7.177  19.283  0.00  0.00    +0.015 A 
ATOM     22  C   UNL     1      13.150   8.046  21.839  0.00  0.00    +0.046 A 
ATOM     23  C   UNL     1      12.575   7.680  19.521  0.00  0.00    +0.046 A 
ATOM     24  C   UNL     1      12.223   8.115  20.799  0.00  0.00    +0.120 A 
BRANCH  24   4
ATOM      4  O   UNL     1      10.976   8.609  21.031  0.00  0.00    -0.495 OA
ATOM     25  C   UNL     1      10.607   8.827  22.392  0.00  0.00    +0.277 C 
ENDBRANCH  24   4
ENDBRANCH  18  19
ENDBRANCH  13  14
TORSDOF 7
ENDMDL
MODEL 10
REMARK VINA RESULT:      -5.7     26.966     29.083
REMARK  Name = 75536403
REMARK  10 active torsions:
REMARK  status: ('A' for Active; 'I' for Inactive)
REMARK    1  A    between atoms: O_2  and  C_8
REMARK    2  A    between atoms: O_4  and  C_24
REMARK    3  A    between atoms: O_4  and  C_25
REMARK    4  A    between atoms: N_5  and  C_12
REMARK    5  A    between atoms: N_5  and  C_15
REMARK    6  A    between atoms: N_5  and  C_16
REMARK    7  A    between atoms: C_7  and  C_12
REMARK    8  A    between atoms: C_9  and  C_13
REMARK    9  A    between atoms: C_13  and  C_14
REMARK   10  A    between atoms: C_18  and  C_19
REMARK                            x       y       z     vdW  Elec       q    Type
REMARK                         _______ _______ _______ _____ _____    ______ ____
ROOT
ATOM     13  C   UNL     1      -2.656 -10.464  11.508  0.00  0.00    +0.090 C 
ENDROOT
BRANCH  13   9
ATOM      1  O   UNL     1      -3.791  -9.411   9.697  0.00  0.00    -0.369 OA
ATOM      7  C   UNL     1      -4.940  -9.188   8.869  0.00  0.00    +0.161 C 
ATOM      8  C   UNL     1      -5.453 -10.500   8.262  0.00  0.00    +0.145 C 
ATOM      9  C   UNL     1      -3.971 -10.366  10.745  0.00  0.00    +0.125 C 
ATOM     10  C   UNL     1      -5.621 -11.598   9.308  0.00  0.00    +0.036 C 
ATOM     11  C   UNL     1      -4.370 -11.726  10.173  0.00  0.00    +0.034 C 
BRANCH   8   2
ATOM      2  O   UNL     1      -4.507 -10.962   7.294  0.00  0.00    -0.389 OA
ATOM     26  H   UNL     1      -4.961 -11.602   6.721  0.00  0.00    +0.210 HD
ENDBRANCH   8   2
BRANCH   7  12
ATOM     12  C   UNL     1      -6.020  -8.418   9.625  0.00  0.00    +0.118 C 
BRANCH  12   5
ATOM      5  N   UNL     1      -7.309  -8.546   8.962  0.00  0.00    -0.306 NA
ATOM     15  C   UNL     1      -7.675  -7.295   8.293  0.00  0.00    +0.104 C 
ATOM     16  C   UNL     1      -8.349  -8.930   9.919  0.00  0.00    +0.104 C 
ENDBRANCH  12   5
ENDBRANCH   7  12
ENDBRANCH  13   9
BRANCH  13  14
ATOM      3  O   UNL     1      -2.386 -10.442  15.102  0.00  0.00    -0.354 OA
ATOM      6  N   UNL     1      -1.838 -10.364  13.827  0.00  0.00    -0.083 NA
ATOM     14  C   UNL     1      -2.876 -10.499  12.996  0.00  0.00    +0.087 A 
ATOM     17  C   UNL     1      -4.091 -10.663  13.683  0.00  0.00    +0.076 A 
ATOM     18  C   UNL     1      -3.728 -10.620  15.003  0.00  0.00    +0.167 A 
BRANCH  18  19
ATOM     19  C   UNL     1      -4.437 -10.718  16.246  0.00  0.00    +0.020 A 
ATOM     20  C   UNL     1      -5.699 -10.139  16.377  0.00  0.00    +0.015 A 
ATOM     21  C   UNL     1      -3.863 -11.391  17.324  0.00  0.00    +0.015 A 
ATOM     22  C   UNL     1      -6.389 -10.235  17.586  0.00  0.00    +0.046 A 
ATOM     23  C   UNL     1      -4.552 -11.486  18.533  0.00  0.00    +0.046 A 
ATOM     24  C   UNL     1      -5.815 -10.908  18.664  0.00  0.00    +0.120 A 
BRANCH  24   4
ATOM      4  O   UNL     1      -6.488 -11.003  19.843  0.00  0.00    -0.495 OA
ATOM     25  C   UNL     1      -7.389 -12.100  19.989  0.00  0.00    +0.277 C 
ENDBRANCH  24   4
ENDBRANCH  18  19
ENDBRANCH  13  14
TORSDOF 7
ENDMDL
