MODEL 1
REMARK VINA RESULT:      -6.5      0.000      0.000
REMARK  Name = 45360572
REMARK  6 active torsions:
REMARK  status: ('A' for Active; 'I' for Inactive)
REMARK    1  A    between atoms: O_3  and  C_10
REMARK    2  A    between atoms: N_5  and  C_9
REMARK    3  A    between atoms: N_6  and  C_11
REMARK    4  A    between atoms: N_7  and  C_20
REMARK    5  A    between atoms: N_8  and  C_21
REMARK    6  A    between atoms: C_21  and  C_22
REMARK                            x       y       z     vdW  Elec       q    Type
REMARK                         _______ _______ _______ _____ _____    ______ ____
ROOT
ATOM      1  O   UNL     1      13.011   9.287  21.111  0.00  0.00    -0.342 OA
ATOM      2  O   UNL     1      11.652   7.507  21.710  0.00  0.00    -0.347 OA
ATOM      9  C   UNL     1      13.763   7.049  20.624  0.00  0.00    +0.144 C 
ATOM     10  C   UNL     1      13.086   7.102  19.236  0.00  0.00    +0.159 C 
ATOM     11  C   UNL     1      12.467   8.477  18.905  0.00  0.00    +0.136 C 
ATOM     12  C   UNL     1      13.017   7.950  21.625  0.00  0.00    +0.270 C 
ATOM     13  C   UNL     1      11.950   9.226  20.151  0.00  0.00    +0.170 C 
ATOM     14  C   UNL     1      10.905   8.465  20.944  0.00  0.00    +0.196 C 
ENDROOT
BRANCH   9   5
ATOM      5  N   UNL     1      15.157   7.477  20.520  0.00  0.00    -0.290 NA
ATOM      7  N   UNL     1      17.945   7.377  21.282  0.00  0.00    -0.303 NA
ATOM     15  C   UNL     1      16.018   6.356  20.120  0.00  0.00    +0.100 C 
ATOM     16  C   UNL     1      15.622   8.054  21.787  0.00  0.00    +0.100 C 
ATOM     17  C   UNL     1      17.480   6.802  20.014  0.00  0.00    +0.099 C 
ATOM     18  C   UNL     1      17.085   8.499  21.681  0.00  0.00    +0.099 C 
ATOM     20  C   UNL     1      19.339   7.804  21.180  0.00  0.00    +0.105 C 
ENDBRANCH   9   5
BRANCH  11   6
ATOM      4  O   UNL     1      12.827   8.675  16.049  0.00  0.00    -0.253 OA
ATOM      6  N   UNL     1      13.428   9.300  18.202  0.00  0.00    -0.291 N 
ATOM      8  N   UNL     1      14.535  10.205  16.406  0.00  0.00    -0.300 N 
ATOM     19  C   UNL     1      13.530   9.332  16.816  0.00  0.00    +0.300 C 
ATOM     23  H   UNL     1      14.108   9.820  18.750  0.00  0.00    +0.151 HD
ATOM     25  H   UNL     1      15.071  10.698  17.113  0.00  0.00    +0.150 HD
BRANCH   8  21
ATOM     21  C   UNL     1      14.856  10.431  15.016  0.00  0.00    +0.102 C 
ATOM     22  C   UNL     1      14.213  11.700  14.498  0.00  0.00    +0.024 C 
ENDBRANCH   8  21
ENDBRANCH  11   6
BRANCH  10   3
ATOM      3  O   UNL     1      12.047   6.113  19.220  0.00  0.00    -0.388 OA
ATOM     24  H   UNL     1      11.815   5.946  18.291  0.00  0.00    +0.210 HD
ENDBRANCH  10   3
TORSDOF 4
ENDMDL
MODEL 2
REMARK VINA RESULT:      -6.3      2.562      5.408
REMARK  Name = 45360572
REMARK  6 active torsions:
REMARK  status: ('A' for Active; 'I' for Inactive)
REMARK    1  A    between atoms: O_3  and  C_10
REMARK    2  A    between atoms: N_5  and  C_9
REMARK    3  A    between atoms: N_6  and  C_11
REMARK    4  A    between atoms: N_7  and  C_20
REMARK    5  A    between atoms: N_8  and  C_21
REMARK    6  A    between atoms: C_21  and  C_22
REMARK                            x       y       z     vdW  Elec       q    Type
REMARK                         _______ _______ _______ _____ _____    ______ ____
ROOT
ATOM      1  O   UNL     1      13.149   9.132  18.895  0.00  0.00    -0.342 OA
ATOM      2  O   UNL     1      11.464   7.801  18.019  0.00  0.00    -0.347 OA
ATOM      9  C   UNL     1      11.507   8.212  20.401  0.00  0.00    +0.144 C 
ATOM     10  C   UNL     1      12.383   6.959  20.624  0.00  0.00    +0.159 C 
ATOM     11  C   UNL     1      13.758   7.037  19.924  0.00  0.00    +0.136 C 
ATOM     12  C   UNL     1      11.757   8.806  19.003  0.00  0.00    +0.270 C 
ATOM     13  C   UNL     1      13.726   7.852  18.614  0.00  0.00    +0.170 C 
ATOM     14  C   UNL     1      12.747   7.328  17.581  0.00  0.00    +0.196 C 
ENDROOT
BRANCH   9   5
ATOM      5  N   UNL     1      11.796   9.216  21.424  0.00  0.00    -0.290 NA
ATOM      7  N   UNL     1      11.138  11.552  22.997  0.00  0.00    -0.303 NA
ATOM     15  C   UNL     1      10.811   9.151  22.511  0.00  0.00    +0.100 C 
ATOM     16  C   UNL     1      11.826  10.563  20.839  0.00  0.00    +0.100 C 
ATOM     17  C   UNL     1      11.111  10.206  23.582  0.00  0.00    +0.099 C 
ATOM     18  C   UNL     1      12.124  11.617  21.910  0.00  0.00    +0.099 C 
ATOM     20  C   UNL     1      11.425  12.557  24.018  0.00  0.00    +0.105 C 
ENDBRANCH   9   5
BRANCH  11   6
ATOM      4  O   UNL     1      16.626   6.811  19.713  0.00  0.00    -0.253 OA
ATOM      6  N   UNL     1      14.745   7.595  20.824  0.00  0.00    -0.291 N 
ATOM      8  N   UNL     1      16.833   8.069  21.652  0.00  0.00    -0.300 N 
ATOM     19  C   UNL     1      16.114   7.433  20.642  0.00  0.00    +0.300 C 
ATOM     23  H   UNL     1      14.420   8.059  21.667  0.00  0.00    +0.151 HD
ATOM     25  H   UNL     1      16.322   8.552  22.384  0.00  0.00    +0.150 HD
BRANCH   8  21
ATOM     21  C   UNL     1      18.276   8.061  21.709  0.00  0.00    +0.102 C 
ATOM     22  C   UNL     1      18.852   9.412  21.339  0.00  0.00    +0.024 C 
ENDBRANCH   8  21
ENDBRANCH  11   6
BRANCH  10   3
ATOM      3  O   UNL     1      11.668   5.828  20.108  0.00  0.00    -0.388 OA
ATOM     24  H   UNL     1      11.300   5.343  20.866  0.00  0.00    +0.210 HD
ENDBRANCH  10   3
TORSDOF 4
ENDMDL
MODEL 3
REMARK VINA RESULT:      -6.1      2.400      5.504
REMARK  Name = 45360572
REMARK  6 active torsions:
REMARK  status: ('A' for Active; 'I' for Inactive)
REMARK    1  A    between atoms: O_3  and  C_10
REMARK    2  A    between atoms: N_5  and  C_9
REMARK    3  A    between atoms: N_6  and  C_11
REMARK    4  A    between atoms: N_7  and  C_20
REMARK    5  A    between atoms: N_8  and  C_21
REMARK    6  A    between atoms: C_21  and  C_22
REMARK                            x       y       z     vdW  Elec       q    Type
REMARK                         _______ _______ _______ _____ _____    ______ ____
ROOT
ATOM      1  O   UNL     1      15.837   8.293  19.954  0.00  0.00    -0.342 OA
ATOM      2  O   UNL     1      15.819   6.002  20.313  0.00  0.00    -0.347 OA
ATOM      9  C   UNL     1      13.917   7.028  19.228  0.00  0.00    +0.144 C 
ATOM     10  C   UNL     1      13.230   7.249  20.594  0.00  0.00    +0.159 C 
ATOM     11  C   UNL     1      14.022   8.179  21.539  0.00  0.00    +0.136 C 
ATOM     12  C   UNL     1      15.449   7.036  19.385  0.00  0.00    +0.270 C 
ATOM     13  C   UNL     1      15.549   8.086  21.341  0.00  0.00    +0.170 C 
ATOM     14  C   UNL     1      16.116   6.693  21.536  0.00  0.00    +0.196 C 
ENDROOT
BRANCH   9   5
ATOM      5  N   UNL     1      13.512   8.071  18.287  0.00  0.00    -0.290 NA
ATOM      7  N   UNL     1      12.242   8.997  15.860  0.00  0.00    -0.303 NA
ATOM     15  C   UNL     1      12.050   8.122  18.163  0.00  0.00    +0.100 C 
ATOM     16  C   UNL     1      14.131   7.857  16.973  0.00  0.00    +0.100 C 
ATOM     17  C   UNL     1      11.624   9.213  17.174  0.00  0.00    +0.099 C 
ATOM     18  C   UNL     1      13.704   8.947  15.984  0.00  0.00    +0.099 C 
ATOM     20  C   UNL     1      11.836  10.037  14.917  0.00  0.00    +0.105 C 
ENDBRANCH   9   5
BRANCH  11   6
ATOM      4  O   UNL     1      11.647   9.400  22.631  0.00  0.00    -0.253 OA
ATOM      6  N   UNL     1      13.589   9.549  21.368  0.00  0.00    -0.291 N 
ATOM      8  N   UNL     1      12.246  11.396  21.611  0.00  0.00    -0.300 N 
ATOM     19  C   UNL     1      12.423  10.053  21.935  0.00  0.00    +0.300 C 
ATOM     23  H   UNL     1      14.121  10.149  20.744  0.00  0.00    +0.151 HD
ATOM     25  H   UNL     1      12.936  11.851  21.022  0.00  0.00    +0.150 HD
BRANCH   8  21
ATOM     21  C   UNL     1      11.116  12.169  22.069  0.00  0.00    +0.102 C 
ATOM     22  C   UNL     1      11.062  13.524  21.395  0.00  0.00    +0.024 C 
ENDBRANCH   8  21
ENDBRANCH  11   6
BRANCH  10   3
ATOM      3  O   UNL     1      13.086   5.968  21.223  0.00  0.00    -0.388 OA
ATOM     24  H   UNL     1      12.190   5.645  21.031  0.00  0.00    +0.210 HD
ENDBRANCH  10   3
TORSDOF 4
ENDMDL
MODEL 4
REMARK VINA RESULT:      -5.8      2.730      4.363
REMARK  Name = 45360572
REMARK  6 active torsions:
REMARK  status: ('A' for Active; 'I' for Inactive)
REMARK    1  A    between atoms: O_3  and  C_10
REMARK    2  A    between atoms: N_5  and  C_9
REMARK    3  A    between atoms: N_6  and  C_11
REMARK    4  A    between atoms: N_7  and  C_20
REMARK    5  A    between atoms: N_8  and  C_21
REMARK    6  A    between atoms: C_21  and  C_22
REMARK                            x       y       z     vdW  Elec       q    Type
REMARK                         _______ _______ _______ _____ _____    ______ ____
ROOT
ATOM      1  O   UNL     1      11.044   8.337  20.267  0.00  0.00    -0.342 OA
ATOM      2  O   UNL     1      11.391   6.889  22.044  0.00  0.00    -0.347 OA
ATOM      9  C   UNL     1      12.440   9.067  22.092  0.00  0.00    +0.144 C 
ATOM     10  C   UNL     1      13.693   8.504  21.386  0.00  0.00    +0.159 C 
ATOM     11  C   UNL     1      13.406   7.948  19.974  0.00  0.00    +0.136 C 
ATOM     12  C   UNL     1      11.187   8.267  21.691  0.00  0.00    +0.270 C 
ATOM     13  C   UNL     1      11.990   7.354  19.831  0.00  0.00    +0.170 C 
ATOM     14  C   UNL     1      11.688   6.230  20.804  0.00  0.00    +0.196 C 
ENDROOT
BRANCH   9   5
ATOM      5  N   UNL     1      12.258  10.476  21.745  0.00  0.00    -0.290 NA
ATOM      7  N   UNL     1      12.263  13.301  22.362  0.00  0.00    -0.303 NA
ATOM     15  C   UNL     1      13.514  11.219  21.907  0.00  0.00    +0.100 C 
ATOM     16  C   UNL     1      11.196  11.081  22.559  0.00  0.00    +0.100 C 
ATOM     17  C   UNL     1      13.324  12.697  21.547  0.00  0.00    +0.099 C 
ATOM     18  C   UNL     1      11.007  12.559  22.200  0.00  0.00    +0.099 C 
ATOM     20  C   UNL     1      12.081  14.709  22.018  0.00  0.00    +0.105 C 
ENDBRANCH   9   5
BRANCH  11   6
ATOM      4  O   UNL     1      14.267   7.595  17.242  0.00  0.00    -0.253 OA
ATOM      6  N   UNL     1      13.605   8.983  18.981  0.00  0.00    -0.291 N 
ATOM      8  N   UNL     1      14.135   9.891  16.940  0.00  0.00    -0.300 N 
ATOM     19  C   UNL     1      14.024   8.718  17.682  0.00  0.00    +0.300 C 
ATOM     23  H   UNL     1      13.509   9.952  19.270  0.00  0.00    +0.151 HD
ATOM     25  H   UNL     1      13.923  10.775  17.391  0.00  0.00    +0.150 HD
BRANCH   8  21
ATOM     21  C   UNL     1      14.552   9.907  15.558  0.00  0.00    +0.102 C 
ATOM     22  C   UNL     1      14.297  11.256  14.918  0.00  0.00    +0.024 C 
ENDBRANCH   8  21
ENDBRANCH  11   6
BRANCH  10   3
ATOM      3  O   UNL     1      14.214   7.444  22.200  0.00  0.00    -0.388 OA
ATOM     24  H   UNL     1      13.866   7.567  23.099  0.00  0.00    +0.210 HD
ENDBRANCH  10   3
TORSDOF 4
ENDMDL
MODEL 5
REMARK VINA RESULT:      -5.6     12.722     14.441
REMARK  Name = 45360572
REMARK  6 active torsions:
REMARK  status: ('A' for Active; 'I' for Inactive)
REMARK    1  A    between atoms: O_3  and  C_10
REMARK    2  A    between atoms: N_5  and  C_9
REMARK    3  A    between atoms: N_6  and  C_11
REMARK    4  A    between atoms: N_7  and  C_20
REMARK    5  A    between atoms: N_8  and  C_21
REMARK    6  A    between atoms: C_21  and  C_22
REMARK                            x       y       z     vdW  Elec       q    Type
REMARK                         _______ _______ _______ _____ _____    ______ ____
ROOT
ATOM      1  O   UNL     1      10.282   8.311   5.572  0.00  0.00    -0.342 OA
ATOM      2  O   UNL     1       9.492   7.899   7.713  0.00  0.00    -0.347 OA
ATOM      9  C   UNL     1      11.870   7.754   7.299  0.00  0.00    +0.144 C 
ATOM     10  C   UNL     1      11.741   6.252   6.961  0.00  0.00    +0.159 C 
ATOM     11  C   UNL     1      10.847   5.972   5.733  0.00  0.00    +0.136 C 
ATOM     12  C   UNL     1      10.564   8.498   6.965  0.00  0.00    +0.270 C 
ATOM     13  C   UNL     1       9.709   6.999   5.565  0.00  0.00    +0.170 C 
ATOM     14  C   UNL     1       8.779   7.097   6.759  0.00  0.00    +0.196 C 
ENDROOT
BRANCH   9   5
ATOM      5  N   UNL     1      12.979   8.344   6.552  0.00  0.00    -0.290 NA
ATOM      7  N   UNL     1      15.617   9.511   6.353  0.00  0.00    -0.303 NA
ATOM     15  C   UNL     1      14.188   7.522   6.677  0.00  0.00    +0.100 C 
ATOM     16  C   UNL     1      13.243   9.716   7.006  0.00  0.00    +0.100 C 
ATOM     17  C   UNL     1      15.353   8.141   5.897  0.00  0.00    +0.099 C 
ATOM     18  C   UNL     1      14.408  10.335   6.227  0.00  0.00    +0.099 C 
ATOM     20  C   UNL     1      16.727  10.102   5.608  0.00  0.00    +0.105 C 
ENDBRANCH   9   5
BRANCH  11   6
ATOM      4  O   UNL     1      10.478   4.237   3.457  0.00  0.00    -0.253 OA
ATOM      6  N   UNL     1      11.651   5.929   4.531  0.00  0.00    -0.291 N 
ATOM      8  N   UNL     1      12.322   5.224   2.451  0.00  0.00    -0.300 N 
ATOM     19  C   UNL     1      11.397   5.055   3.479  0.00  0.00    +0.300 C 
ATOM     23  H   UNL     1      12.482   6.511   4.486  0.00  0.00    +0.151 HD
ATOM     25  H   UNL     1      13.053   5.919   2.562  0.00  0.00    +0.150 HD
BRANCH   8  21
ATOM     21  C   UNL     1      12.292   4.444   1.236  0.00  0.00    +0.102 C 
ATOM     22  C   UNL     1      13.182   3.223   1.340  0.00  0.00    +0.024 C 
ENDBRANCH   8  21
ENDBRANCH  11   6
BRANCH  10   3
ATOM      3  O   UNL     1      11.175   5.594   8.103  0.00  0.00    -0.388 OA
ATOM     24  H   UNL     1      10.262   5.915   8.204  0.00  0.00    +0.210 HD
ENDBRANCH  10   3
TORSDOF 4
ENDMDL
MODEL 6
REMARK VINA RESULT:      -5.4     26.273     28.159
REMARK  Name = 45360572
REMARK  6 active torsions:
REMARK  status: ('A' for Active; 'I' for Inactive)
REMARK    1  A    between atoms: O_3  and  C_10
REMARK    2  A    between atoms: N_5  and  C_9
REMARK    3  A    between atoms: N_6  and  C_11
REMARK    4  A    between atoms: N_7  and  C_20
REMARK    5  A    between atoms: N_8  and  C_21
REMARK    6  A    between atoms: C_21  and  C_22
REMARK                            x       y       z     vdW  Elec       q    Type
REMARK                         _______ _______ _______ _____ _____    ______ ____
ROOT
ATOM      1  O   UNL     1      -4.833 -10.217  18.127  0.00  0.00    -0.342 OA
ATOM      2  O   UNL     1      -4.399 -12.208  19.234  0.00  0.00    -0.347 OA
ATOM      9  C   UNL     1      -4.457 -12.206  16.817  0.00  0.00    +0.144 C 
ATOM     10  C   UNL     1      -5.969 -12.525  16.831  0.00  0.00    +0.159 C 
ATOM     11  C   UNL     1      -6.823 -11.429  17.505  0.00  0.00    +0.136 C 
ATOM     12  C   UNL     1      -4.057 -11.422  18.080  0.00  0.00    +0.270 C 
ATOM     13  C   UNL     1      -6.081 -10.694  18.640  0.00  0.00    +0.170 C 
ATOM     14  C   UNL     1      -5.593 -11.602  19.753  0.00  0.00    +0.196 C 
ENDROOT
BRANCH   9   5
ATOM      5  N   UNL     1      -4.118 -11.429  15.625  0.00  0.00    -0.290 NA
ATOM      7  N   UNL     1      -2.823 -11.075  13.064  0.00  0.00    -0.303 NA
ATOM     15  C   UNL     1      -4.632 -12.081  14.414  0.00  0.00    +0.100 C 
ATOM     16  C   UNL     1      -2.667 -11.232  15.526  0.00  0.00    +0.100 C 
ATOM     17  C   UNL     1      -4.275 -11.269  13.164  0.00  0.00    +0.099 C 
ATOM     18  C   UNL     1      -2.310 -10.422  14.275  0.00  0.00    +0.099 C 
ATOM     20  C   UNL     1      -2.483 -10.300  11.873  0.00  0.00    +0.105 C 
ENDBRANCH   9   5
BRANCH  11   6
ATOM      4  O   UNL     1      -9.453 -10.262  17.297  0.00  0.00    -0.253 OA
ATOM      6  N   UNL     1      -7.277 -10.474  16.517  0.00  0.00    -0.291 N 
ATOM      8  N   UNL     1      -8.738  -9.066  15.442  0.00  0.00    -0.300 N 
ATOM     19  C   UNL     1      -8.570  -9.963  16.495  0.00  0.00    +0.300 C 
ATOM     23  H   UNL     1      -6.645 -10.224  15.762  0.00  0.00    +0.151 HD
ATOM     25  H   UNL     1      -7.953  -8.889  14.823  0.00  0.00    +0.150 HD
BRANCH   8  21
ATOM     21  C   UNL     1      -9.985  -8.386  15.184  0.00  0.00    +0.102 C 
ATOM     22  C   UNL     1     -10.082  -7.092  15.964  0.00  0.00    +0.024 C 
ENDBRANCH   8  21
ENDBRANCH  11   6
BRANCH  10   3
ATOM      3  O   UNL     1      -6.148 -13.755  17.547  0.00  0.00    -0.388 OA
ATOM     24  H   UNL     1      -7.087 -13.817  17.793  0.00  0.00    +0.210 HD
ENDBRANCH  10   3
TORSDOF 4
ENDMDL
MODEL 7
REMARK VINA RESULT:      -5.4     13.451     15.812
REMARK  Name = 45360572
REMARK  6 active torsions:
REMARK  status: ('A' for Active; 'I' for Inactive)
REMARK    1  A    between atoms: O_3  and  C_10
REMARK    2  A    between atoms: N_5  and  C_9
REMARK    3  A    between atoms: N_6  and  C_11
REMARK    4  A    between atoms: N_7  and  C_20
REMARK    5  A    between atoms: N_8  and  C_21
REMARK    6  A    between atoms: C_21  and  C_22
REMARK                            x       y       z     vdW  Elec       q    Type
REMARK                         _______ _______ _______ _____ _____    ______ ____
ROOT
ATOM      1  O   UNL     1      15.723   7.849   6.082  0.00  0.00    -0.342 OA
ATOM      2  O   UNL     1      15.542  10.142   5.792  0.00  0.00    -0.347 OA
ATOM      9  C   UNL     1      13.656   8.742   5.219  0.00  0.00    +0.144 C 
ATOM     10  C   UNL     1      14.175   8.597   3.771  0.00  0.00    +0.159 C 
ATOM     11  C   UNL     1      15.553   7.906   3.677  0.00  0.00    +0.136 C 
ATOM     12  C   UNL     1      14.827   8.962   6.194  0.00  0.00    +0.270 C 
ATOM     13  C   UNL     1      16.455   8.182   4.898  0.00  0.00    +0.170 C 
ATOM     14  C   UNL     1      16.728   9.653   5.147  0.00  0.00    +0.196 C 
ENDROOT
BRANCH   9   5
ATOM      5  N   UNL     1      12.909   7.547   5.608  0.00  0.00    -0.290 NA
ATOM      7  N   UNL     1      10.474   6.134   6.269  0.00  0.00    -0.303 NA
ATOM     15  C   UNL     1      11.932   7.183   4.573  0.00  0.00    +0.100 C 
ATOM     16  C   UNL     1      12.238   7.747   6.898  0.00  0.00    +0.100 C 
ATOM     17  C   UNL     1      11.146   5.932   4.980  0.00  0.00    +0.099 C 
ATOM     18  C   UNL     1      11.450   6.496   7.305  0.00  0.00    +0.099 C 
ATOM     20  C   UNL     1       9.725   4.941   6.658  0.00  0.00    +0.105 C 
ENDBRANCH   9   5
BRANCH  11   6
ATOM      4  O   UNL     1      14.755   6.527   1.272  0.00  0.00    -0.253 OA
ATOM      6  N   UNL     1      15.384   6.479   3.506  0.00  0.00    -0.291 N 
ATOM      8  N   UNL     1      14.909   4.514   2.417  0.00  0.00    -0.300 N 
ATOM     19  C   UNL     1      14.995   5.900   2.303  0.00  0.00    +0.300 C 
ATOM     23  H   UNL     1      15.481   5.881   4.321  0.00  0.00    +0.151 HD
ATOM     25  H   UNL     1      15.117   4.085   3.312  0.00  0.00    +0.150 HD
BRANCH   8  21
ATOM     21  C   UNL     1      14.526   3.661   1.317  0.00  0.00    +0.102 C 
ATOM     22  C   UNL     1      13.108   3.154   1.478  0.00  0.00    +0.024 C 
ENDBRANCH   8  21
ENDBRANCH  11   6
BRANCH  10   3
ATOM      3  O   UNL     1      14.281   9.913   3.212  0.00  0.00    -0.388 OA
ATOM     24  H   UNL     1      14.218   9.828   2.245  0.00  0.00    +0.210 HD
ENDBRANCH  10   3
TORSDOF 4
ENDMDL
MODEL 8
REMARK VINA RESULT:      -5.2     12.765     14.877
REMARK  Name = 45360572
REMARK  6 active torsions:
REMARK  status: ('A' for Active; 'I' for Inactive)
REMARK    1  A    between atoms: O_3  and  C_10
REMARK    2  A    between atoms: N_5  and  C_9
REMARK    3  A    between atoms: N_6  and  C_11
REMARK    4  A    between atoms: N_7  and  C_20
REMARK    5  A    between atoms: N_8  and  C_21
REMARK    6  A    between atoms: C_21  and  C_22
REMARK                            x       y       z     vdW  Elec       q    Type
REMARK                         _______ _______ _______ _____ _____    ______ ____
ROOT
ATOM      1  O   UNL     1       8.805   6.268   6.985  0.00  0.00    -0.342 OA
ATOM      2  O   UNL     1       9.990   5.684   8.890  0.00  0.00    -0.347 OA
ATOM      9  C   UNL     1      10.758   7.556   7.566  0.00  0.00    +0.144 C 
ATOM     10  C   UNL     1      11.651   6.620   6.721  0.00  0.00    +0.159 C 
ATOM     11  C   UNL     1      10.857   5.551   5.940  0.00  0.00    +0.136 C 
ATOM     12  C   UNL     1       9.532   6.795   8.102  0.00  0.00    +0.270 C 
ATOM     13  C   UNL     1       9.570   5.102   6.663  0.00  0.00    +0.170 C 
ATOM     14  C   UNL     1       9.804   4.534   8.050  0.00  0.00    +0.196 C 
ENDROOT
BRANCH   9   5
ATOM      5  N   UNL     1      10.319   8.695   6.761  0.00  0.00    -0.290 NA
ATOM      7  N   UNL     1      10.340  11.493   6.032  0.00  0.00    -0.303 NA
ATOM     15  C   UNL     1      11.450   9.286   6.034  0.00  0.00    +0.100 C 
ATOM     16  C   UNL     1       9.665   9.706   7.600  0.00  0.00    +0.100 C 
ATOM     17  C   UNL     1      10.992  10.482   5.191  0.00  0.00    +0.099 C 
ATOM     18  C   UNL     1       9.208  10.903   6.758  0.00  0.00    +0.099 C 
ATOM     20  C   UNL     1       9.902  12.633   5.229  0.00  0.00    +0.105 C 
ENDBRANCH   9   5
BRANCH  11   6
ATOM      4  O   UNL     1      10.914   4.059   3.471  0.00  0.00    -0.253 OA
ATOM      6  N   UNL     1      10.530   6.040   4.617  0.00  0.00    -0.291 N 
ATOM      8  N   UNL     1      10.223   5.965   2.343  0.00  0.00    -0.300 N 
ATOM     19  C   UNL     1      10.586   5.244   3.479  0.00  0.00    +0.300 C 
ATOM     23  H   UNL     1      10.324   7.029   4.507  0.00  0.00    +0.151 HD
ATOM     25  H   UNL     1       9.976   6.944   2.445  0.00  0.00    +0.150 HD
BRANCH   8  21
ATOM     21  C   UNL     1      10.194   5.382   1.022  0.00  0.00    +0.102 C 
ATOM     22  C   UNL     1      11.503   5.600   0.292  0.00  0.00    +0.024 C 
ENDBRANCH   8  21
ENDBRANCH  11   6
BRANCH  10   3
ATOM      3  O   UNL     1      12.558   5.959   7.614  0.00  0.00    -0.388 OA
ATOM     24  H   UNL     1      12.104   5.851   8.467  0.00  0.00    +0.210 HD
ENDBRANCH  10   3
TORSDOF 4
ENDMDL
MODEL 9
REMARK VINA RESULT:      -5.2     27.774     29.003
REMARK  Name = 45360572
REMARK  6 active torsions:
REMARK  status: ('A' for Active; 'I' for Inactive)
REMARK    1  A    between atoms: O_3  and  C_10
REMARK    2  A    between atoms: N_5  and  C_9
REMARK    3  A    between atoms: N_6  and  C_11
REMARK    4  A    between atoms: N_7  and  C_20
REMARK    5  A    between atoms: N_8  and  C_21
REMARK    6  A    between atoms: C_21  and  C_22
REMARK                            x       y       z     vdW  Elec       q    Type
REMARK                         _______ _______ _______ _____ _____    ______ ____
ROOT
ATOM      1  O   UNL     1      -5.157 -10.211  17.831  0.00  0.00    -0.342 OA
ATOM      2  O   UNL     1      -4.999 -12.473  18.315  0.00  0.00    -0.347 OA
ATOM      9  C   UNL     1      -6.318 -11.776  16.412  0.00  0.00    +0.144 C 
ATOM     10  C   UNL     1      -7.581 -11.673  17.296  0.00  0.00    +0.159 C 
ATOM     11  C   UNL     1      -7.458 -10.624  18.424  0.00  0.00    +0.136 C 
ATOM     12  C   UNL     1      -5.050 -11.515  17.245  0.00  0.00    +0.270 C 
ATOM     13  C   UNL     1      -6.016 -10.463  18.948  0.00  0.00    +0.170 C 
ATOM     14  C   UNL     1      -5.403 -11.743  19.484  0.00  0.00    +0.196 C 
ENDROOT
BRANCH   9   5
ATOM      5  N   UNL     1      -6.393 -10.815  15.313  0.00  0.00    -0.290 NA
ATOM      7  N   UNL     1      -6.813 -10.098  12.543  0.00  0.00    -0.303 NA
ATOM     15  C   UNL     1      -7.738 -10.802  14.723  0.00  0.00    +0.100 C 
ATOM     16  C   UNL     1      -5.387 -11.115  14.287  0.00  0.00    +0.100 C 
ATOM     17  C   UNL     1      -7.818  -9.796  13.569  0.00  0.00    +0.099 C 
ATOM     18  C   UNL     1      -5.468 -10.110  13.132  0.00  0.00    +0.099 C 
ATOM     20  C   UNL     1      -6.888  -9.138  11.443  0.00  0.00    +0.105 C 
ENDBRANCH   9   5
BRANCH  11   6
ATOM      4  O   UNL     1     -10.205  -9.931  17.878  0.00  0.00    -0.253 OA
ATOM      6  N   UNL     1      -7.960  -9.345  17.972  0.00  0.00    -0.291 N 
ATOM      8  N   UNL     1      -9.514  -7.790  17.307  0.00  0.00    -0.300 N 
ATOM     19  C   UNL     1      -9.308  -9.101  17.733  0.00  0.00    +0.300 C 
ATOM     23  H   UNL     1      -7.289  -8.616  17.746  0.00  0.00    +0.151 HD
ATOM     25  H   UNL     1      -8.711  -7.178  17.207  0.00  0.00    +0.150 HD
BRANCH   8  21
ATOM     21  C   UNL     1     -10.822  -7.267  16.988  0.00  0.00    +0.102 C 
ATOM     22  C   UNL     1     -10.757  -6.273  15.847  0.00  0.00    +0.024 C 
ENDBRANCH   8  21
ENDBRANCH  11   6
BRANCH  10   3
ATOM      3  O   UNL     1      -7.806 -12.960  17.887  0.00  0.00    -0.388 OA
ATOM     24  H   UNL     1      -8.757 -13.151  17.820  0.00  0.00    +0.210 HD
ENDBRANCH  10   3
TORSDOF 4
ENDMDL
MODEL 10
REMARK VINA RESULT:      -5.1     21.407     23.654
REMARK  Name = 45360572
REMARK  6 active torsions:
REMARK  status: ('A' for Active; 'I' for Inactive)
REMARK    1  A    between atoms: O_3  and  C_10
REMARK    2  A    between atoms: N_5  and  C_9
REMARK    3  A    between atoms: N_6  and  C_11
REMARK    4  A    between atoms: N_7  and  C_20
REMARK    5  A    between atoms: N_8  and  C_21
REMARK    6  A    between atoms: C_21  and  C_22
REMARK                            x       y       z     vdW  Elec       q    Type
REMARK                         _______ _______ _______ _____ _____    ______ ____
ROOT
ATOM      1  O   UNL     1       7.969  -9.803  33.696  0.00  0.00    -0.342 OA
ATOM      2  O   UNL     1       8.011  -9.823  31.378  0.00  0.00    -0.347 OA
ATOM      9  C   UNL     1       8.000  -7.695  32.526  0.00  0.00    +0.144 C 
ATOM     10  C   UNL     1       6.456  -7.663  32.500  0.00  0.00    +0.159 C 
ATOM     11  C   UNL     1       5.803  -8.827  33.277  0.00  0.00    +0.136 C 
ATOM     12  C   UNL     1       8.512  -9.147  32.543  0.00  0.00    +0.270 C 
ATOM     13  C   UNL     1       6.645 -10.120  33.254  0.00  0.00    +0.170 C 
ATOM     14  C   UNL     1       6.938 -10.645  31.861  0.00  0.00    +0.196 C 
ENDROOT
BRANCH   9   5
ATOM      5  N   UNL     1       8.498  -6.982  33.702  0.00  0.00    -0.290 NA
ATOM      7  N   UNL     1       9.719  -4.711  35.010  0.00  0.00    -0.303 NA
ATOM     15  C   UNL     1       7.759  -5.730  33.904  0.00  0.00    +0.100 C 
ATOM     16  C   UNL     1       9.937  -6.714  33.579  0.00  0.00    +0.100 C 
ATOM     17  C   UNL     1       8.282  -4.980  35.134  0.00  0.00    +0.099 C 
ATOM     18  C   UNL     1      10.459  -5.964  34.809  0.00  0.00    +0.099 C 
ATOM     20  C   UNL     1      10.218  -3.997  36.184  0.00  0.00    +0.105 C 
ENDBRANCH   9   5
BRANCH  11   6
ATOM      4  O   UNL     1       3.813  -9.915  35.061  0.00  0.00    -0.253 OA
ATOM      6  N   UNL     1       5.550  -8.432  34.646  0.00  0.00    -0.291 N 
ATOM      8  N   UNL     1       4.536  -8.448  36.706  0.00  0.00    -0.300 N 
ATOM     19  C   UNL     1       4.564  -9.015  35.435  0.00  0.00    +0.300 C 
ATOM     23  H   UNL     1       6.065  -7.641  35.023  0.00  0.00    +0.151 HD
ATOM     25  H   UNL     1       5.190  -7.702  36.922  0.00  0.00    +0.150 HD
BRANCH   8  21
ATOM     21  C   UNL     1       3.607  -8.866  37.730  0.00  0.00    +0.102 C 
ATOM     22  C   UNL     1       3.060  -7.681  38.499  0.00  0.00    +0.024 C 
ENDBRANCH   8  21
ENDBRANCH  11   6
BRANCH  10   3
ATOM      3  O   UNL     1       6.041  -7.736  31.129  0.00  0.00    -0.388 OA
ATOM     24  H   UNL     1       6.686  -7.236  30.600  0.00  0.00    +0.210 HD
ENDBRANCH  10   3
TORSDOF 4
ENDMDL
