MODEL 1
REMARK VINA RESULT:      -8.2      0.000      0.000
REMARK  Name = 11912438
REMARK  4 active torsions:
REMARK  status: ('A' for Active; 'I' for Inactive)
REMARK    1  A    between atoms: O_6  and  C_30
REMARK    2  A    between atoms: O_6  and  C_31
REMARK    3  A    between atoms: N_7  and  C_15
REMARK    4  A    between atoms: C_23  and  C_25
REMARK                            x       y       z     vdW  Elec       q    Type
REMARK                         _______ _______ _______ _____ _____    ______ ____
ROOT
ATOM      5  O   UNL     1      15.877   6.058  21.513  0.00  0.00    -0.267 OA
ATOM      7  N   UNL     1      12.950   9.493  19.327  0.00  0.00    -0.298 NA
ATOM      8  N   UNL     1      14.903   8.176  21.478  0.00  0.00    -0.311 N 
ATOM      9  C   UNL     1      12.367   8.536  21.570  0.00  0.00    +0.024 C 
ATOM     10  C   UNL     1      13.863  10.469  21.439  0.00  0.00    +0.050 C 
ATOM     11  C   UNL     1      12.727   9.851  22.248  0.00  0.00    +0.017 C 
ATOM     12  C   UNL     1      11.927   8.794  20.113  0.00  0.00    +0.090 C 
ATOM     13  C   UNL     1      13.385  10.731  19.992  0.00  0.00    +0.094 C 
ATOM     14  C   UNL     1      13.569   7.586  21.662  0.00  0.00    +0.130 C 
ATOM     16  C   UNL     1      15.080   9.561  21.438  0.00  0.00    +0.026 A 
ATOM     19  C   UNL     1      16.316  10.081  21.383  0.00  0.00    +0.022 A 
ATOM     20  C   UNL     1      15.992   7.283  21.447  0.00  0.00    +0.259 A 
ATOM     23  C   UNL     1      17.364   7.895  21.349  0.00  0.00    +0.047 A 
ATOM     24  C   UNL     1      17.472   9.232  21.332  0.00  0.00    +0.015 A 
ENDROOT
BRANCH   7  15
ATOM      4  O   UNL     1      12.253   8.938  15.225  0.00  0.00    -0.380 OA
ATOM     15  C   UNL     1      12.476   9.767  17.972  0.00  0.00    +0.061 C 
ATOM     17  C   UNL     1      13.656   9.830  16.997  0.00  0.00    +0.047 C 
ATOM     18  C   UNL     1      11.473   8.703  17.515  0.00  0.00    +0.047 C 
ATOM     21  C   UNL     1      13.152   9.992  15.567  0.00  0.00    +0.161 C 
ATOM     22  C   UNL     1      11.092   8.927  16.056  0.00  0.00    +0.161 C 
ENDBRANCH   7  15
BRANCH  23  25
ATOM     25  C   UNL     1      18.571   7.053  21.266  0.00  0.00    -0.012 A 
ATOM     26  C   UNL     1      18.752   6.197  20.180  0.00  0.00    +0.012 A 
ATOM     27  C   UNL     1      19.533   7.111  22.275  0.00  0.00    +0.012 A 
ATOM     28  C   UNL     1      19.894   5.400  20.101  0.00  0.00    +0.046 A 
ATOM     29  C   UNL     1      20.675   6.314  22.197  0.00  0.00    +0.046 A 
ATOM     30  C   UNL     1      20.856   5.458  21.111  0.00  0.00    +0.130 A 
BRANCH  30   6
ATOM      6  O   UNL     1      21.970   4.682  21.033  0.00  0.00    -0.406 OA
BRANCH   6  31
ATOM      1  F   UNL     1      20.729   2.806  20.834  0.00  0.00    -0.133 F 
ATOM      2  F   UNL     1      22.904   2.598  20.905  0.00  0.00    -0.133 F 
ATOM      3  F   UNL     1      21.774   3.152  22.722  0.00  0.00    -0.133 F 
ATOM     31  C   UNL     1      21.859   3.306  21.383  0.00  0.00    +0.575 C 
ENDBRANCH   6  31
ENDBRANCH  30   6
ENDBRANCH  23  25
TORSDOF 4
ENDMDL
MODEL 2
REMARK VINA RESULT:      -7.6      5.135      8.988
REMARK  Name = 11912438
REMARK  4 active torsions:
REMARK  status: ('A' for Active; 'I' for Inactive)
REMARK    1  A    between atoms: O_6  and  C_30
REMARK    2  A    between atoms: O_6  and  C_31
REMARK    3  A    between atoms: N_7  and  C_15
REMARK    4  A    between atoms: C_23  and  C_25
REMARK                            x       y       z     vdW  Elec       q    Type
REMARK                         _______ _______ _______ _____ _____    ______ ____
ROOT
ATOM      5  O   UNL     1      17.279   8.919  21.776  0.00  0.00    -0.267 OA
ATOM      7  N   UNL     1      22.056   8.860  20.250  0.00  0.00    -0.298 NA
ATOM      8  N   UNL     1      19.343   7.850  21.591  0.00  0.00    -0.311 N 
ATOM      9  C   UNL     1      21.476   8.756  22.687  0.00  0.00    +0.024 C 
ATOM     10  C   UNL     1      21.566   6.687  21.382  0.00  0.00    +0.050 C 
ATOM     11  C   UNL     1      21.892   7.293  22.744  0.00  0.00    +0.017 C 
ATOM     12  C   UNL     1      22.248   9.482  21.565  0.00  0.00    +0.090 C 
ATOM     13  C   UNL     1      22.369   7.423  20.284  0.00  0.00    +0.094 C 
ATOM     14  C   UNL     1      19.955   8.832  22.498  0.00  0.00    +0.130 C 
ATOM     16  C   UNL     1      20.078   6.770  21.097  0.00  0.00    +0.026 A 
ATOM     19  C   UNL     1      19.473   5.823  20.362  0.00  0.00    +0.022 A 
ATOM     20  C   UNL     1      17.967   7.998  21.331  0.00  0.00    +0.259 A 
ATOM     23  C   UNL     1      17.324   6.940  20.475  0.00  0.00    +0.047 A 
ATOM     24  C   UNL     1      18.076   5.917  20.043  0.00  0.00    +0.015 A 
ENDROOT
BRANCH   7  15
ATOM      4  O   UNL     1      25.082  11.221  18.550  0.00  0.00    -0.380 OA
ATOM     15  C   UNL     1      22.844   9.542  19.225  0.00  0.00    +0.061 C 
ATOM     17  C   UNL     1      22.838  11.054  19.467  0.00  0.00    +0.047 C 
ATOM     18  C   UNL     1      24.285   9.020  19.202  0.00  0.00    +0.047 C 
ATOM     21  C   UNL     1      23.760  11.753  18.473  0.00  0.00    +0.161 C 
ATOM     22  C   UNL     1      25.126   9.832  18.224  0.00  0.00    +0.161 C 
ENDBRANCH   7  15
BRANCH  23  25
ATOM     25  C   UNL     1      15.900   7.020  20.105  0.00  0.00    -0.012 A 
ATOM     26  C   UNL     1      15.534   7.300  18.788  0.00  0.00    +0.012 A 
ATOM     27  C   UNL     1      14.915   6.815  21.073  0.00  0.00    +0.012 A 
ATOM     28  C   UNL     1      14.186   7.376  18.439  0.00  0.00    +0.046 A 
ATOM     29  C   UNL     1      13.567   6.891  20.723  0.00  0.00    +0.046 A 
ATOM     30  C   UNL     1      13.202   7.171  19.406  0.00  0.00    +0.130 A 
BRANCH  30   6
ATOM      6  O   UNL     1      11.887   7.244  19.064  0.00  0.00    -0.406 OA
BRANCH   6  31
ATOM      1  F   UNL     1      10.300   8.689  18.366  0.00  0.00    -0.133 F 
ATOM      2  F   UNL     1      10.479   8.317  20.512  0.00  0.00    -0.133 F 
ATOM      3  F   UNL     1      12.018   9.495  19.450  0.00  0.00    -0.133 F 
ATOM     31  C   UNL     1      11.178   8.441  19.364  0.00  0.00    +0.575 C 
ENDBRANCH   6  31
ENDBRANCH  30   6
ENDBRANCH  23  25
TORSDOF 4
ENDMDL
MODEL 3
REMARK VINA RESULT:      -7.5     28.100     30.522
REMARK  Name = 11912438
REMARK  4 active torsions:
REMARK  status: ('A' for Active; 'I' for Inactive)
REMARK    1  A    between atoms: O_6  and  C_30
REMARK    2  A    between atoms: O_6  and  C_31
REMARK    3  A    between atoms: N_7  and  C_15
REMARK    4  A    between atoms: C_23  and  C_25
REMARK                            x       y       z     vdW  Elec       q    Type
REMARK                         _______ _______ _______ _____ _____    ______ ____
ROOT
ATOM      5  O   UNL     1     -14.920   8.911  20.591  0.00  0.00    -0.267 OA
ATOM      7  N   UNL     1     -11.688   9.255  16.772  0.00  0.00    -0.298 NA
ATOM      8  N   UNL     1     -12.741   9.081  19.778  0.00  0.00    -0.311 N 
ATOM      9  C   UNL     1     -11.914  11.108  18.446  0.00  0.00    +0.024 C 
ATOM     10  C   UNL     1     -10.386   9.252  18.906  0.00  0.00    +0.050 C 
ATOM     11  C   UNL     1     -10.557  10.762  19.044  0.00  0.00    +0.017 C 
ATOM     12  C   UNL     1     -11.963  10.684  16.963  0.00  0.00    +0.090 C 
ATOM     13  C   UNL     1     -10.421   8.862  17.409  0.00  0.00    +0.094 C 
ATOM     14  C   UNL     1     -13.011  10.440  19.286  0.00  0.00    +0.130 C 
ATOM     16  C   UNL     1     -11.469   8.514  19.671  0.00  0.00    +0.026 A 
ATOM     19  C   UNL     1     -11.215   7.319  20.227  0.00  0.00    +0.022 A 
ATOM     20  C   UNL     1     -13.795   8.429  20.448  0.00  0.00    +0.259 A 
ATOM     23  C   UNL     1     -13.490   7.075  21.030  0.00  0.00    +0.047 A 
ATOM     24  C   UNL     1     -12.245   6.589  20.910  0.00  0.00    +0.015 A 
ENDROOT
BRANCH   7  15
ATOM      4  O   UNL     1     -11.729   6.868  13.319  0.00  0.00    -0.380 OA
ATOM     15  C   UNL     1     -11.689   8.904  15.354  0.00  0.00    +0.061 C 
ATOM     17  C   UNL     1     -10.457   8.060  15.013  0.00  0.00    +0.047 C 
ATOM     18  C   UNL     1     -12.966   8.145  14.976  0.00  0.00    +0.047 C 
ATOM     21  C   UNL     1     -10.522   7.590  13.563  0.00  0.00    +0.161 C 
ATOM     22  C   UNL     1     -12.891   7.670  13.530  0.00  0.00    +0.161 C 
ENDBRANCH   7  15
BRANCH  23  25
ATOM     25  C   UNL     1     -14.530   6.286  21.713  0.00  0.00    -0.012 A 
ATOM     26  C   UNL     1     -14.453   6.069  23.089  0.00  0.00    +0.012 A 
ATOM     27  C   UNL     1     -15.594   5.753  20.983  0.00  0.00    +0.012 A 
ATOM     28  C   UNL     1     -15.437   5.322  23.734  0.00  0.00    +0.046 A 
ATOM     29  C   UNL     1     -16.578   5.006  21.628  0.00  0.00    +0.046 A 
ATOM     30  C   UNL     1     -16.501   4.789  23.004  0.00  0.00    +0.130 A 
BRANCH  30   6
ATOM      6  O   UNL     1     -17.461   4.061  23.635  0.00  0.00    -0.406 OA
BRANCH   6  31
ATOM      1  F   UNL     1     -18.247   2.161  24.567  0.00  0.00    -0.133 F 
ATOM      2  F   UNL     1     -17.207   2.013  22.649  0.00  0.00    -0.133 F 
ATOM      3  F   UNL     1     -16.082   2.455  24.500  0.00  0.00    -0.133 F 
ATOM     31  C   UNL     1     -17.234   2.670  23.829  0.00  0.00    +0.575 C 
ENDBRANCH   6  31
ENDBRANCH  30   6
ENDBRANCH  23  25
TORSDOF 4
ENDMDL
MODEL 4
REMARK VINA RESULT:      -7.3     15.234     19.649
REMARK  Name = 11912438
REMARK  4 active torsions:
REMARK  status: ('A' for Active; 'I' for Inactive)
REMARK    1  A    between atoms: O_6  and  C_30
REMARK    2  A    between atoms: O_6  and  C_31
REMARK    3  A    between atoms: N_7  and  C_15
REMARK    4  A    between atoms: C_23  and  C_25
REMARK                            x       y       z     vdW  Elec       q    Type
REMARK                         _______ _______ _______ _____ _____    ______ ____
ROOT
ATOM      5  O   UNL     1      10.975   3.753   3.139  0.00  0.00    -0.267 OA
ATOM      7  N   UNL     1      14.315   5.167  -0.324  0.00  0.00    -0.298 NA
ATOM      8  N   UNL     1      11.512   4.887   1.174  0.00  0.00    -0.311 N 
ATOM      9  C   UNL     1      12.379   3.691  -0.922  0.00  0.00    +0.024 C 
ATOM     10  C   UNL     1      12.090   6.121  -0.943  0.00  0.00    +0.050 C 
ATOM     11  C   UNL     1      11.711   4.836  -1.671  0.00  0.00    +0.017 C 
ATOM     12  C   UNL     1      13.910   3.885  -0.913  0.00  0.00    +0.090 C 
ATOM     13  C   UNL     1      13.626   6.296  -0.967  0.00  0.00    +0.094 C 
ATOM     14  C   UNL     1      11.787   3.613   0.492  0.00  0.00    +0.130 C 
ATOM     16  C   UNL     1      11.582   6.101   0.488  0.00  0.00    +0.026 A 
ATOM     19  C   UNL     1      11.219   7.241   1.096  0.00  0.00    +0.022 A 
ATOM     20  C   UNL     1      11.080   4.809   2.512  0.00  0.00    +0.259 A 
ATOM     23  C   UNL     1      10.713   6.107   3.179  0.00  0.00    +0.047 A 
ATOM     24  C   UNL     1      10.784   7.240   2.465  0.00  0.00    +0.015 A 
ENDROOT
BRANCH   7  15
ATOM      4  O   UNL     1      18.075   6.323  -1.789  0.00  0.00    -0.380 OA
ATOM     15  C   UNL     1      15.765   5.337  -0.383  0.00  0.00    +0.061 C 
ATOM     17  C   UNL     1      16.333   4.637  -1.621  0.00  0.00    +0.047 C 
ATOM     18  C   UNL     1      16.145   6.822  -0.399  0.00  0.00    +0.047 C 
ATOM     21  C   UNL     1      17.827   4.918  -1.749  0.00  0.00    +0.161 C 
ATOM     22  C   UNL     1      17.648   6.981  -0.596  0.00  0.00    +0.161 C 
ENDBRANCH   7  15
BRANCH  23  25
ATOM     25  C   UNL     1      10.291   6.147   4.591  0.00  0.00    -0.012 A 
ATOM     26  C   UNL     1      11.246   6.195   5.605  0.00  0.00    +0.012 A 
ATOM     27  C   UNL     1       8.933   6.135   4.913  0.00  0.00    +0.012 A 
ATOM     28  C   UNL     1      10.846   6.232   6.941  0.00  0.00    +0.046 A 
ATOM     29  C   UNL     1       8.532   6.172   6.248  0.00  0.00    +0.046 A 
ATOM     30  C   UNL     1       9.488   6.221   7.263  0.00  0.00    +0.130 A 
BRANCH  30   6
ATOM      6  O   UNL     1       9.098   6.258   8.565  0.00  0.00    -0.406 OA
BRANCH   6  31
ATOM      1  F   UNL     1       9.393   4.020   8.568  0.00  0.00    -0.133 F 
ATOM      2  F   UNL     1      10.494   5.205  10.039  0.00  0.00    -0.133 F 
ATOM      3  F   UNL     1       8.311   4.917  10.243  0.00  0.00    -0.133 F 
ATOM     31  C   UNL     1       9.325   5.107   9.371  0.00  0.00    +0.575 C 
ENDBRANCH   6  31
ENDBRANCH  30   6
ENDBRANCH  23  25
TORSDOF 4
ENDMDL
MODEL 5
REMARK VINA RESULT:      -7.2     27.864     30.648
REMARK  Name = 11912438
REMARK  4 active torsions:
REMARK  status: ('A' for Active; 'I' for Inactive)
REMARK    1  A    between atoms: O_6  and  C_30
REMARK    2  A    between atoms: O_6  and  C_31
REMARK    3  A    between atoms: N_7  and  C_15
REMARK    4  A    between atoms: C_23  and  C_25
REMARK                            x       y       z     vdW  Elec       q    Type
REMARK                         _______ _______ _______ _____ _____    ______ ____
ROOT
ATOM      5  O   UNL     1      -6.783 -10.148  14.023  0.00  0.00    -0.267 OA
ATOM      7  N   UNL     1      -2.688 -12.967  13.363  0.00  0.00    -0.298 NA
ATOM      8  N   UNL     1      -4.502 -10.525  14.324  0.00  0.00    -0.311 N 
ATOM      9  C   UNL     1      -2.852 -10.672  12.367  0.00  0.00    +0.024 C 
ATOM     10  C   UNL     1      -2.041 -10.932  14.661  0.00  0.00    +0.050 C 
ATOM     11  C   UNL     1      -1.840 -10.140  13.373  0.00  0.00    +0.017 C 
ATOM     12  C   UNL     1      -2.619 -12.178  12.127  0.00  0.00    +0.090 C 
ATOM     13  C   UNL     1      -1.782 -12.433  14.392  0.00  0.00    +0.094 C 
ATOM     14  C   UNL     1      -4.267 -10.369  12.881  0.00  0.00    +0.130 C 
ATOM     16  C   UNL     1      -3.441 -10.726  15.210  0.00  0.00    +0.026 A 
ATOM     19  C   UNL     1      -3.664 -10.753  16.533  0.00  0.00    +0.022 A 
ATOM     20  C   UNL     1      -5.827 -10.360  14.771  0.00  0.00    +0.259 A 
ATOM     23  C   UNL     1      -6.051 -10.430  16.258  0.00  0.00    +0.047 A 
ATOM     24  C   UNL     1      -4.991 -10.608  17.060  0.00  0.00    +0.015 A 
ENDROOT
BRANCH   7  15
ATOM      4  O   UNL     1      -1.008 -16.370  11.569  0.00  0.00    -0.380 OA
ATOM     15  C   UNL     1      -2.409 -14.377  13.102  0.00  0.00    +0.061 C 
ATOM     17  C   UNL     1      -2.811 -14.744  11.671  0.00  0.00    +0.047 C 
ATOM     18  C   UNL     1      -0.928 -14.697  13.330  0.00  0.00    +0.047 C 
ATOM     21  C   UNL     1      -2.407 -16.182  11.359  0.00  0.00    +0.161 C 
ATOM     22  C   UNL     1      -0.629 -16.135  12.925  0.00  0.00    +0.161 C 
ENDBRANCH   7  15
BRANCH  23  25
ATOM     25  C   UNL     1      -7.404 -10.315  16.832  0.00  0.00    -0.012 A 
ATOM     26  C   UNL     1      -8.135 -11.463  17.135  0.00  0.00    +0.012 A 
ATOM     27  C   UNL     1      -7.954  -9.055  17.073  0.00  0.00    +0.012 A 
ATOM     28  C   UNL     1      -9.415 -11.353  17.678  0.00  0.00    +0.046 A 
ATOM     29  C   UNL     1      -9.234  -8.945  17.616  0.00  0.00    +0.046 A 
ATOM     30  C   UNL     1      -9.965 -10.093  17.918  0.00  0.00    +0.130 A 
BRANCH  30   6
ATOM      6  O   UNL     1     -11.213  -9.987  18.449  0.00  0.00    -0.406 OA
BRANCH   6  31
ATOM      1  F   UNL     1     -12.377  -9.514  20.325  0.00  0.00    -0.133 F 
ATOM      2  F   UNL     1     -11.745 -11.581  20.000  0.00  0.00    -0.133 F 
ATOM      3  F   UNL     1     -10.262 -10.029  20.529  0.00  0.00    -0.133 F 
ATOM     31  C   UNL     1     -11.387 -10.291  19.829  0.00  0.00    +0.575 C 
ENDBRANCH   6  31
ENDBRANCH  30   6
ENDBRANCH  23  25
TORSDOF 4
ENDMDL
MODEL 6
REMARK VINA RESULT:      -7.2     29.800     32.761
REMARK  Name = 11912438
REMARK  4 active torsions:
REMARK  status: ('A' for Active; 'I' for Inactive)
REMARK    1  A    between atoms: O_6  and  C_30
REMARK    2  A    between atoms: O_6  and  C_31
REMARK    3  A    between atoms: N_7  and  C_15
REMARK    4  A    between atoms: C_23  and  C_25
REMARK                            x       y       z     vdW  Elec       q    Type
REMARK                         _______ _______ _______ _____ _____    ______ ____
ROOT
ATOM      5  O   UNL     1     -16.391   6.111  30.960  0.00  0.00    -0.267 OA
ATOM      7  N   UNL     1     -13.814  10.280  29.898  0.00  0.00    -0.298 NA
ATOM      8  N   UNL     1     -15.266   8.037  31.641  0.00  0.00    -0.311 N 
ATOM      9  C   UNL     1     -16.055  10.395  31.016  0.00  0.00    +0.024 C 
ATOM     10  C   UNL     1     -14.043  10.109  32.381  0.00  0.00    +0.050 C 
ATOM     11  C   UNL     1     -15.402  10.801  32.330  0.00  0.00    +0.017 C 
ATOM     12  C   UNL     1     -15.172  10.832  29.828  0.00  0.00    +0.090 C 
ATOM     13  C   UNL     1     -13.177  10.581  31.190  0.00  0.00    +0.094 C 
ATOM     14  C   UNL     1     -16.308   8.881  31.037  0.00  0.00    +0.130 C 
ATOM     16  C   UNL     1     -14.205   8.600  32.353  0.00  0.00    +0.026 A 
ATOM     19  C   UNL     1     -13.328   7.810  32.991  0.00  0.00    +0.022 A 
ATOM     20  C   UNL     1     -15.450   6.644  31.551  0.00  0.00    +0.259 A 
ATOM     23  C   UNL     1     -14.430   5.783  32.248  0.00  0.00    +0.047 A 
ATOM     24  C   UNL     1     -13.442   6.381  32.931  0.00  0.00    +0.015 A 
ENDROOT
BRANCH   7  15
ATOM      4  O   UNL     1     -11.446  10.170  26.434  0.00  0.00    -0.380 OA
ATOM     15  C   UNL     1     -12.994  10.759  28.788  0.00  0.00    +0.061 C 
ATOM     17  C   UNL     1     -11.591  10.149  28.859  0.00  0.00    +0.047 C 
ATOM     18  C   UNL     1     -13.643  10.426  27.441  0.00  0.00    +0.047 C 
ATOM     21  C   UNL     1     -10.775  10.552  27.635  0.00  0.00    +0.161 C 
ATOM     22  C   UNL     1     -12.714  10.811  26.296  0.00  0.00    +0.161 C 
ENDBRANCH   7  15
BRANCH  23  25
ATOM     25  C   UNL     1     -14.501   4.312  32.182  0.00  0.00    -0.012 A 
ATOM     26  C   UNL     1     -13.800   3.622  31.193  0.00  0.00    +0.012 A 
ATOM     27  C   UNL     1     -15.269   3.608  33.111  0.00  0.00    +0.012 A 
ATOM     28  C   UNL     1     -13.868   2.231  31.131  0.00  0.00    +0.046 A 
ATOM     29  C   UNL     1     -15.336   2.217  33.049  0.00  0.00    +0.046 A 
ATOM     30  C   UNL     1     -14.636   1.527  32.059  0.00  0.00    +0.130 A 
BRANCH  30   6
ATOM      6  O   UNL     1     -14.700   0.170  31.999  0.00  0.00    -0.406 OA
BRANCH   6  31
ATOM      1  F   UNL     1     -15.956  -1.541  31.229  0.00  0.00    -0.133 F 
ATOM      2  F   UNL     1     -16.173   0.410  30.267  0.00  0.00    -0.133 F 
ATOM      3  F   UNL     1     -14.345  -0.793  29.955  0.00  0.00    -0.133 F 
ATOM     31  C   UNL     1     -15.289  -0.427  30.849  0.00  0.00    +0.575 C 
ENDBRANCH   6  31
ENDBRANCH  30   6
ENDBRANCH  23  25
TORSDOF 4
ENDMDL
MODEL 7
REMARK VINA RESULT:      -7.2     29.385     31.550
REMARK  Name = 11912438
REMARK  4 active torsions:
REMARK  status: ('A' for Active; 'I' for Inactive)
REMARK    1  A    between atoms: O_6  and  C_30
REMARK    2  A    between atoms: O_6  and  C_31
REMARK    3  A    between atoms: N_7  and  C_15
REMARK    4  A    between atoms: C_23  and  C_25
REMARK                            x       y       z     vdW  Elec       q    Type
REMARK                         _______ _______ _______ _____ _____    ______ ____
ROOT
ATOM      5  O   UNL     1     -11.824  -9.810  14.812  0.00  0.00    -0.267 OA
ATOM      7  N   UNL     1     -12.769  -5.967  11.732  0.00  0.00    -0.298 NA
ATOM      8  N   UNL     1     -12.644  -7.660  14.432  0.00  0.00    -0.311 N 
ATOM      9  C   UNL     1     -14.631  -7.188  12.883  0.00  0.00    +0.024 C 
ATOM     10  C   UNL     1     -13.519  -5.334  14.030  0.00  0.00    +0.050 C 
ATOM     11  C   UNL     1     -14.873  -5.997  13.800  0.00  0.00    +0.017 C 
ATOM     12  C   UNL     1     -14.019  -6.714  11.548  0.00  0.00    +0.090 C 
ATOM     13  C   UNL     1     -12.942  -4.854  12.678  0.00  0.00    +0.094 C 
ATOM     14  C   UNL     1     -13.738  -8.202  13.613  0.00  0.00    +0.130 C 
ATOM     16  C   UNL     1     -12.556  -6.293  14.706  0.00  0.00    +0.026 A 
ATOM     19  C   UNL     1     -11.617  -5.833  15.547  0.00  0.00    +0.022 A 
ATOM     20  C   UNL     1     -11.758  -8.594  15.004  0.00  0.00    +0.259 A 
ATOM     23  C   UNL     1     -10.693  -8.045  15.915  0.00  0.00    +0.047 A 
ATOM     24  C   UNL     1     -10.669  -6.725  16.154  0.00  0.00    +0.015 A 
ENDROOT
BRANCH   7  15
ATOM      4  O   UNL     1     -10.030  -4.508   8.904  0.00  0.00    -0.380 OA
ATOM     15  C   UNL     1     -12.250  -5.488  10.452  0.00  0.00    +0.061 C 
ATOM     17  C   UNL     1     -11.718  -4.059  10.594  0.00  0.00    +0.047 C 
ATOM     18  C   UNL     1     -11.145  -6.410   9.927  0.00  0.00    +0.047 C 
ATOM     21  C   UNL     1     -11.066  -3.605   9.291  0.00  0.00    +0.161 C 
ATOM     22  C   UNL     1     -10.524  -5.826   8.663  0.00  0.00    +0.161 C 
ENDBRANCH   7  15
BRANCH  23  25
ATOM     25  C   UNL     1      -9.687  -8.928  16.532  0.00  0.00    -0.012 A 
ATOM     26  C   UNL     1      -9.938  -9.513  17.772  0.00  0.00    +0.012 A 
ATOM     27  C   UNL     1      -8.481  -9.178  15.874  0.00  0.00    +0.012 A 
ATOM     28  C   UNL     1      -8.985 -10.348  18.356  0.00  0.00    +0.046 A 
ATOM     29  C   UNL     1      -7.529 -10.012  16.458  0.00  0.00    +0.046 A 
ATOM     30  C   UNL     1      -7.779 -10.598  17.699  0.00  0.00    +0.130 A 
BRANCH  30   6
ATOM      6  O   UNL     1      -6.851 -11.413  18.268  0.00  0.00    -0.406 OA
BRANCH   6  31
ATOM      1  F   UNL     1      -5.192 -11.761  19.759  0.00  0.00    -0.133 F 
ATOM      2  F   UNL     1      -4.851 -10.309  18.160  0.00  0.00    -0.133 F 
ATOM      3  F   UNL     1      -6.239  -9.843  19.816  0.00  0.00    -0.133 F 
ATOM     31  C   UNL     1      -5.783 -10.814  18.995  0.00  0.00    +0.575 C 
ENDBRANCH   6  31
ENDBRANCH  30   6
ENDBRANCH  23  25
TORSDOF 4
ENDMDL
MODEL 8
REMARK VINA RESULT:      -7.2     29.380     32.607
REMARK  Name = 11912438
REMARK  4 active torsions:
REMARK  status: ('A' for Active; 'I' for Inactive)
REMARK    1  A    between atoms: O_6  and  C_30
REMARK    2  A    between atoms: O_6  and  C_31
REMARK    3  A    between atoms: N_7  and  C_15
REMARK    4  A    between atoms: C_23  and  C_25
REMARK                            x       y       z     vdW  Elec       q    Type
REMARK                         _______ _______ _______ _____ _____    ______ ____
ROOT
ATOM      5  O   UNL     1     -14.166   7.551  31.940  0.00  0.00    -0.267 OA
ATOM      7  N   UNL     1     -10.617   9.837  34.646  0.00  0.00    -0.298 NA
ATOM      8  N   UNL     1     -13.404   8.450  33.952  0.00  0.00    -0.311 N 
ATOM      9  C   UNL     1     -12.833  10.933  34.231  0.00  0.00    +0.024 C 
ATOM     10  C   UNL     1     -12.582   9.408  36.129  0.00  0.00    +0.050 C 
ATOM     11  C   UNL     1     -13.238  10.711  35.682  0.00  0.00    +0.017 C 
ATOM     12  C   UNL     1     -11.297  11.026  34.118  0.00  0.00    +0.090 C 
ATOM     13  C   UNL     1     -11.044   9.540  36.022  0.00  0.00    +0.094 C 
ATOM     14  C   UNL     1     -13.420   9.802  33.375  0.00  0.00    +0.130 C 
ATOM     16  C   UNL     1     -13.074   8.241  35.292  0.00  0.00    +0.026 A 
ATOM     19  C   UNL     1     -13.174   7.015  35.829  0.00  0.00    +0.022 A 
ATOM     20  C   UNL     1     -13.835   7.400  33.117  0.00  0.00    +0.259 A 
ATOM     23  C   UNL     1     -13.904   6.030  33.736  0.00  0.00    +0.047 A 
ATOM     24  C   UNL     1     -13.591   5.894  35.034  0.00  0.00    +0.015 A 
ENDROOT
BRANCH   7  15
ATOM      4  O   UNL     1      -6.751  11.164  35.607  0.00  0.00    -0.380 OA
ATOM     15  C   UNL     1      -9.165   9.985  34.571  0.00  0.00    +0.061 C 
ATOM     17  C   UNL     1      -8.792  11.449  34.317  0.00  0.00    +0.047 C 
ATOM     18  C   UNL     1      -8.494   9.488  35.855  0.00  0.00    +0.047 C 
ATOM     21  C   UNL     1      -7.277  11.625  34.362  0.00  0.00    +0.161 C 
ATOM     22  C   UNL     1      -6.997   9.773  35.815  0.00  0.00    +0.161 C 
ENDBRANCH   7  15
BRANCH  23  25
ATOM     25  C   UNL     1     -14.300   4.853  32.943  0.00  0.00    -0.012 A 
ATOM     26  C   UNL     1     -15.632   4.441  32.920  0.00  0.00    +0.012 A 
ATOM     27  C   UNL     1     -13.340   4.149  32.214  0.00  0.00    +0.012 A 
ATOM     28  C   UNL     1     -16.006   3.327  32.170  0.00  0.00    +0.046 A 
ATOM     29  C   UNL     1     -13.714   3.034  31.464  0.00  0.00    +0.046 A 
ATOM     30  C   UNL     1     -15.047   2.622  31.441  0.00  0.00    +0.130 A 
BRANCH  30   6
ATOM      6  O   UNL     1     -15.412   1.536  30.708  0.00  0.00    -0.406 OA
BRANCH   6  31
ATOM      1  F   UNL     1     -15.943  -0.657  30.789  0.00  0.00    -0.133 F 
ATOM      2  F   UNL     1     -13.832  -0.115  30.618  0.00  0.00    -0.133 F 
ATOM      3  F   UNL     1     -14.921   0.218  32.512  0.00  0.00    -0.133 F 
ATOM     31  C   UNL     1     -15.011   0.249  31.165  0.00  0.00    +0.575 C 
ENDBRANCH   6  31
ENDBRANCH  30   6
ENDBRANCH  23  25
TORSDOF 4
ENDMDL
MODEL 9
REMARK VINA RESULT:      -7.1     16.291     19.086
REMARK  Name = 11912438
REMARK  4 active torsions:
REMARK  status: ('A' for Active; 'I' for Inactive)
REMARK    1  A    between atoms: O_6  and  C_30
REMARK    2  A    between atoms: O_6  and  C_31
REMARK    3  A    between atoms: N_7  and  C_15
REMARK    4  A    between atoms: C_23  and  C_25
REMARK                            x       y       z     vdW  Elec       q    Type
REMARK                         _______ _______ _______ _____ _____    ______ ____
ROOT
ATOM      5  O   UNL     1      10.351   4.181   3.071  0.00  0.00    -0.267 OA
ATOM      7  N   UNL     1       9.106   8.168   5.847  0.00  0.00    -0.298 NA
ATOM      8  N   UNL     1      10.838   5.724   4.751  0.00  0.00    -0.311 N 
ATOM      9  C   UNL     1       9.451   5.918   6.897  0.00  0.00    +0.024 C 
ATOM     10  C   UNL     1      11.373   7.394   6.557  0.00  0.00    +0.050 C 
ATOM     11  C   UNL     1      10.757   6.387   7.523  0.00  0.00    +0.017 C 
ATOM     12  C   UNL     1       8.506   7.118   6.680  0.00  0.00    +0.090 C 
ATOM     13  C   UNL     1      10.412   8.591   6.374  0.00  0.00    +0.094 C 
ATOM     14  C   UNL     1       9.767   5.172   5.593  0.00  0.00    +0.130 C 
ATOM     16  C   UNL     1      11.670   6.743   5.218  0.00  0.00    +0.026 A 
ATOM     19  C   UNL     1      12.712   7.155   4.479  0.00  0.00    +0.022 A 
ATOM     20  C   UNL     1      11.044   5.105   3.502  0.00  0.00    +0.259 A 
ATOM     23  C   UNL     1      12.198   5.611   2.680  0.00  0.00    +0.047 A 
ATOM     24  C   UNL     1      12.973   6.582   3.188  0.00  0.00    +0.015 A 
ENDROOT
BRANCH   7  15
ATOM      4  O   UNL     1       7.418  11.668   4.259  0.00  0.00    -0.380 OA
ATOM     15  C   UNL     1       8.204   9.309   5.709  0.00  0.00    +0.061 C 
ATOM     17  C   UNL     1       8.989  10.622   5.789  0.00  0.00    +0.047 C 
ATOM     18  C   UNL     1       7.428   9.241   4.389  0.00  0.00    +0.047 C 
ATOM     21  C   UNL     1       8.067  11.808   5.522  0.00  0.00    +0.161 C 
ATOM     22  C   UNL     1       6.595  10.503   4.200  0.00  0.00    +0.161 C 
ENDBRANCH   7  15
BRANCH  23  25
ATOM     25  C   UNL     1      12.478   5.066   1.340  0.00  0.00    -0.012 A 
ATOM     26  C   UNL     1      11.906   5.655   0.212  0.00  0.00    +0.012 A 
ATOM     27  C   UNL     1      13.316   3.959   1.198  0.00  0.00    +0.012 A 
ATOM     28  C   UNL     1      12.171   5.138  -1.056  0.00  0.00    +0.046 A 
ATOM     29  C   UNL     1      13.581   3.442  -0.070  0.00  0.00    +0.046 A 
ATOM     30  C   UNL     1      13.009   4.031  -1.197  0.00  0.00    +0.130 A 
BRANCH  30   6
ATOM      6  O   UNL     1      13.267   3.528  -2.434  0.00  0.00    -0.406 OA
BRANCH   6  31
ATOM      1  F   UNL     1      11.200   3.130  -3.250  0.00  0.00    -0.133 F 
ATOM      2  F   UNL     1      12.875   2.011  -4.100  0.00  0.00    -0.133 F 
ATOM      3  F   UNL     1      12.154   1.566  -2.058  0.00  0.00    -0.133 F 
ATOM     31  C   UNL     1      12.384   2.544  -2.961  0.00  0.00    +0.575 C 
ENDBRANCH   6  31
ENDBRANCH  30   6
ENDBRANCH  23  25
TORSDOF 4
ENDMDL
MODEL 10
REMARK VINA RESULT:      -7.1     24.795     27.948
REMARK  Name = 11912438
REMARK  4 active torsions:
REMARK  status: ('A' for Active; 'I' for Inactive)
REMARK    1  A    between atoms: O_6  and  C_30
REMARK    2  A    between atoms: O_6  and  C_31
REMARK    3  A    between atoms: N_7  and  C_15
REMARK    4  A    between atoms: C_23  and  C_25
REMARK                            x       y       z     vdW  Elec       q    Type
REMARK                         _______ _______ _______ _____ _____    ______ ____
ROOT
ATOM      5  O   UNL     1      -6.555   9.580   5.182  0.00  0.00    -0.267 OA
ATOM      7  N   UNL     1      -1.843  10.449   3.702  0.00  0.00    -0.298 NA
ATOM      8  N   UNL     1      -4.255   9.298   5.443  0.00  0.00    -0.311 N 
ATOM      9  C   UNL     1      -2.666  11.250   5.930  0.00  0.00    +0.024 C 
ATOM     10  C   UNL     1      -1.773   8.980   5.723  0.00  0.00    +0.050 C 
ATOM     11  C   UNL     1      -1.828  10.197   6.642  0.00  0.00    +0.017 C 
ATOM     12  C   UNL     1      -2.022  11.614   4.576  0.00  0.00    +0.090 C 
ATOM     13  C   UNL     1      -1.106   9.373   4.384  0.00  0.00    +0.094 C 
ATOM     14  C   UNL     1      -4.099  10.721   5.777  0.00  0.00    +0.130 C 
ATOM     16  C   UNL     1      -3.165   8.425   5.479  0.00  0.00    +0.026 A 
ATOM     19  C   UNL     1      -3.347   7.111   5.281  0.00  0.00    +0.022 A 
ATOM     20  C   UNL     1      -5.565   8.847   5.189  0.00  0.00    +0.259 A 
ATOM     23  C   UNL     1      -5.733   7.372   4.936  0.00  0.00    +0.047 A 
ATOM     24  C   UNL     1      -4.652   6.581   5.001  0.00  0.00    +0.015 A 
ENDROOT
BRANCH   7  15
ATOM      4  O   UNL     1       0.944  10.386   0.562  0.00  0.00    -0.380 OA
ATOM     15  C   UNL     1      -1.181  10.824   2.454  0.00  0.00    +0.061 C 
ATOM     17  C   UNL     1       0.263  11.257   2.726  0.00  0.00    +0.047 C 
ATOM     18  C   UNL     1      -1.202   9.667   1.450  0.00  0.00    +0.047 C 
ATOM     21  C   UNL     1       0.990  11.531   1.413  0.00  0.00    +0.161 C 
ATOM     22  C   UNL     1      -0.393  10.029   0.209  0.00  0.00    +0.161 C 
ENDBRANCH   7  15
BRANCH  23  25
ATOM     25  C   UNL     1      -7.053   6.799   4.617  0.00  0.00    -0.012 A 
ATOM     26  C   UNL     1      -7.565   5.754   5.385  0.00  0.00    +0.012 A 
ATOM     27  C   UNL     1      -7.790   7.301   3.544  0.00  0.00    +0.012 A 
ATOM     28  C   UNL     1      -8.813   5.211   5.082  0.00  0.00    +0.046 A 
ATOM     29  C   UNL     1      -9.039   6.758   3.241  0.00  0.00    +0.046 A 
ATOM     30  C   UNL     1      -9.551   5.713   4.009  0.00  0.00    +0.130 A 
BRANCH  30   6
ATOM      6  O   UNL     1     -10.769   5.184   3.715  0.00  0.00    -0.406 OA
BRANCH   6  31
ATOM      1  F   UNL     1     -12.936   5.814   3.794  0.00  0.00    -0.133 F 
ATOM      2  F   UNL     1     -12.202   4.454   5.341  0.00  0.00    -0.133 F 
ATOM      3  F   UNL     1     -11.586   6.577   5.335  0.00  0.00    -0.133 F 
ATOM     31  C   UNL     1     -11.866   5.505   4.563  0.00  0.00    +0.575 C 
ENDBRANCH   6  31
ENDBRANCH  30   6
ENDBRANCH  23  25
TORSDOF 4
ENDMDL
