MODEL 1
REMARK VINA RESULT:      -6.7      0.000      0.000
REMARK  Name = 28963210
REMARK  9 active torsions:
REMARK  status: ('A' for Active; 'I' for Inactive)
REMARK    1  A    between atoms: S_1  and  N_6
REMARK    2  A    between atoms: S_1  and  C_25
REMARK    3  A    between atoms: O_2  and  C_11
REMARK    4  A    between atoms: N_6  and  C_15
REMARK    5  A    between atoms: C_8  and  C_18
REMARK    6  A    between atoms: C_10  and  C_20
REMARK    7  A    between atoms: C_13  and  C_19
REMARK    8  A    between atoms: C_19  and  C_21
REMARK    9  A    between atoms: C_19  and  C_22
REMARK                            x       y       z     vdW  Elec       q    Type
REMARK                         _______ _______ _______ _____ _____    ______ ____
ROOT
ATOM      8  C   UNL     1      11.853   9.037  21.066  0.00  0.00    -0.027 C 
ATOM      9  C   UNL     1      12.310  10.389  20.422  0.00  0.00    +0.028 C 
ATOM     10  C   UNL     1      13.428  10.146  19.344  0.00  0.00    +0.011 C 
ATOM     11  C   UNL     1      12.650  11.445  21.513  0.00  0.00    +0.122 C 
ATOM     12  C   UNL     1      10.678   9.298  22.038  0.00  0.00    +0.007 C 
ATOM     13  C   UNL     1      11.512  11.625  22.544  0.00  0.00    +0.029 C 
ATOM     14  C   UNL     1      11.340   8.095  19.951  0.00  0.00    +0.008 C 
ATOM     15  C   UNL     1      12.924   9.141  18.273  0.00  0.00    +0.079 C 
ATOM     16  C   UNL     1      11.023  10.301  23.131  0.00  0.00    +0.007 C 
ATOM     17  C   UNL     1      12.373   7.843  18.862  0.00  0.00    +0.021 C 
ATOM     18  C   UNL     1      12.995   8.334  21.843  0.00  0.00    +0.011 C 
ATOM     20  C   UNL     1      13.903  11.435  18.654  0.00  0.00    +0.009 C 
ENDROOT
BRANCH  11   2
ATOM      2  O   UNL     1      12.847  12.719  20.898  0.00  0.00    -0.391 OA
ATOM     30  H   UNL     1      12.975  12.577  19.944  0.00  0.00    +0.210 HD
ENDBRANCH  11   2
BRANCH  15   6
ATOM      6  N   UNL     1      14.029   8.761  17.350  0.00  0.00    -0.191 NA
ATOM     29  H   UNL     1      14.678   8.027  17.654  0.00  0.00    +0.148 HD
BRANCH   6   1
ATOM      1  S   UNL     1      13.920   9.216  15.716  0.00  0.00    +0.027 S 
ATOM      4  O   UNL     1      14.203   8.078  14.863  0.00  0.00    -0.158 OA
ATOM      5  O   UNL     1      14.635  10.466  15.548  0.00  0.00    -0.158 OA
ATOM     25  C   UNL     1      12.183   9.577  15.587  0.00  0.00    +0.214 C 
ENDBRANCH   6   1
ENDBRANCH  15   6
BRANCH  13  19
ATOM     19  C   UNL     1      11.919  12.570  23.682  0.00  0.00    +0.078 C 
ATOM     21  C   UNL     1      12.564  11.806  24.824  0.00  0.00    +0.017 C 
BRANCH  19  22
ATOM      3  O   UNL     1      10.170  12.944  25.236  0.00  0.00    -0.275 OA
ATOM      7  N   UNL     1      10.209  14.326  23.368  0.00  0.00    -0.301 N 
ATOM     22  C   UNL     1      10.688  13.291  24.173  0.00  0.00    +0.219 C 
ATOM     23  C   UNL     1       9.017  15.073  23.776  0.00  0.00    +0.108 C 
ATOM     24  C   UNL     1      10.830  14.790  22.122  0.00  0.00    +0.108 C 
ATOM     26  C   UNL     1       7.970  15.077  22.665  0.00  0.00    +0.019 C 
ATOM     27  C   UNL     1       9.817  14.789  20.979  0.00  0.00    +0.019 C 
ATOM     28  C   UNL     1       8.562  15.578  21.349  0.00  0.00    +0.003 C 
ENDBRANCH  19  22
ENDBRANCH  13  19
TORSDOF 5
ENDMDL
MODEL 2
REMARK VINA RESULT:      -6.6     27.748     29.482
REMARK  Name = 28963210
REMARK  9 active torsions:
REMARK  status: ('A' for Active; 'I' for Inactive)
REMARK    1  A    between atoms: S_1  and  N_6
REMARK    2  A    between atoms: S_1  and  C_25
REMARK    3  A    between atoms: O_2  and  C_11
REMARK    4  A    between atoms: N_6  and  C_15
REMARK    5  A    between atoms: C_8  and  C_18
REMARK    6  A    between atoms: C_10  and  C_20
REMARK    7  A    between atoms: C_13  and  C_19
REMARK    8  A    between atoms: C_19  and  C_21
REMARK    9  A    between atoms: C_19  and  C_22
REMARK                            x       y       z     vdW  Elec       q    Type
REMARK                         _______ _______ _______ _____ _____    ______ ____
ROOT
ATOM      8  C   UNL     1      -6.418 -11.400  18.908  0.00  0.00    -0.027 C 
ATOM      9  C   UNL     1      -6.825 -10.839  17.504  0.00  0.00    +0.028 C 
ATOM     10  C   UNL     1      -5.605 -10.135  16.807  0.00  0.00    +0.011 C 
ATOM     11  C   UNL     1      -8.127  -9.991  17.594  0.00  0.00    +0.122 C 
ATOM     12  C   UNL     1      -7.605 -12.183  19.517  0.00  0.00    +0.007 C 
ATOM     13  C   UNL     1      -9.280 -10.740  18.299  0.00  0.00    +0.029 C 
ATOM     14  C   UNL     1      -5.243 -12.391  18.733  0.00  0.00    +0.008 C 
ATOM     15  C   UNL     1      -4.409 -11.120  16.707  0.00  0.00    +0.079 C 
ATOM     16  C   UNL     1      -8.869 -11.341  19.643  0.00  0.00    +0.007 C 
ATOM     17  C   UNL     1      -4.039 -11.772  18.039  0.00  0.00    +0.021 C 
ATOM     18  C   UNL     1      -5.999 -10.281  19.896  0.00  0.00    +0.011 C 
ATOM     20  C   UNL     1      -5.933  -9.583  15.410  0.00  0.00    +0.009 C 
ENDROOT
BRANCH  11   2
ATOM      2  O   UNL     1      -8.586  -9.683  16.276  0.00  0.00    -0.391 OA
ATOM     30  H   UNL     1      -9.548  -9.549  16.315  0.00  0.00    +0.210 HD
ENDBRANCH  11   2
BRANCH  15   6
ATOM      6  N   UNL     1      -3.191 -10.417  16.218  0.00  0.00    -0.191 NA
ATOM     29  H   UNL     1      -2.762  -9.716  16.831  0.00  0.00    +0.148 HD
BRANCH   6   1
ATOM      1  S   UNL     1      -2.332 -11.086  14.912  0.00  0.00    +0.027 S 
ATOM      4  O   UNL     1      -0.969 -11.380  15.311  0.00  0.00    -0.158 OA
ATOM      5  O   UNL     1      -2.604 -10.284  13.735  0.00  0.00    -0.158 OA
ATOM     25  C   UNL     1      -3.188 -12.632  14.709  0.00  0.00    +0.214 C 
ENDBRANCH   6   1
ENDBRANCH  15   6
BRANCH  13  19
ATOM     19  C   UNL     1     -10.508  -9.842  18.494  0.00  0.00    +0.078 C 
ATOM     21  C   UNL     1     -11.228 -10.173  19.789  0.00  0.00    +0.017 C 
BRANCH  19  22
ATOM      3  O   UNL     1     -11.839 -11.168  17.051  0.00  0.00    -0.275 OA
ATOM      7  N   UNL     1     -11.785  -8.888  16.606  0.00  0.00    -0.301 N 
ATOM     22  C   UNL     1     -11.438 -10.035  17.321  0.00  0.00    +0.219 C 
ATOM     23  C   UNL     1     -12.682  -8.994  15.453  0.00  0.00    +0.108 C 
ATOM     24  C   UNL     1     -11.358  -7.522  16.931  0.00  0.00    +0.108 C 
ATOM     26  C   UNL     1     -12.056  -8.356  14.215  0.00  0.00    +0.019 C 
ATOM     27  C   UNL     1     -10.707  -6.856  15.721  0.00  0.00    +0.019 C 
ATOM     28  C   UNL     1     -11.618  -6.920  14.495  0.00  0.00    +0.003 C 
ENDBRANCH  19  22
ENDBRANCH  13  19
TORSDOF 5
ENDMDL
MODEL 3
REMARK VINA RESULT:      -6.5     27.895     29.293
REMARK  Name = 28963210
REMARK  9 active torsions:
REMARK  status: ('A' for Active; 'I' for Inactive)
REMARK    1  A    between atoms: S_1  and  N_6
REMARK    2  A    between atoms: S_1  and  C_25
REMARK    3  A    between atoms: O_2  and  C_11
REMARK    4  A    between atoms: N_6  and  C_15
REMARK    5  A    between atoms: C_8  and  C_18
REMARK    6  A    between atoms: C_10  and  C_20
REMARK    7  A    between atoms: C_13  and  C_19
REMARK    8  A    between atoms: C_19  and  C_21
REMARK    9  A    between atoms: C_19  and  C_22
REMARK                            x       y       z     vdW  Elec       q    Type
REMARK                         _______ _______ _______ _____ _____    ______ ____
ROOT
ATOM      8  C   UNL     1      -3.678 -10.604  10.514  0.00  0.00    -0.027 C 
ATOM      9  C   UNL     1      -4.947 -10.324  11.387  0.00  0.00    +0.028 C 
ATOM     10  C   UNL     1      -5.736  -9.077  10.846  0.00  0.00    +0.011 C 
ATOM     11  C   UNL     1      -4.589 -10.285  12.902  0.00  0.00    +0.122 C 
ATOM     12  C   UNL     1      -2.988 -11.899  11.003  0.00  0.00    +0.007 C 
ATOM     13  C   UNL     1      -3.806 -11.535  13.362  0.00  0.00    +0.029 C 
ATOM     14  C   UNL     1      -4.116 -10.830   9.047  0.00  0.00    +0.008 C 
ATOM     15  C   UNL     1      -6.102  -9.288   9.352  0.00  0.00    +0.079 C 
ATOM     16  C   UNL     1      -2.600 -11.846  12.475  0.00  0.00    +0.007 C 
ATOM     17  C   UNL     1      -4.909  -9.664   8.475  0.00  0.00    +0.021 C 
ATOM     18  C   UNL     1      -2.653  -9.442  10.566  0.00  0.00    +0.011 C 
ATOM     20  C   UNL     1      -7.010  -8.764  11.647  0.00  0.00    +0.009 C 
ENDROOT
BRANCH  11   2
ATOM      2  O   UNL     1      -5.790 -10.249  13.674  0.00  0.00    -0.391 OA
ATOM     30  H   UNL     1      -5.555 -10.012  14.587  0.00  0.00    +0.210 HD
ENDBRANCH  11   2
BRANCH  15   6
ATOM      6  N   UNL     1      -6.687  -8.046   8.776  0.00  0.00    -0.191 NA
ATOM     29  H   UNL     1      -6.093  -7.211   8.731  0.00  0.00    +0.148 HD
BRANCH   6   1
ATOM      1  S   UNL     1      -8.104  -8.167   7.844  0.00  0.00    +0.027 S 
ATOM      4  O   UNL     1      -8.516  -9.553   7.742  0.00  0.00    -0.158 OA
ATOM      5  O   UNL     1      -7.933  -7.355   6.655  0.00  0.00    -0.158 OA
ATOM     25  C   UNL     1      -9.266  -7.327   8.897  0.00  0.00    +0.214 C 
ENDBRANCH   6   1
ENDBRANCH  15   6
BRANCH  13  19
ATOM     19  C   UNL     1      -3.349 -11.416  14.821  0.00  0.00    +0.078 C 
ATOM     21  C   UNL     1      -1.836 -11.475  14.929  0.00  0.00    +0.017 C 
BRANCH  19  22
ATOM      3  O   UNL     1      -3.951 -13.683  15.153  0.00  0.00    -0.275 OA
ATOM      7  N   UNL     1      -4.534 -12.199  16.843  0.00  0.00    -0.301 N 
ATOM     22  C   UNL     1      -3.969 -12.540  15.614  0.00  0.00    +0.219 C 
ATOM     23  C   UNL     1      -5.157 -13.236  17.670  0.00  0.00    +0.108 C 
ATOM     24  C   UNL     1      -4.531 -10.857  17.437  0.00  0.00    +0.108 C 
ATOM     26  C   UNL     1      -6.586 -12.849  18.043  0.00  0.00    +0.019 C 
ATOM     27  C   UNL     1      -5.949 -10.425  17.807  0.00  0.00    +0.019 C 
ATOM     28  C   UNL     1      -6.633 -11.466  18.692  0.00  0.00    +0.003 C 
ENDBRANCH  19  22
ENDBRANCH  13  19
TORSDOF 5
ENDMDL
MODEL 4
REMARK VINA RESULT:      -6.4     27.469     29.726
REMARK  Name = 28963210
REMARK  9 active torsions:
REMARK  status: ('A' for Active; 'I' for Inactive)
REMARK    1  A    between atoms: S_1  and  N_6
REMARK    2  A    between atoms: S_1  and  C_25
REMARK    3  A    between atoms: O_2  and  C_11
REMARK    4  A    between atoms: N_6  and  C_15
REMARK    5  A    between atoms: C_8  and  C_18
REMARK    6  A    between atoms: C_10  and  C_20
REMARK    7  A    between atoms: C_13  and  C_19
REMARK    8  A    between atoms: C_19  and  C_21
REMARK    9  A    between atoms: C_19  and  C_22
REMARK                            x       y       z     vdW  Elec       q    Type
REMARK                         _______ _______ _______ _____ _____    ______ ____
ROOT
ATOM      8  C   UNL     1      -5.004 -11.400  17.720  0.00  0.00    -0.027 C 
ATOM      9  C   UNL     1      -5.933 -11.107  16.495  0.00  0.00    +0.028 C 
ATOM     10  C   UNL     1      -7.408 -11.567  16.788  0.00  0.00    +0.011 C 
ATOM     11  C   UNL     1      -5.312 -11.648  15.175  0.00  0.00    +0.122 C 
ATOM     12  C   UNL     1      -3.590 -10.836  17.445  0.00  0.00    +0.007 C 
ATOM     13  C   UNL     1      -3.860 -11.166  14.957  0.00  0.00    +0.029 C 
ATOM     14  C   UNL     1      -5.565 -10.673  18.965  0.00  0.00    +0.008 C 
ATOM     15  C   UNL     1      -7.930 -10.886  18.082  0.00  0.00    +0.079 C 
ATOM     16  C   UNL     1      -2.964 -11.397  16.174  0.00  0.00    +0.007 C 
ATOM     17  C   UNL     1      -7.002 -11.059  19.283  0.00  0.00    +0.021 C 
ATOM     18  C   UNL     1      -4.885 -12.916  18.025  0.00  0.00    +0.011 C 
ATOM     20  C   UNL     1      -8.379 -11.282  15.630  0.00  0.00    +0.009 C 
ENDROOT
BRANCH  11   2
ATOM      2  O   UNL     1      -6.071 -11.174  14.062  0.00  0.00    -0.391 OA
ATOM     30  H   UNL     1      -5.741 -10.290  13.827  0.00  0.00    +0.210 HD
ENDBRANCH  11   2
BRANCH  15   6
ATOM      6  N   UNL     1      -9.252 -11.447  18.472  0.00  0.00    -0.191 NA
ATOM     29  H   UNL     1      -9.324 -12.462  18.600  0.00  0.00    +0.148 HD
BRANCH   6   1
ATOM      1  S   UNL     1     -10.432 -10.397  19.101  0.00  0.00    +0.027 S 
ATOM      4  O   UNL     1     -10.506  -9.193  18.296  0.00  0.00    -0.158 OA
ATOM      5  O   UNL     1     -10.249 -10.320  20.536  0.00  0.00    -0.158 OA
ATOM     25  C   UNL     1     -11.910 -11.342  18.805  0.00  0.00    +0.214 C 
ENDBRANCH   6   1
ENDBRANCH  15   6
BRANCH  13  19
ATOM     19  C   UNL     1      -3.223 -11.815  13.723  0.00  0.00    +0.078 C 
ATOM     21  C   UNL     1      -2.137 -12.798  14.120  0.00  0.00    +0.017 C 
BRANCH  19  22
ATOM      3  O   UNL     1      -1.822  -9.944  13.332  0.00  0.00    -0.275 OA
ATOM      7  N   UNL     1      -3.088 -10.685  11.530  0.00  0.00    -0.301 N 
ATOM     22  C   UNL     1      -2.643 -10.729  12.851  0.00  0.00    +0.219 C 
ATOM     23  C   UNL     1      -2.574  -9.657  10.622  0.00  0.00    +0.108 C 
ATOM     24  C   UNL     1      -4.030 -11.631  10.918  0.00  0.00    +0.108 C 
ATOM     26  C   UNL     1      -3.717  -8.879   9.975  0.00  0.00    +0.019 C 
ATOM     27  C   UNL     1      -5.201 -10.890  10.276  0.00  0.00    +0.019 C 
ATOM     28  C   UNL     1      -4.713  -9.821   9.300  0.00  0.00    +0.003 C 
ENDBRANCH  19  22
ENDBRANCH  13  19
TORSDOF 5
ENDMDL
MODEL 5
REMARK VINA RESULT:      -6.2     14.477     18.768
REMARK  Name = 28963210
REMARK  9 active torsions:
REMARK  status: ('A' for Active; 'I' for Inactive)
REMARK    1  A    between atoms: S_1  and  N_6
REMARK    2  A    between atoms: S_1  and  C_25
REMARK    3  A    between atoms: O_2  and  C_11
REMARK    4  A    between atoms: N_6  and  C_15
REMARK    5  A    between atoms: C_8  and  C_18
REMARK    6  A    between atoms: C_10  and  C_20
REMARK    7  A    between atoms: C_13  and  C_19
REMARK    8  A    between atoms: C_19  and  C_21
REMARK    9  A    between atoms: C_19  and  C_22
REMARK                            x       y       z     vdW  Elec       q    Type
REMARK                         _______ _______ _______ _____ _____    ______ ____
ROOT
ATOM      8  C   UNL     1       9.325   7.453   4.535  0.00  0.00    -0.027 C 
ATOM      9  C   UNL     1      10.652   6.834   5.089  0.00  0.00    +0.028 C 
ATOM     10  C   UNL     1      10.691   6.907   6.659  0.00  0.00    +0.011 C 
ATOM     11  C   UNL     1      11.894   7.423   4.360  0.00  0.00    +0.122 C 
ATOM     12  C   UNL     1       9.267   7.265   3.001  0.00  0.00    +0.007 C 
ATOM     13  C   UNL     1      11.784   7.328   2.821  0.00  0.00    +0.029 C 
ATOM     14  C   UNL     1       8.122   6.697   5.146  0.00  0.00    +0.008 C 
ATOM     15  C   UNL     1       9.439   6.209   7.255  0.00  0.00    +0.079 C 
ATOM     16  C   UNL     1      10.463   7.877   2.282  0.00  0.00    +0.007 C 
ATOM     17  C   UNL     1       8.120   6.710   6.668  0.00  0.00    +0.021 C 
ATOM     18  C   UNL     1       9.195   8.964   4.858  0.00  0.00    +0.011 C 
ATOM     20  C   UNL     1      11.961   6.291   7.269  0.00  0.00    +0.009 C 
ENDROOT
BRANCH  11   2
ATOM      2  O   UNL     1      13.059   6.683   4.731  0.00  0.00    -0.391 OA
ATOM     30  H   UNL     1      13.836   7.142   4.370  0.00  0.00    +0.210 HD
ENDBRANCH  11   2
BRANCH  15   6
ATOM      6  N   UNL     1       9.367   6.426   8.726  0.00  0.00    -0.191 NA
ATOM     29  H   UNL     1       9.001   7.324   9.061  0.00  0.00    +0.148 HD
BRANCH   6   1
ATOM      1  S   UNL     1       9.469   5.078   9.756  0.00  0.00    +0.027 S 
ATOM      4  O   UNL     1       8.217   4.899  10.467  0.00  0.00    -0.158 OA
ATOM      5  O   UNL     1      10.725   5.153  10.475  0.00  0.00    -0.158 OA
ATOM     25  C   UNL     1       9.615   3.763   8.568  0.00  0.00    +0.214 C 
ENDBRANCH   6   1
ENDBRANCH  15   6
BRANCH  13  19
ATOM     19  C   UNL     1      12.954   8.031   2.121  0.00  0.00    +0.078 C 
ATOM     21  C   UNL     1      12.758   9.536   2.105  0.00  0.00    +0.017 C 
BRANCH  19  22
ATOM      3  O   UNL     1      12.694   8.224  -0.226  0.00  0.00    -0.275 OA
ATOM      7  N   UNL     1      13.564   6.217   0.558  0.00  0.00    -0.301 N 
ATOM     22  C   UNL     1      13.056   7.507   0.710  0.00  0.00    +0.219 C 
ATOM     23  C   UNL     1      13.692   5.638  -0.781  0.00  0.00    +0.108 C 
ATOM     24  C   UNL     1      14.043   5.359   1.649  0.00  0.00    +0.108 C 
ATOM     26  C   UNL     1      12.987   4.286  -0.860  0.00  0.00    +0.019 C 
ATOM     27  C   UNL     1      13.345   4.001   1.616  0.00  0.00    +0.019 C 
ATOM     28  C   UNL     1      13.472   3.344   0.242  0.00  0.00    +0.003 C 
ENDBRANCH  19  22
ENDBRANCH  13  19
TORSDOF 5
ENDMDL
MODEL 6
REMARK VINA RESULT:      -6.1     24.647     26.592
REMARK  Name = 28963210
REMARK  9 active torsions:
REMARK  status: ('A' for Active; 'I' for Inactive)
REMARK    1  A    between atoms: S_1  and  N_6
REMARK    2  A    between atoms: S_1  and  C_25
REMARK    3  A    between atoms: O_2  and  C_11
REMARK    4  A    between atoms: N_6  and  C_15
REMARK    5  A    between atoms: C_8  and  C_18
REMARK    6  A    between atoms: C_10  and  C_20
REMARK    7  A    between atoms: C_13  and  C_19
REMARK    8  A    between atoms: C_19  and  C_21
REMARK    9  A    between atoms: C_19  and  C_22
REMARK                            x       y       z     vdW  Elec       q    Type
REMARK                         _______ _______ _______ _____ _____    ______ ____
ROOT
ATOM      8  C   UNL     1     -11.641   8.284  18.805  0.00  0.00    -0.027 C 
ATOM      9  C   UNL     1     -12.989   7.911  18.102  0.00  0.00    +0.028 C 
ATOM     10  C   UNL     1     -13.220   8.799  16.826  0.00  0.00    +0.011 C 
ATOM     11  C   UNL     1     -14.165   7.882  19.121  0.00  0.00    +0.122 C 
ATOM     12  C   UNL     1     -11.389   7.320  19.988  0.00  0.00    +0.007 C 
ATOM     13  C   UNL     1     -13.866   7.000  20.354  0.00  0.00    +0.029 C 
ATOM     14  C   UNL     1     -10.480   8.105  17.798  0.00  0.00    +0.008 C 
ATOM     15  C   UNL     1     -12.012   8.666  15.860  0.00  0.00    +0.079 C 
ATOM     16  C   UNL     1     -12.522   7.322  21.007  0.00  0.00    +0.007 C 
ATOM     17  C   UNL     1     -10.662   8.923  16.527  0.00  0.00    +0.021 C 
ATOM     18  C   UNL     1     -11.633   9.740  19.338  0.00  0.00    +0.011 C 
ATOM     20  C   UNL     1     -14.518   8.464  16.074  0.00  0.00    +0.009 C 
ENDROOT
BRANCH  11   2
ATOM      2  O   UNL     1     -15.324   7.328  18.495  0.00  0.00    -0.391 OA
ATOM     30  H   UNL     1     -15.272   6.360  18.566  0.00  0.00    +0.210 HD
ENDBRANCH  11   2
BRANCH  15   6
ATOM      6  N   UNL     1     -12.130   9.636  14.737  0.00  0.00    -0.191 NA
ATOM     29  H   UNL     1     -11.973  10.629  14.941  0.00  0.00    +0.148 HD
BRANCH   6   1
ATOM      1  S   UNL     1     -12.081   9.049  13.142  0.00  0.00    +0.027 S 
ATOM      4  O   UNL     1     -13.346   8.428  12.801  0.00  0.00    -0.158 OA
ATOM      5  O   UNL     1     -10.832   8.336  12.963  0.00  0.00    -0.158 OA
ATOM     25  C   UNL     1     -11.957  10.572  12.232  0.00  0.00    +0.214 C 
ENDBRANCH   6   1
ENDBRANCH  15   6
BRANCH  13  19
ATOM     19  C   UNL     1     -14.980   7.090  21.404  0.00  0.00    +0.078 C 
ATOM     21  C   UNL     1     -14.445   7.611  22.726  0.00  0.00    +0.017 C 
BRANCH  19  22
ATOM      3  O   UNL     1     -14.854   4.792  21.964  0.00  0.00    -0.275 OA
ATOM      7  N   UNL     1     -16.941   5.590  21.325  0.00  0.00    -0.301 N 
ATOM     22  C   UNL     1     -15.578   5.718  21.592  0.00  0.00    +0.219 C 
ATOM     23  C   UNL     1     -17.594   4.288  21.483  0.00  0.00    +0.108 C 
ATOM     24  C   UNL     1     -17.835   6.683  20.925  0.00  0.00    +0.108 C 
ATOM     26  C   UNL     1     -18.333   3.891  20.208  0.00  0.00    +0.019 C 
ATOM     27  C   UNL     1     -18.579   6.330  19.639  0.00  0.00    +0.019 C 
ATOM     28  C   UNL     1     -19.299   4.988  19.763  0.00  0.00    +0.003 C 
ENDBRANCH  19  22
ENDBRANCH  13  19
TORSDOF 5
ENDMDL
MODEL 7
REMARK VINA RESULT:      -6.1     27.544     29.206
REMARK  Name = 28963210
REMARK  9 active torsions:
REMARK  status: ('A' for Active; 'I' for Inactive)
REMARK    1  A    between atoms: S_1  and  N_6
REMARK    2  A    between atoms: S_1  and  C_25
REMARK    3  A    between atoms: O_2  and  C_11
REMARK    4  A    between atoms: N_6  and  C_15
REMARK    5  A    between atoms: C_8  and  C_18
REMARK    6  A    between atoms: C_10  and  C_20
REMARK    7  A    between atoms: C_13  and  C_19
REMARK    8  A    between atoms: C_19  and  C_21
REMARK    9  A    between atoms: C_19  and  C_22
REMARK                            x       y       z     vdW  Elec       q    Type
REMARK                         _______ _______ _______ _____ _____    ______ ____
ROOT
ATOM      8  C   UNL     1      -3.584 -11.757  12.087  0.00  0.00    -0.027 C 
ATOM      9  C   UNL     1      -4.844 -10.886  12.413  0.00  0.00    +0.028 C 
ATOM     10  C   UNL     1      -5.110  -9.837  11.273  0.00  0.00    +0.011 C 
ATOM     11  C   UNL     1      -4.767 -10.305  13.855  0.00  0.00    +0.122 C 
ATOM     12  C   UNL     1      -3.416 -12.850  13.168  0.00  0.00    +0.007 C 
ATOM     13  C   UNL     1      -4.493 -11.389  14.921  0.00  0.00    +0.029 C 
ATOM     14  C   UNL     1      -3.800 -12.468  10.730  0.00  0.00    +0.008 C 
ATOM     15  C   UNL     1      -5.250 -10.561   9.906  0.00  0.00    +0.079 C 
ATOM     16  C   UNL     1      -3.300 -12.279  14.576  0.00  0.00    +0.007 C 
ATOM     17  C   UNL     1      -4.089 -11.503   9.590  0.00  0.00    +0.021 C 
ATOM     18  C   UNL     1      -2.283 -10.916  12.020  0.00  0.00    +0.011 C 
ATOM     20  C   UNL     1      -6.352  -8.966  11.521  0.00  0.00    +0.009 C 
ENDROOT
BRANCH  11   2
ATOM      2  O   UNL     1      -6.020  -9.707  14.193  0.00  0.00    -0.391 OA
ATOM     30  H   UNL     1      -6.486 -10.305  14.802  0.00  0.00    +0.210 HD
ENDBRANCH  11   2
BRANCH  15   6
ATOM      6  N   UNL     1      -5.320  -9.573   8.795  0.00  0.00    -0.191 NA
ATOM     29  H   UNL     1      -4.480  -9.023   8.588  0.00  0.00    +0.148 HD
BRANCH   6   1
ATOM      1  S   UNL     1      -6.587  -9.700   7.669  0.00  0.00    +0.027 S 
ATOM      4  O   UNL     1      -7.416 -10.848   7.980  0.00  0.00    -0.158 OA
ATOM      5  O   UNL     1      -6.030  -9.525   6.342  0.00  0.00    -0.158 OA
ATOM     25  C   UNL     1      -7.519  -8.234   8.051  0.00  0.00    +0.214 C 
ENDBRANCH   6   1
ENDBRANCH  15   6
BRANCH  13  19
ATOM     19  C   UNL     1      -4.290 -10.779  16.314  0.00  0.00    +0.078 C 
ATOM     21  C   UNL     1      -2.820 -10.744  16.688  0.00  0.00    +0.017 C 
BRANCH  19  22
ATOM      3  O   UNL     1      -4.631 -12.712  17.642  0.00  0.00    -0.275 OA
ATOM      7  N   UNL     1      -6.232 -11.038  17.820  0.00  0.00    -0.301 N 
ATOM     22  C   UNL     1      -5.060 -11.602  17.318  0.00  0.00    +0.219 C 
ATOM     23  C   UNL     1      -7.036 -11.776  18.797  0.00  0.00    +0.108 C 
ATOM     24  C   UNL     1      -6.743  -9.702  17.487  0.00  0.00    +0.108 C 
ATOM     26  C   UNL     1      -8.485 -11.895  18.332  0.00  0.00    +0.019 C 
ATOM     27  C   UNL     1      -8.188  -9.782  16.997  0.00  0.00    +0.019 C 
ATOM     28  C   UNL     1      -9.073 -10.525  17.997  0.00  0.00    +0.003 C 
ENDBRANCH  19  22
ENDBRANCH  13  19
TORSDOF 5
ENDMDL
MODEL 8
REMARK VINA RESULT:      -6.0      5.831      7.884
REMARK  Name = 28963210
REMARK  9 active torsions:
REMARK  status: ('A' for Active; 'I' for Inactive)
REMARK    1  A    between atoms: S_1  and  N_6
REMARK    2  A    between atoms: S_1  and  C_25
REMARK    3  A    between atoms: O_2  and  C_11
REMARK    4  A    between atoms: N_6  and  C_15
REMARK    5  A    between atoms: C_8  and  C_18
REMARK    6  A    between atoms: C_10  and  C_20
REMARK    7  A    between atoms: C_13  and  C_19
REMARK    8  A    between atoms: C_19  and  C_21
REMARK    9  A    between atoms: C_19  and  C_22
REMARK                            x       y       z     vdW  Elec       q    Type
REMARK                         _______ _______ _______ _____ _____    ______ ____
ROOT
ATOM      8  C   UNL     1      18.100  10.579  21.748  0.00  0.00    -0.027 C 
ATOM      9  C   UNL     1      17.601   9.103  21.600  0.00  0.00    +0.028 C 
ATOM     10  C   UNL     1      18.811   8.120  21.393  0.00  0.00    +0.011 C 
ATOM     11  C   UNL     1      16.463   8.997  20.544  0.00  0.00    +0.122 C 
ATOM     12  C   UNL     1      16.900  11.503  22.062  0.00  0.00    +0.007 C 
ATOM     13  C   UNL     1      15.314   9.997  20.802  0.00  0.00    +0.029 C 
ATOM     14  C   UNL     1      19.081  10.663  22.941  0.00  0.00    +0.008 C 
ATOM     15  C   UNL     1      19.824   8.271  22.561  0.00  0.00    +0.079 C 
ATOM     16  C   UNL     1      15.804  11.430  21.007  0.00  0.00    +0.007 C 
ATOM     17  C   UNL     1      20.263   9.713  22.809  0.00  0.00    +0.021 C 
ATOM     18  C   UNL     1      18.807  11.097  20.469  0.00  0.00    +0.011 C 
ATOM     20  C   UNL     1      18.389   6.648  21.266  0.00  0.00    +0.009 C 
ENDROOT
BRANCH  11   2
ATOM      2  O   UNL     1      15.887   7.691  20.594  0.00  0.00    -0.391 OA
ATOM     30  H   UNL     1      16.343   7.134  19.941  0.00  0.00    +0.210 HD
ENDBRANCH  11   2
BRANCH  15   6
ATOM      6  N   UNL     1      21.058   7.484  22.288  0.00  0.00    -0.191 NA
ATOM     29  H   UNL     1      21.731   7.864  21.614  0.00  0.00    +0.148 HD
BRANCH   6   1
ATOM      1  S   UNL     1      21.504   6.261  23.382  0.00  0.00    +0.027 S 
ATOM      4  O   UNL     1      21.418   4.964  22.741  0.00  0.00    -0.158 OA
ATOM      5  O   UNL     1      20.830   6.514  24.640  0.00  0.00    -0.158 OA
ATOM     25  C   UNL     1      23.226   6.641  23.617  0.00  0.00    +0.214 C 
ENDBRANCH   6   1
ENDBRANCH  15   6
BRANCH  13  19
ATOM     19  C   UNL     1      14.270   9.968  19.679  0.00  0.00    +0.078 C 
ATOM     21  C   UNL     1      14.477  11.117  18.709  0.00  0.00    +0.017 C 
BRANCH  19  22
ATOM      3  O   UNL     1      12.487  11.141  20.709  0.00  0.00    -0.275 OA
ATOM      7  N   UNL     1      12.165   8.867  20.359  0.00  0.00    -0.301 N 
ATOM     22  C   UNL     1      12.896  10.053  20.296  0.00  0.00    +0.219 C 
ATOM     23  C   UNL     1      10.823   8.868  20.946  0.00  0.00    +0.108 C 
ATOM     24  C   UNL     1      12.606   7.568  19.836  0.00  0.00    +0.108 C 
ATOM     26  C   UNL     1      10.709   7.818  22.048  0.00  0.00    +0.019 C 
ATOM     27  C   UNL     1      12.526   6.493  20.917  0.00  0.00    +0.019 C 
ATOM     28  C   UNL     1      11.133   6.440  21.544  0.00  0.00    +0.003 C 
ENDBRANCH  19  22
ENDBRANCH  13  19
TORSDOF 5
ENDMDL
MODEL 9
REMARK VINA RESULT:      -5.9     13.189     18.392
REMARK  Name = 28963210
REMARK  9 active torsions:
REMARK  status: ('A' for Active; 'I' for Inactive)
REMARK    1  A    between atoms: S_1  and  N_6
REMARK    2  A    between atoms: S_1  and  C_25
REMARK    3  A    between atoms: O_2  and  C_11
REMARK    4  A    between atoms: N_6  and  C_15
REMARK    5  A    between atoms: C_8  and  C_18
REMARK    6  A    between atoms: C_10  and  C_20
REMARK    7  A    between atoms: C_13  and  C_19
REMARK    8  A    between atoms: C_19  and  C_21
REMARK    9  A    between atoms: C_19  and  C_22
REMARK                            x       y       z     vdW  Elec       q    Type
REMARK                         _______ _______ _______ _____ _____    ______ ____
ROOT
ATOM      8  C   UNL     1       9.539   6.098   6.000  0.00  0.00    -0.027 C 
ATOM      9  C   UNL     1      10.499   7.185   5.412  0.00  0.00    +0.028 C 
ATOM     10  C   UNL     1      10.048   8.627   5.849  0.00  0.00    +0.011 C 
ATOM     11  C   UNL     1      10.708   6.983   3.883  0.00  0.00    +0.122 C 
ATOM     12  C   UNL     1      10.074   4.690   5.646  0.00  0.00    +0.007 C 
ATOM     13  C   UNL     1      11.139   5.543   3.524  0.00  0.00    +0.029 C 
ATOM     14  C   UNL     1       9.524   6.220   7.542  0.00  0.00    +0.008 C 
ATOM     15  C   UNL     1       9.965   8.710   7.397  0.00  0.00    +0.079 C 
ATOM     16  C   UNL     1      10.238   4.477   4.147  0.00  0.00    +0.007 C 
ATOM     17  C   UNL     1       9.119   7.605   8.026  0.00  0.00    +0.021 C 
ATOM     18  C   UNL     1       8.091   6.231   5.464  0.00  0.00    +0.011 C 
ATOM     20  C   UNL     1      10.967   9.741   5.323  0.00  0.00    +0.009 C 
ENDROOT
BRANCH  11   2
ATOM      2  O   UNL     1      11.750   7.847   3.426  0.00  0.00    -0.391 OA
ATOM     30  H   UNL     1      11.745   7.838   2.454  0.00  0.00    +0.210 HD
ENDBRANCH  11   2
BRANCH  15   6
ATOM      6  N   UNL     1       9.367  10.006   7.820  0.00  0.00    -0.191 NA
ATOM     29  H   UNL     1       8.356  10.131   7.699  0.00  0.00    +0.148 HD
BRANCH   6   1
ATOM      1  S   UNL     1      10.259  11.018   8.855  0.00  0.00    +0.027 S 
ATOM      4  O   UNL     1      11.668  10.682   8.787  0.00  0.00    -0.158 OA
ATOM      5  O   UNL     1       9.571  11.078  10.129  0.00  0.00    -0.158 OA
ATOM     25  C   UNL     1      10.033  12.591   8.056  0.00  0.00    +0.214 C 
ENDBRANCH   6   1
ENDBRANCH  15   6
BRANCH  13  19
ATOM     19  C   UNL     1      11.210   5.331   2.007  0.00  0.00    +0.078 C 
ATOM     21  C   UNL     1      10.168   4.329   1.545  0.00  0.00    +0.017 C 
BRANCH  19  22
ATOM      3  O   UNL     1      12.975   3.752   2.089  0.00  0.00    -0.275 OA
ATOM      7  N   UNL     1      13.360   5.672   0.838  0.00  0.00    -0.301 N 
ATOM     22  C   UNL     1      12.592   4.840   1.653  0.00  0.00    +0.219 C 
ATOM     23  C   UNL     1      14.713   5.266   0.452  0.00  0.00    +0.108 C 
ATOM     24  C   UNL     1      12.915   6.950   0.269  0.00  0.00    +0.108 C 
ATOM     26  C   UNL     1      15.729   6.351   0.802  0.00  0.00    +0.019 C 
ATOM     27  C   UNL     1      13.897   8.068   0.614  0.00  0.00    +0.019 C 
ATOM     28  C   UNL     1      15.323   7.699   0.208  0.00  0.00    +0.003 C 
ENDBRANCH  19  22
ENDBRANCH  13  19
TORSDOF 5
ENDMDL
MODEL 10
REMARK VINA RESULT:      -5.9     26.949     29.366
REMARK  Name = 28963210
REMARK  9 active torsions:
REMARK  status: ('A' for Active; 'I' for Inactive)
REMARK    1  A    between atoms: S_1  and  N_6
REMARK    2  A    between atoms: S_1  and  C_25
REMARK    3  A    between atoms: O_2  and  C_11
REMARK    4  A    between atoms: N_6  and  C_15
REMARK    5  A    between atoms: C_8  and  C_18
REMARK    6  A    between atoms: C_10  and  C_20
REMARK    7  A    between atoms: C_13  and  C_19
REMARK    8  A    between atoms: C_19  and  C_21
REMARK    9  A    between atoms: C_19  and  C_22
REMARK                            x       y       z     vdW  Elec       q    Type
REMARK                         _______ _______ _______ _____ _____    ______ ____
ROOT
ATOM      8  C   UNL     1      21.399  -5.517   0.976  0.00  0.00    -0.027 C 
ATOM      9  C   UNL     1      20.620  -6.872   1.066  0.00  0.00    +0.028 C 
ATOM     10  C   UNL     1      21.483  -7.968   1.791  0.00  0.00    +0.011 C 
ATOM     11  C   UNL     1      20.043  -7.282  -0.321  0.00  0.00    +0.122 C 
ATOM     12  C   UNL     1      20.483  -4.433   0.361  0.00  0.00    +0.007 C 
ATOM     13  C   UNL     1      19.216  -6.156  -0.979  0.00  0.00    +0.029 C 
ATOM     14  C   UNL     1      21.777  -5.057   2.404  0.00  0.00    +0.008 C 
ATOM     15  C   UNL     1      21.917  -7.461   3.193  0.00  0.00    +0.079 C 
ATOM     16  C   UNL     1      19.951  -4.816  -1.014  0.00  0.00    +0.007 C 
ATOM     17  C   UNL     1      22.593  -6.091   3.166  0.00  0.00    +0.021 C 
ATOM     18  C   UNL     1      22.686  -5.628   0.119  0.00  0.00    +0.011 C 
ATOM     20  C   UNL     1      20.763  -9.319   1.934  0.00  0.00    +0.009 C 
ENDROOT
BRANCH  11   2
ATOM      2  O   UNL     1      19.162  -8.395  -0.159  0.00  0.00    -0.391 OA
ATOM     30  H   UNL     1      19.703  -9.197  -0.063  0.00  0.00    +0.210 HD
ENDBRANCH  11   2
BRANCH  15   6
ATOM      6  N   UNL     1      22.883  -8.407   3.816  0.00  0.00    -0.191 NA
ATOM     29  H   UNL     1      23.727  -8.651   3.286  0.00  0.00    +0.148 HD
BRANCH   6   1
ATOM      1  S   UNL     1      22.784  -8.691   5.489  0.00  0.00    +0.027 S 
ATOM      4  O   UNL     1      21.739  -7.870   6.072  0.00  0.00    -0.158 OA
ATOM      5  O   UNL     1      24.128  -8.674   6.030  0.00  0.00    -0.158 OA
ATOM     25  C   UNL     1      22.226 -10.380   5.507  0.00  0.00    +0.214 C 
ENDBRANCH   6   1
ENDBRANCH  15   6
BRANCH  13  19
ATOM     19  C   UNL     1      18.769  -6.531  -2.398  0.00  0.00    +0.078 C 
ATOM     21  C   UNL     1      19.850  -6.212  -3.415  0.00  0.00    +0.017 C 
BRANCH  19  22
ATOM      3  O   UNL     1      17.386  -4.609  -2.323  0.00  0.00    -0.275 OA
ATOM      7  N   UNL     1      16.548  -6.443  -3.477  0.00  0.00    -0.301 N 
ATOM     22  C   UNL     1      17.510  -5.768  -2.725  0.00  0.00    +0.219 C 
ATOM     23  C   UNL     1      15.297  -5.770  -3.833  0.00  0.00    +0.108 C 
ATOM     24  C   UNL     1      16.686  -7.806  -4.006  0.00  0.00    +0.108 C 
ATOM     26  C   UNL     1      14.090  -6.600  -3.403  0.00  0.00    +0.019 C 
ATOM     27  C   UNL     1      15.504  -8.675  -3.580  0.00  0.00    +0.019 C 
ATOM     28  C   UNL     1      14.173  -8.023  -3.953  0.00  0.00    +0.003 C 
ENDBRANCH  19  22
ENDBRANCH  13  19
TORSDOF 5
ENDMDL
