MODEL 1
REMARK VINA RESULT:      -6.5      0.000      0.000
REMARK  Name = 26743994
REMARK  5 active torsions:
REMARK  status: ('A' for Active; 'I' for Inactive)
REMARK    1  A    between atoms: O_1  and  C_14
REMARK    2  A    between atoms: N_3  and  C_10
REMARK    3  A    between atoms: C_7  and  C_10
REMARK    4  A    between atoms: C_11  and  C_15
REMARK    5  A    between atoms: C_16  and  C_17
REMARK                            x       y       z     vdW  Elec       q    Type
REMARK                         _______ _______ _______ _____ _____    ______ ____
ROOT
ATOM      3  N   UNL     1      12.266   8.343  19.464  0.00  0.00    -0.289 NA
ATOM     11  C   UNL     1      13.169   8.482  20.624  0.00  0.00    +0.148 C 
ATOM     12  C   UNL     1      10.903   8.417  19.988  0.00  0.00    +0.116 C 
ATOM     13  C   UNL     1      12.361   7.940  21.819  0.00  0.00    +0.061 C 
ATOM     14  C   UNL     1      11.004   7.565  21.239  0.00  0.00    +0.130 C 
ENDROOT
BRANCH  11  15
ATOM      2  O   UNL     1      14.471   6.697  19.581  0.00  0.00    -0.336 OA
ATOM      4  N   UNL     1      15.654   8.003  20.963  0.00  0.00    -0.190 NA
ATOM      5  N   UNL     1      15.779   6.197  19.564  0.00  0.00    -0.056 NA
ATOM     15  C   UNL     1      14.484   7.758  20.429  0.00  0.00    +0.245 A 
ATOM     16  C   UNL     1      16.416   7.020  20.402  0.00  0.00    +0.204 A 
BRANCH  16  17
ATOM      6  N   UNL     1      19.764   7.718  21.862  0.00  0.00    -0.263 NA
ATOM     17  C   UNL     1      17.813   6.887  20.700  0.00  0.00    +0.041 A 
ATOM     18  C   UNL     1      18.567   5.854  20.157  0.00  0.00    +0.014 A 
ATOM     19  C   UNL     1      18.453   7.785  21.540  0.00  0.00    +0.122 A 
ATOM     20  C   UNL     1      19.920   5.751  20.464  0.00  0.00    +0.020 A 
ATOM     21  C   UNL     1      20.466   6.700  21.314  0.00  0.00    +0.111 A 
ENDBRANCH  16  17
ENDBRANCH  11  15
BRANCH  14   1
ATOM      1  O   UNL     1       9.968   7.855  22.156  0.00  0.00    -0.390 OA
ATOM     22  H   UNL     1       9.197   7.317  21.907  0.00  0.00    +0.210 HD
ENDBRANCH  14   1
BRANCH   3  10
ATOM     10  C   UNL     1      12.507   9.337  18.425  0.00  0.00    +0.088 C 
BRANCH  10   7
ATOM      7  C   UNL     1      12.646   8.696  17.083  0.00  0.00    +0.003 C 
ATOM      8  C   UNL     1      13.974   8.731  16.386  0.00  0.00    +0.005 C 
ATOM      9  C   UNL     1      12.836   9.563  15.873  0.00  0.00    +0.005 C 
ENDBRANCH  10   7
ENDBRANCH   3  10
TORSDOF 5
ENDMDL
MODEL 2
REMARK VINA RESULT:      -6.4      3.428      6.944
REMARK  Name = 26743994
REMARK  5 active torsions:
REMARK  status: ('A' for Active; 'I' for Inactive)
REMARK    1  A    between atoms: O_1  and  C_14
REMARK    2  A    between atoms: N_3  and  C_10
REMARK    3  A    between atoms: C_7  and  C_10
REMARK    4  A    between atoms: C_11  and  C_15
REMARK    5  A    between atoms: C_16  and  C_17
REMARK                            x       y       z     vdW  Elec       q    Type
REMARK                         _______ _______ _______ _____ _____    ______ ____
ROOT
ATOM      3  N   UNL     1      13.478   7.656  18.879  0.00  0.00    -0.289 NA
ATOM     11  C   UNL     1      13.485   9.119  19.082  0.00  0.00    +0.148 C 
ATOM     12  C   UNL     1      13.766   7.433  17.463  0.00  0.00    +0.116 C 
ATOM     13  C   UNL     1      13.084   9.708  17.716  0.00  0.00    +0.061 C 
ATOM     14  C   UNL     1      12.918   8.502  16.801  0.00  0.00    +0.130 C 
ENDROOT
BRANCH  11  15
ATOM      2  O   UNL     1      11.597   8.676  20.569  0.00  0.00    -0.336 OA
ATOM      4  N   UNL     1      12.558  10.674  20.883  0.00  0.00    -0.190 NA
ATOM      5  N   UNL     1      10.883   9.293  21.604  0.00  0.00    -0.056 NA
ATOM     15  C   UNL     1      12.565   9.556  20.202  0.00  0.00    +0.245 A 
ATOM     16  C   UNL     1      11.510  10.466  21.731  0.00  0.00    +0.204 A 
BRANCH  16  17
ATOM      6  N   UNL     1      10.545  11.991  24.982  0.00  0.00    -0.263 NA
ATOM     17  C   UNL     1      11.115  11.452  22.695  0.00  0.00    +0.041 A 
ATOM     18  C   UNL     1      10.917  12.778  22.326  0.00  0.00    +0.014 A 
ATOM     19  C   UNL     1      10.918  11.113  24.024  0.00  0.00    +0.122 A 
ATOM     20  C   UNL     1      10.534  13.711  23.283  0.00  0.00    +0.020 A 
ATOM     21  C   UNL     1      10.363  13.271  24.586  0.00  0.00    +0.111 A 
ENDBRANCH  16  17
ENDBRANCH  11  15
BRANCH  14   1
ATOM      1  O   UNL     1      13.372   8.797  15.495  0.00  0.00    -0.390 OA
ATOM     22  H   UNL     1      13.953   9.575  15.556  0.00  0.00    +0.210 HD
ENDBRANCH  14   1
BRANCH   3  10
ATOM     10  C   UNL     1      14.414   6.951  19.746  0.00  0.00    +0.088 C 
BRANCH  10   7
ATOM      7  C   UNL     1      15.828   7.206  19.339  0.00  0.00    +0.003 C 
ATOM      8  C   UNL     1      16.771   6.048  19.195  0.00  0.00    +0.005 C 
ATOM      9  C   UNL     1      16.927   7.004  20.341  0.00  0.00    +0.005 C 
ENDBRANCH  10   7
ENDBRANCH   3  10
TORSDOF 5
ENDMDL
MODEL 3
REMARK VINA RESULT:      -6.3      3.278      6.505
REMARK  Name = 26743994
REMARK  5 active torsions:
REMARK  status: ('A' for Active; 'I' for Inactive)
REMARK    1  A    between atoms: O_1  and  C_14
REMARK    2  A    between atoms: N_3  and  C_10
REMARK    3  A    between atoms: C_7  and  C_10
REMARK    4  A    between atoms: C_11  and  C_15
REMARK    5  A    between atoms: C_16  and  C_17
REMARK                            x       y       z     vdW  Elec       q    Type
REMARK                         _______ _______ _______ _____ _____    ______ ____
ROOT
ATOM      3  N   UNL     1      13.552   9.019  18.942  0.00  0.00    -0.289 NA
ATOM     11  C   UNL     1      12.674   8.089  19.681  0.00  0.00    +0.148 C 
ATOM     12  C   UNL     1      14.663   8.219  18.428  0.00  0.00    +0.116 C 
ATOM     13  C   UNL     1      13.611   6.967  20.168  0.00  0.00    +0.061 C 
ATOM     14  C   UNL     1      14.982   7.330  19.614  0.00  0.00    +0.130 C 
ENDROOT
BRANCH  11  15
ATOM      2  O   UNL     1      10.856   8.105  21.314  0.00  0.00    -0.336 OA
ATOM      4  N   UNL     1      12.174   9.913  21.397  0.00  0.00    -0.190 NA
ATOM      5  N   UNL     1      10.342   8.914  22.335  0.00  0.00    -0.056 NA
ATOM     15  C   UNL     1      11.932   8.766  20.814  0.00  0.00    +0.245 A 
ATOM     16  C   UNL     1      11.173   9.961  22.323  0.00  0.00    +0.204 A 
BRANCH  16  17
ATOM      6  N   UNL     1      10.910  11.881  25.496  0.00  0.00    -0.263 NA
ATOM     17  C   UNL     1      11.031  11.069  23.222  0.00  0.00    +0.041 A 
ATOM     18  C   UNL     1      10.880  12.366  22.743  0.00  0.00    +0.014 A 
ATOM     19  C   UNL     1      11.040  10.882  24.595  0.00  0.00    +0.122 A 
ATOM     20  C   UNL     1      10.744  13.421  23.640  0.00  0.00    +0.020 A 
ATOM     21  C   UNL     1      10.766  13.128  24.994  0.00  0.00    +0.111 A 
ENDBRANCH  16  17
ENDBRANCH  11  15
BRANCH  14   1
ATOM      1  O   UNL     1      15.690   6.169  19.225  0.00  0.00    -0.390 OA
ATOM     22  H   UNL     1      15.700   5.564  19.987  0.00  0.00    +0.210 HD
ENDBRANCH  14   1
BRANCH   3  10
ATOM     10  C   UNL     1      12.861   9.741  17.882  0.00  0.00    +0.088 C 
BRANCH  10   7
ATOM      7  C   UNL     1      12.328   8.806  16.845  0.00  0.00    +0.003 C 
ATOM      8  C   UNL     1      11.852   9.357  15.534  0.00  0.00    +0.005 C 
ATOM      9  C   UNL     1      10.862   8.824  16.527  0.00  0.00    +0.005 C 
ENDBRANCH  10   7
ENDBRANCH   3  10
TORSDOF 5
ENDMDL
MODEL 4
REMARK VINA RESULT:      -6.2      2.829      5.756
REMARK  Name = 26743994
REMARK  5 active torsions:
REMARK  status: ('A' for Active; 'I' for Inactive)
REMARK    1  A    between atoms: O_1  and  C_14
REMARK    2  A    between atoms: N_3  and  C_10
REMARK    3  A    between atoms: C_7  and  C_10
REMARK    4  A    between atoms: C_11  and  C_15
REMARK    5  A    between atoms: C_16  and  C_17
REMARK                            x       y       z     vdW  Elec       q    Type
REMARK                         _______ _______ _______ _____ _____    ______ ____
ROOT
ATOM      3  N   UNL     1      13.282   7.853  20.123  0.00  0.00    -0.289 NA
ATOM     11  C   UNL     1      12.328   7.880  18.996  0.00  0.00    +0.148 C 
ATOM     12  C   UNL     1      12.479   7.853  21.345  0.00  0.00    +0.116 C 
ATOM     13  C   UNL     1      11.078   8.585  19.556  0.00  0.00    +0.061 C 
ATOM     14  C   UNL     1      11.408   8.874  21.014  0.00  0.00    +0.130 C 
ENDROOT
BRANCH  11  15
ATOM      2  O   UNL     1      12.608   8.001  16.571  0.00  0.00    -0.336 OA
ATOM      4  N   UNL     1      13.624   9.652  17.693  0.00  0.00    -0.190 NA
ATOM      5  N   UNL     1      13.227   8.804  15.605  0.00  0.00    -0.056 NA
ATOM     15  C   UNL     1      12.891   8.570  17.772  0.00  0.00    +0.245 A 
ATOM     16  C   UNL     1      13.805   9.755  16.344  0.00  0.00    +0.204 A 
BRANCH  16  17
ATOM      6  N   UNL     1      16.148  11.561  14.092  0.00  0.00    -0.263 NA
ATOM     17  C   UNL     1      14.568  10.823  15.767  0.00  0.00    +0.041 A 
ATOM     18  C   UNL     1      14.494  12.115  16.276  0.00  0.00    +0.014 A 
ATOM     19  C   UNL     1      15.402  10.601  14.683  0.00  0.00    +0.122 A 
ATOM     20  C   UNL     1      15.246  13.131  15.695  0.00  0.00    +0.020 A 
ATOM     21  C   UNL     1      16.050  12.805  14.615  0.00  0.00    +0.111 A 
ENDBRANCH  16  17
ENDBRANCH  11  15
BRANCH  14   1
ATOM      1  O   UNL     1      10.263   8.716  21.829  0.00  0.00    -0.390 OA
ATOM     22  H   UNL     1      10.384   7.903  22.349  0.00  0.00    +0.210 HD
ENDBRANCH  14   1
BRANCH   3  10
ATOM     10  C   UNL     1      14.201   6.722  20.072  0.00  0.00    +0.088 C 
BRANCH  10   7
ATOM      7  C   UNL     1      15.606   7.174  19.840  0.00  0.00    +0.003 C 
ATOM      8  C   UNL     1      16.600   6.213  19.260  0.00  0.00    +0.005 C 
ATOM      9  C   UNL     1      16.704   6.621  20.700  0.00  0.00    +0.005 C 
ENDBRANCH  10   7
ENDBRANCH   3  10
TORSDOF 5
ENDMDL
MODEL 5
REMARK VINA RESULT:      -5.8     31.622     32.469
REMARK  Name = 26743994
REMARK  5 active torsions:
REMARK  status: ('A' for Active; 'I' for Inactive)
REMARK    1  A    between atoms: O_1  and  C_14
REMARK    2  A    between atoms: N_3  and  C_10
REMARK    3  A    between atoms: C_7  and  C_10
REMARK    4  A    between atoms: C_11  and  C_15
REMARK    5  A    between atoms: C_16  and  C_17
REMARK                            x       y       z     vdW  Elec       q    Type
REMARK                         _______ _______ _______ _____ _____    ______ ____
ROOT
ATOM      3  N   UNL     1     -15.194   1.650  29.749  0.00  0.00    -0.289 NA
ATOM     11  C   UNL     1     -15.401   1.160  31.127  0.00  0.00    +0.148 C 
ATOM     12  C   UNL     1     -14.890   0.476  28.933  0.00  0.00    +0.116 C 
ATOM     13  C   UNL     1     -14.552  -0.122  31.220  0.00  0.00    +0.061 C 
ATOM     14  C   UNL     1     -13.944  -0.294  29.834  0.00  0.00    +0.130 C 
ENDROOT
BRANCH  11  15
ATOM      2  O   UNL     1     -15.065   1.776  33.467  0.00  0.00    -0.336 OA
ATOM      4  N   UNL     1     -14.668   3.437  32.019  0.00  0.00    -0.190 NA
ATOM      5  N   UNL     1     -14.687   2.883  34.238  0.00  0.00    -0.056 NA
ATOM     15  C   UNL     1     -15.028   2.188  32.173  0.00  0.00    +0.245 A 
ATOM     16  C   UNL     1     -14.469   3.821  33.313  0.00  0.00    +0.204 A 
BRANCH  16  17
ATOM      6  N   UNL     1     -13.495   6.775  35.351  0.00  0.00    -0.263 NA
ATOM     17  C   UNL     1     -14.052   5.152  33.647  0.00  0.00    +0.041 A 
ATOM     18  C   UNL     1     -13.802   6.096  32.657  0.00  0.00    +0.014 A 
ATOM     19  C   UNL     1     -13.885   5.538  34.967  0.00  0.00    +0.122 A 
ATOM     20  C   UNL     1     -13.398   7.379  33.012  0.00  0.00    +0.020 A 
ATOM     21  C   UNL     1     -13.261   7.665  34.361  0.00  0.00    +0.111 A 
ENDBRANCH  16  17
ENDBRANCH  11  15
BRANCH  14   1
ATOM      1  O   UNL     1     -13.878  -1.661  29.481  0.00  0.00    -0.390 OA
ATOM     22  H   UNL     1     -14.768  -2.036  29.595  0.00  0.00    +0.210 HD
ENDBRANCH  14   1
BRANCH   3  10
ATOM     10  C   UNL     1     -16.331   2.399  29.228  0.00  0.00    +0.088 C 
BRANCH  10   7
ATOM      7  C   UNL     1     -15.903   3.720  28.675  0.00  0.00    +0.003 C 
ATOM      8  C   UNL     1     -16.429   4.980  29.295  0.00  0.00    +0.005 C 
ATOM      9  C   UNL     1     -16.901   4.561  27.935  0.00  0.00    +0.005 C 
ENDBRANCH  10   7
ENDBRANCH   3  10
TORSDOF 5
ENDMDL
MODEL 6
REMARK VINA RESULT:      -5.7      3.040      6.458
REMARK  Name = 26743994
REMARK  5 active torsions:
REMARK  status: ('A' for Active; 'I' for Inactive)
REMARK    1  A    between atoms: O_1  and  C_14
REMARK    2  A    between atoms: N_3  and  C_10
REMARK    3  A    between atoms: C_7  and  C_10
REMARK    4  A    between atoms: C_11  and  C_15
REMARK    5  A    between atoms: C_16  and  C_17
REMARK                            x       y       z     vdW  Elec       q    Type
REMARK                         _______ _______ _______ _____ _____    ______ ____
ROOT
ATOM      3  N   UNL     1      14.710   7.717  19.626  0.00  0.00    -0.289 NA
ATOM     11  C   UNL     1      13.996   7.243  20.830  0.00  0.00    +0.148 C 
ATOM     12  C   UNL     1      16.070   7.188  19.717  0.00  0.00    +0.116 C 
ATOM     13  C   UNL     1      15.096   7.062  21.894  0.00  0.00    +0.061 C 
ATOM     14  C   UNL     1      16.395   7.414  21.181  0.00  0.00    +0.130 C 
ENDROOT
BRANCH  11  15
ATOM      2  O   UNL     1      11.625   7.764  21.110  0.00  0.00    -0.336 OA
ATOM      4  N   UNL     1      13.006   9.389  21.796  0.00  0.00    -0.190 NA
ATOM      5  N   UNL     1      10.806   8.798  21.581  0.00  0.00    -0.056 NA
ATOM     15  C   UNL     1      12.904   8.193  21.272  0.00  0.00    +0.245 A 
ATOM     16  C   UNL     1      11.693   9.719  21.969  0.00  0.00    +0.204 A 
BRANCH  16  17
ATOM      6  N   UNL     1      10.936  13.350  22.235  0.00  0.00    -0.263 NA
ATOM     17  C   UNL     1      11.302  10.978  22.533  0.00  0.00    +0.041 A 
ATOM     18  C   UNL     1      10.918  11.079  23.865  0.00  0.00    +0.014 A 
ATOM     19  C   UNL     1      11.293  12.133  21.767  0.00  0.00    +0.122 A 
ATOM     20  C   UNL     1      10.543  12.314  24.384  0.00  0.00    +0.020 A 
ATOM     21  C   UNL     1      10.569  13.409  23.535  0.00  0.00    +0.111 A 
ENDBRANCH  16  17
ENDBRANCH  11  15
BRANCH  14   1
ATOM      1  O   UNL     1      17.450   6.580  21.618  0.00  0.00    -0.390 OA
ATOM     22  H   UNL     1      17.050   5.786  22.015  0.00  0.00    +0.210 HD
ENDBRANCH  14   1
BRANCH   3  10
ATOM     10  C   UNL     1      14.055   7.333  18.382  0.00  0.00    +0.088 C 
BRANCH  10   7
ATOM      7  C   UNL     1      13.826   8.518  17.501  0.00  0.00    +0.003 C 
ATOM      8  C   UNL     1      13.549   9.853  18.124  0.00  0.00    +0.005 C 
ATOM      9  C   UNL     1      12.452   9.114  17.417  0.00  0.00    +0.005 C 
ENDBRANCH  10   7
ENDBRANCH   3  10
TORSDOF 5
ENDMDL
MODEL 7
REMARK VINA RESULT:      -5.6     31.840     32.923
REMARK  Name = 26743994
REMARK  5 active torsions:
REMARK  status: ('A' for Active; 'I' for Inactive)
REMARK    1  A    between atoms: O_1  and  C_14
REMARK    2  A    between atoms: N_3  and  C_10
REMARK    3  A    between atoms: C_7  and  C_10
REMARK    4  A    between atoms: C_11  and  C_15
REMARK    5  A    between atoms: C_16  and  C_17
REMARK                            x       y       z     vdW  Elec       q    Type
REMARK                         _______ _______ _______ _____ _____    ______ ____
ROOT
ATOM      3  N   UNL     1     -15.489   3.580  31.835  0.00  0.00    -0.289 NA
ATOM     11  C   UNL     1     -14.693   2.575  31.101  0.00  0.00    +0.148 C 
ATOM     12  C   UNL     1     -15.194   3.385  33.253  0.00  0.00    +0.116 C 
ATOM     13  C   UNL     1     -14.517   1.410  32.094  0.00  0.00    +0.061 C 
ATOM     14  C   UNL     1     -15.208   1.873  33.370  0.00  0.00    +0.130 C 
ENDROOT
BRANCH  11  15
ATOM      2  O   UNL     1     -15.993   0.952  29.818  0.00  0.00    -0.336 OA
ATOM      4  N   UNL     1     -15.387   2.764  28.651  0.00  0.00    -0.190 NA
ATOM      5  N   UNL     1     -16.509   0.774  28.528  0.00  0.00    -0.056 NA
ATOM     15  C   UNL     1     -15.347   2.147  29.805  0.00  0.00    +0.245 A 
ATOM     16  C   UNL     1     -16.110   1.884  27.900  0.00  0.00    +0.204 A 
BRANCH  16  17
ATOM      6  N   UNL     1     -17.214   1.319  24.394  0.00  0.00    -0.263 NA
ATOM     17  C   UNL     1     -16.418   2.143  26.523  0.00  0.00    +0.041 A 
ATOM     18  C   UNL     1     -16.237   3.408  25.974  0.00  0.00    +0.014 A 
ATOM     19  C   UNL     1     -16.905   1.142  25.698  0.00  0.00    +0.122 A 
ATOM     20  C   UNL     1     -16.545   3.630  24.636  0.00  0.00    +0.020 A 
ATOM     21  C   UNL     1     -17.025   2.562  23.895  0.00  0.00    +0.111 A 
ENDBRANCH  16  17
ENDBRANCH  11  15
BRANCH  14   1
ATOM      1  O   UNL     1     -14.503   1.428  34.512  0.00  0.00    -0.390 OA
ATOM     22  H   UNL     1     -14.765   1.997  35.257  0.00  0.00    +0.210 HD
ENDBRANCH  14   1
BRANCH   3  10
ATOM     10  C   UNL     1     -15.226   4.947  31.404  0.00  0.00    +0.088 C 
BRANCH  10   7
ATOM      7  C   UNL     1     -14.993   5.849  32.571  0.00  0.00    +0.003 C 
ATOM      8  C   UNL     1     -15.239   7.321  32.423  0.00  0.00    +0.005 C 
ATOM      9  C   UNL     1     -13.836   6.804  32.540  0.00  0.00    +0.005 C 
ENDBRANCH  10   7
ENDBRANCH   3  10
TORSDOF 5
ENDMDL
MODEL 8
REMARK VINA RESULT:      -5.6     25.609     28.390
REMARK  Name = 26743994
REMARK  5 active torsions:
REMARK  status: ('A' for Active; 'I' for Inactive)
REMARK    1  A    between atoms: O_1  and  C_14
REMARK    2  A    between atoms: N_3  and  C_10
REMARK    3  A    between atoms: C_7  and  C_10
REMARK    4  A    between atoms: C_11  and  C_15
REMARK    5  A    between atoms: C_16  and  C_17
REMARK                            x       y       z     vdW  Elec       q    Type
REMARK                         _______ _______ _______ _____ _____    ______ ____
ROOT
ATOM      3  N   UNL     1      -3.471 -10.587  14.336  0.00  0.00    -0.289 NA
ATOM     11  C   UNL     1      -3.818 -11.228  15.621  0.00  0.00    +0.148 C 
ATOM     12  C   UNL     1      -2.011 -10.576  14.260  0.00  0.00    +0.116 C 
ATOM     13  C   UNL     1      -2.616 -10.941  16.541  0.00  0.00    +0.061 C 
ATOM     14  C   UNL     1      -1.628 -10.175  15.672  0.00  0.00    +0.130 C 
ENDROOT
BRANCH  11  15
ATOM      2  O   UNL     1      -5.582  -9.539  15.702  0.00  0.00    -0.336 OA
ATOM      4  N   UNL     1      -5.900 -11.261  17.098  0.00  0.00    -0.190 NA
ATOM      5  N   UNL     1      -6.786  -9.281  16.369  0.00  0.00    -0.056 NA
ATOM     15  C   UNL     1      -5.126 -10.722  16.190  0.00  0.00    +0.245 A 
ATOM     16  C   UNL     1      -6.905 -10.341  17.174  0.00  0.00    +0.204 A 
BRANCH  16  17
ATOM      6  N   UNL     1      -8.924 -11.527  20.063  0.00  0.00    -0.263 NA
ATOM     17  C   UNL     1      -8.016 -10.512  18.065  0.00  0.00    +0.041 A 
ATOM     18  C   UNL     1      -9.227  -9.868  17.833  0.00  0.00    +0.014 A 
ATOM     19  C   UNL     1      -7.917 -11.322  19.184  0.00  0.00    +0.122 A 
ATOM     20  C   UNL     1     -10.287 -10.052  18.715  0.00  0.00    +0.020 A 
ATOM     21  C   UNL     1     -10.086 -10.884  19.805  0.00  0.00    +0.111 A 
ENDBRANCH  16  17
ENDBRANCH  11  15
BRANCH  14   1
ATOM      1  O   UNL     1      -0.298 -10.542  15.979  0.00  0.00    -0.390 OA
ATOM     22  H   UNL     1       0.148  -9.754  16.335  0.00  0.00    +0.210 HD
ENDBRANCH  14   1
BRANCH   3  10
ATOM     10  C   UNL     1      -4.074 -11.246  13.184  0.00  0.00    +0.088 C 
BRANCH  10   7
ATOM      7  C   UNL     1      -3.094 -11.391  12.067  0.00  0.00    +0.003 C 
ATOM      8  C   UNL     1      -3.315 -10.632  10.792  0.00  0.00    +0.005 C 
ATOM      9  C   UNL     1      -3.505 -12.119  10.821  0.00  0.00    +0.005 C 
ENDBRANCH  10   7
ENDBRANCH   3  10
TORSDOF 5
ENDMDL
MODEL 9
REMARK VINA RESULT:      -5.6     25.594     28.554
REMARK  Name = 26743994
REMARK  5 active torsions:
REMARK  status: ('A' for Active; 'I' for Inactive)
REMARK    1  A    between atoms: O_1  and  C_14
REMARK    2  A    between atoms: N_3  and  C_10
REMARK    3  A    between atoms: C_7  and  C_10
REMARK    4  A    between atoms: C_11  and  C_15
REMARK    5  A    between atoms: C_16  and  C_17
REMARK                            x       y       z     vdW  Elec       q    Type
REMARK                         _______ _______ _______ _____ _____    ______ ____
ROOT
ATOM      3  N   UNL     1     -11.525   9.956  20.031  0.00  0.00    -0.289 NA
ATOM     11  C   UNL     1     -12.192   8.851  19.313  0.00  0.00    +0.148 C 
ATOM     12  C   UNL     1     -10.625  10.591  19.070  0.00  0.00    +0.116 C 
ATOM     13  C   UNL     1     -11.191   8.433  18.218  0.00  0.00    +0.061 C 
ATOM     14  C   UNL     1     -10.017   9.390  18.372  0.00  0.00    +0.130 C 
ENDROOT
BRANCH  11  15
ATOM      2  O   UNL     1     -11.548   6.951  20.709  0.00  0.00    -0.336 OA
ATOM      4  N   UNL     1     -13.755   7.325  20.635  0.00  0.00    -0.190 NA
ATOM      5  N   UNL     1     -12.136   5.970  21.517  0.00  0.00    -0.056 NA
ATOM     15  C   UNL     1     -12.570   7.706  20.228  0.00  0.00    +0.245 A 
ATOM     16  C   UNL     1     -13.438   6.257  21.423  0.00  0.00    +0.204 A 
BRANCH  16  17
ATOM      6  N   UNL     1     -16.659   4.522  22.089  0.00  0.00    -0.263 NA
ATOM     17  C   UNL     1     -14.446   5.498  22.104  0.00  0.00    +0.041 A 
ATOM     18  C   UNL     1     -14.230   5.006  23.387  0.00  0.00    +0.014 A 
ATOM     19  C   UNL     1     -15.666   5.230  21.504  0.00  0.00    +0.122 A 
ATOM     20  C   UNL     1     -15.227   4.273  24.022  0.00  0.00    +0.020 A 
ATOM     21  C   UNL     1     -16.412   4.060  23.336  0.00  0.00    +0.111 A 
ENDBRANCH  16  17
ENDBRANCH  11  15
BRANCH  14   1
ATOM      1  O   UNL     1      -9.480   9.733  17.110  0.00  0.00    -0.390 OA
ATOM     22  H   UNL     1     -10.203  10.106  16.576  0.00  0.00    +0.210 HD
ENDBRANCH  14   1
BRANCH   3  10
ATOM     10  C   UNL     1     -12.461  10.907  20.617  0.00  0.00    +0.088 C 
BRANCH  10   7
ATOM      7  C   UNL     1     -12.255  11.033  22.091  0.00  0.00    +0.003 C 
ATOM      8  C   UNL     1     -13.081  10.196  23.022  0.00  0.00    +0.005 C 
ATOM      9  C   UNL     1     -13.324  11.673  22.928  0.00  0.00    +0.005 C 
ENDBRANCH  10   7
ENDBRANCH   3  10
TORSDOF 5
ENDMDL
MODEL 10
REMARK VINA RESULT:      -5.6     13.946     17.028
REMARK  Name = 26743994
REMARK  5 active torsions:
REMARK  status: ('A' for Active; 'I' for Inactive)
REMARK    1  A    between atoms: O_1  and  C_14
REMARK    2  A    between atoms: N_3  and  C_10
REMARK    3  A    between atoms: C_7  and  C_10
REMARK    4  A    between atoms: C_11  and  C_15
REMARK    5  A    between atoms: C_16  and  C_17
REMARK                            x       y       z     vdW  Elec       q    Type
REMARK                         _______ _______ _______ _____ _____    ______ ____
ROOT
ATOM      3  N   UNL     1       9.908   7.284   6.199  0.00  0.00    -0.289 NA
ATOM     11  C   UNL     1       9.157   6.386   5.298  0.00  0.00    +0.148 C 
ATOM     12  C   UNL     1       9.025   8.413   6.487  0.00  0.00    +0.116 C 
ATOM     13  C   UNL     1       8.181   7.310   4.545  0.00  0.00    +0.061 C 
ATOM     14  C   UNL     1       8.426   8.697   5.123  0.00  0.00    +0.130 C 
ENDROOT
BRANCH  11  15
ATOM      2  O   UNL     1      10.063   4.255   4.517  0.00  0.00    -0.336 OA
ATOM      4  N   UNL     1      10.856   6.041   3.423  0.00  0.00    -0.190 NA
ATOM      5  N   UNL     1      10.961   3.760   3.563  0.00  0.00    -0.056 NA
ATOM     15  C   UNL     1      10.061   5.605   4.368  0.00  0.00    +0.245 A 
ATOM     16  C   UNL     1      11.386   4.873   2.958  0.00  0.00    +0.204 A 
BRANCH  16  17
ATOM      6  N   UNL     1      13.417   6.014   0.060  0.00  0.00    -0.263 NA
ATOM     17  C   UNL     1      12.339   4.853   1.886  0.00  0.00    +0.041 A 
ATOM     18  C   UNL     1      13.093   3.716   1.619  0.00  0.00    +0.014 A 
ATOM     19  C   UNL     1      12.537   5.966   1.085  0.00  0.00    +0.122 A 
ATOM     20  C   UNL     1      14.010   3.726   0.572  0.00  0.00    +0.020 A 
ATOM     21  C   UNL     1      14.133   4.889  -0.171  0.00  0.00    +0.111 A 
ENDBRANCH  16  17
ENDBRANCH  11  15
BRANCH  14   1
ATOM      1  O   UNL     1       7.215   9.421   5.222  0.00  0.00    -0.390 OA
ATOM     22  H   UNL     1       7.360  10.291   4.812  0.00  0.00    +0.210 HD
ENDBRANCH  14   1
BRANCH   3  10
ATOM     10  C   UNL     1      10.369   6.625   7.414  0.00  0.00    +0.088 C 
BRANCH  10   7
ATOM      7  C   UNL     1       9.367   5.633   7.907  0.00  0.00    +0.003 C 
ATOM      8  C   UNL     1       9.389   5.222   9.349  0.00  0.00    +0.005 C 
ATOM      9  C   UNL     1       9.826   4.256   8.288  0.00  0.00    +0.005 C 
ENDBRANCH  10   7
ENDBRANCH   3  10
TORSDOF 5
ENDMDL
