MODEL 1
REMARK VINA RESULT:      -7.0      0.000      0.000
REMARK  Name = 11913301
REMARK  8 active torsions:
REMARK  status: ('A' for Active; 'I' for Inactive)
REMARK    1  A    between atoms: O_4  and  C_25
REMARK    2  A    between atoms: N_7  and  C_14
REMARK    3  A    between atoms: N_8  and  C_17
REMARK    4  A    between atoms: C_11  and  C_18
REMARK    5  A    between atoms: C_11  and  C_22
REMARK    6  A    between atoms: C_18  and  C_24
REMARK    7  A    between atoms: C_22  and  C_25
REMARK    8  A    between atoms: C_27  and  C_30
REMARK                            x       y       z     vdW  Elec       q    Type
REMARK                         _______ _______ _______ _____ _____    ______ ____
ROOT
ATOM      1  O   UNL     1     -12.245  -7.882  14.367  0.00  0.00    -0.370 OA
ATOM      2  O   UNL     1     -11.046  -6.248  16.740  0.00  0.00    -0.370 OA
ATOM     12  C   UNL     1     -10.920  -6.147  15.311  0.00  0.00    +0.171 C 
ATOM     13  C   UNL     1     -10.900  -7.559  14.759  0.00  0.00    +0.171 C 
ATOM     14  C   UNL     1     -12.167  -5.536  14.715  0.00  0.00    +0.130 C 
ATOM     17  C   UNL     1     -10.479  -8.409  15.934  0.00  0.00    +0.130 C 
ATOM     21  C   UNL     1     -13.085  -6.738  14.579  0.00  0.00    +0.185 C 
ATOM     23  C   UNL     1     -11.020  -7.632  17.120  0.00  0.00    +0.185 C 
ENDROOT
BRANCH  17   8
ATOM      8  N   UNL     1      -9.035  -8.481  16.001  0.00  0.00    -0.306 N 
ATOM      9  N   UNL     1      -9.098 -10.115  17.650  0.00  0.00    -0.211 NA
ATOM     10  N   UNL     1      -7.005  -9.282  16.795  0.00  0.00    -0.223 NA
ATOM     26  C   UNL     1      -8.350  -9.330  16.853  0.00  0.00    +0.216 A 
ATOM     27  C   UNL     1      -8.398 -10.930  18.467  0.00  0.00    +0.111 A 
ATOM     28  C   UNL     1      -6.369 -10.122  17.638  0.00  0.00    +0.116 A 
ATOM     29  C   UNL     1      -7.019 -10.977  18.505  0.00  0.00    +0.051 A 
ATOM     35  H   UNL     1      -8.478  -7.926  15.361  0.00  0.00    +0.149 HD
BRANCH  27  30
ATOM      6  O   UNL     1      -8.661 -12.973  19.627  0.00  0.00    -0.461 OA
ATOM     30  C   UNL     1      -9.202 -11.766  19.317  0.00  0.00    +0.153 A 
ATOM     31  C   UNL     1     -10.434 -11.622  19.911  0.00  0.00    +0.051 A 
ATOM     32  C   UNL     1     -10.666 -12.818  20.632  0.00  0.00    +0.042 A 
ATOM     33  C   UNL     1      -9.559 -13.607  20.428  0.00  0.00    +0.196 A 
ENDBRANCH  27  30
ENDBRANCH  17   8
BRANCH  14   7
ATOM      3  O   UNL     1     -13.713  -3.494  13.364  0.00  0.00    -0.276 OA
ATOM      7  N   UNL     1     -11.893  -4.939  13.429  0.00  0.00    -0.308 N 
ATOM     24  C   UNL     1     -12.696  -3.960  12.858  0.00  0.00    +0.214 C 
ATOM     34  H   UNL     1     -11.052  -5.237  12.944  0.00  0.00    +0.149 HD
BRANCH  24  18
ATOM     18  C   UNL     1     -12.163  -3.518  11.508  0.00  0.00    +0.103 C 
BRANCH  18  11
ATOM     11  C   UNL     1     -13.069  -3.939  10.350  0.00  0.00    -0.011 C 
ATOM     15  C   UNL     1     -14.344  -3.087  10.291  0.00  0.00    +0.008 C 
ATOM     16  C   UNL     1     -13.645  -5.346  10.566  0.00  0.00    +0.008 C 
ATOM     19  C   UNL     1     -15.358  -3.941   9.535  0.00  0.00    +0.001 C 
ATOM     20  C   UNL     1     -14.909  -5.393   9.712  0.00  0.00    +0.001 C 
BRANCH  11  22
ATOM     22  C   UNL     1     -12.280  -3.856   9.033  0.00  0.00    +0.127 C 
BRANCH  22  25
ATOM      5  O   UNL     1     -10.668  -5.649   9.398  0.00  0.00    -0.251 OA
ATOM     25  C   UNL     1     -10.920  -4.474   9.173  0.00  0.00    +0.305 C 
BRANCH  25   4
ATOM      4  O   UNL     1      -9.971  -3.517   9.008  0.00  0.00    -0.481 OA
ATOM     36  H   UNL     1      -9.801  -3.330   8.060  0.00  0.00    +0.295 HD
ENDBRANCH  25   4
ENDBRANCH  22  25
ENDBRANCH  11  22
ENDBRANCH  18  11
ENDBRANCH  24  18
ENDBRANCH  14   7
TORSDOF 8
ENDMDL
MODEL 2
REMARK VINA RESULT:      -7.0      6.949     11.884
REMARK  Name = 11913301
REMARK  8 active torsions:
REMARK  status: ('A' for Active; 'I' for Inactive)
REMARK    1  A    between atoms: O_4  and  C_25
REMARK    2  A    between atoms: N_7  and  C_14
REMARK    3  A    between atoms: N_8  and  C_17
REMARK    4  A    between atoms: C_11  and  C_18
REMARK    5  A    between atoms: C_11  and  C_22
REMARK    6  A    between atoms: C_18  and  C_24
REMARK    7  A    between atoms: C_22  and  C_25
REMARK    8  A    between atoms: C_27  and  C_30
REMARK                            x       y       z     vdW  Elec       q    Type
REMARK                         _______ _______ _______ _____ _____    ______ ____
ROOT
ATOM      1  O   UNL     1      -2.736 -12.923  12.820  0.00  0.00    -0.370 OA
ATOM      2  O   UNL     1      -1.778  -9.990  13.286  0.00  0.00    -0.370 OA
ATOM     12  C   UNL     1      -2.800 -10.800  13.891  0.00  0.00    +0.171 C 
ATOM     13  C   UNL     1      -3.408 -11.652  12.794  0.00  0.00    +0.171 C 
ATOM     14  C   UNL     1      -2.184 -11.804  14.838  0.00  0.00    +0.130 C 
ATOM     17  C   UNL     1      -3.074 -10.910  11.521  0.00  0.00    +0.130 C 
ATOM     21  C   UNL     1      -1.796 -12.936  13.905  0.00  0.00    +0.185 C 
ATOM     23  C   UNL     1      -1.768 -10.221  11.870  0.00  0.00    +0.185 C 
ENDROOT
BRANCH  17   8
ATOM      8  N   UNL     1      -4.098  -9.927  11.239  0.00  0.00    -0.306 N 
ATOM      9  N   UNL     1      -4.378 -10.703   9.068  0.00  0.00    -0.211 NA
ATOM     10  N   UNL     1      -5.678  -8.859   9.914  0.00  0.00    -0.223 NA
ATOM     26  C   UNL     1      -4.745  -9.825  10.020  0.00  0.00    +0.216 A 
ATOM     27  C   UNL     1      -5.030 -10.576   7.893  0.00  0.00    +0.111 A 
ATOM     28  C   UNL     1      -6.289  -8.788   8.713  0.00  0.00    +0.116 A 
ATOM     29  C   UNL     1      -6.004  -9.628   7.656  0.00  0.00    +0.051 A 
ATOM     35  H   UNL     1      -4.407  -9.303  11.976  0.00  0.00    +0.149 HD
BRANCH  27  30
ATOM      6  O   UNL     1      -3.997 -12.628   7.332  0.00  0.00    -0.461 OA
ATOM     30  C   UNL     1      -4.632 -11.515   6.879  0.00  0.00    +0.153 A 
ATOM     31  C   UNL     1      -4.750 -11.550   5.509  0.00  0.00    +0.051 A 
ATOM     32  C   UNL     1      -4.148 -12.761   5.093  0.00  0.00    +0.042 A 
ATOM     33  C   UNL     1      -3.706 -13.381   6.238  0.00  0.00    +0.196 A 
ENDBRANCH  27  30
ENDBRANCH  17   8
BRANCH  14   7
ATOM      3  O   UNL     1      -3.565 -10.172  16.791  0.00  0.00    -0.276 OA
ATOM      7  N   UNL     1      -3.141 -12.244  15.826  0.00  0.00    -0.308 N 
ATOM     24  C   UNL     1      -3.755 -11.383  16.727  0.00  0.00    +0.214 C 
ATOM     34  H   UNL     1      -3.389 -13.228  15.832  0.00  0.00    +0.149 HD
BRANCH  24  18
ATOM     18  C   UNL     1      -4.713 -12.123  17.642  0.00  0.00    +0.103 C 
BRANCH  18  11
ATOM     11  C   UNL     1      -6.172 -11.720  17.418  0.00  0.00    -0.011 C 
ATOM     15  C   UNL     1      -7.135 -12.856  17.784  0.00  0.00    +0.008 C 
ATOM     16  C   UNL     1      -6.480 -11.519  15.927  0.00  0.00    +0.008 C 
ATOM     19  C   UNL     1      -8.411 -12.564  16.999  0.00  0.00    +0.001 C 
ATOM     20  C   UNL     1      -7.990 -11.705  15.806  0.00  0.00    +0.001 C 
BRANCH  11  22
ATOM     22  C   UNL     1      -6.476 -10.447  18.226  0.00  0.00    +0.127 C 
BRANCH  22  25
ATOM      5  O   UNL     1      -6.017 -11.217  20.494  0.00  0.00    -0.251 OA
ATOM     25  C   UNL     1      -6.789 -10.772  19.658  0.00  0.00    +0.305 C 
BRANCH  25   4
ATOM      4  O   UNL     1      -8.093 -10.494  19.908  0.00  0.00    -0.481 OA
ATOM     36  H   UNL     1      -8.361 -10.774  20.810  0.00  0.00    +0.295 HD
ENDBRANCH  25   4
ENDBRANCH  22  25
ENDBRANCH  11  22
ENDBRANCH  18  11
ENDBRANCH  24  18
ENDBRANCH  14   7
TORSDOF 8
ENDMDL
MODEL 3
REMARK VINA RESULT:      -6.8      7.588     12.537
REMARK  Name = 11913301
REMARK  8 active torsions:
REMARK  status: ('A' for Active; 'I' for Inactive)
REMARK    1  A    between atoms: O_4  and  C_25
REMARK    2  A    between atoms: N_7  and  C_14
REMARK    3  A    between atoms: N_8  and  C_17
REMARK    4  A    between atoms: C_11  and  C_18
REMARK    5  A    between atoms: C_11  and  C_22
REMARK    6  A    between atoms: C_18  and  C_24
REMARK    7  A    between atoms: C_22  and  C_25
REMARK    8  A    between atoms: C_27  and  C_30
REMARK                            x       y       z     vdW  Elec       q    Type
REMARK                         _______ _______ _______ _____ _____    ______ ____
ROOT
ATOM      1  O   UNL     1      -2.969 -12.198  11.269  0.00  0.00    -0.370 OA
ATOM      2  O   UNL     1      -3.633  -9.149  11.253  0.00  0.00    -0.370 OA
ATOM     12  C   UNL     1      -4.193 -10.275  11.949  0.00  0.00    +0.171 C 
ATOM     13  C   UNL     1      -4.168 -11.453  10.994  0.00  0.00    +0.171 C 
ATOM     14  C   UNL     1      -3.286 -10.699  13.080  0.00  0.00    +0.130 C 
ATOM     17  C   UNL     1      -4.088 -10.819   9.626  0.00  0.00    +0.130 C 
ATOM     21  C   UNL     1      -2.283 -11.595  12.376  0.00  0.00    +0.185 C 
ATOM     23  C   UNL     1      -3.339  -9.528   9.900  0.00  0.00    +0.185 C 
ENDROOT
BRANCH  17   8
ATOM      8  N   UNL     1      -5.418 -10.530   9.135  0.00  0.00    -0.306 N 
ATOM      9  N   UNL     1      -4.895 -11.276   6.999  0.00  0.00    -0.211 NA
ATOM     10  N   UNL     1      -7.092 -10.439   7.529  0.00  0.00    -0.223 NA
ATOM     26  C   UNL     1      -5.819 -10.758   7.831  0.00  0.00    +0.216 A 
ATOM     27  C   UNL     1      -5.320 -11.486   5.736  0.00  0.00    +0.111 A 
ATOM     28  C   UNL     1      -7.449 -10.674   6.249  0.00  0.00    +0.116 A 
ATOM     29  C   UNL     1      -6.598 -11.201   5.300  0.00  0.00    +0.051 A 
ATOM     35  H   UNL     1      -6.124 -10.190   9.779  0.00  0.00    +0.149 HD
BRANCH  27  30
ATOM      6  O   UNL     1      -4.704 -12.142   3.549  0.00  0.00    -0.461 OA
ATOM     30  C   UNL     1      -4.329 -12.037   4.851  0.00  0.00    +0.153 A 
ATOM     31  C   UNL     1      -3.045 -12.499   5.023  0.00  0.00    +0.051 A 
ATOM     32  C   UNL     1      -2.602 -12.915   3.744  0.00  0.00    +0.042 A 
ATOM     33  C   UNL     1      -3.647 -12.678   2.882  0.00  0.00    +0.196 A 
ENDBRANCH  27  30
ENDBRANCH  17   8
BRANCH  14   7
ATOM      3  O   UNL     1      -2.508 -11.132  15.836  0.00  0.00    -0.276 OA
ATOM      7  N   UNL     1      -4.017 -11.426  14.092  0.00  0.00    -0.308 N 
ATOM     24  C   UNL     1      -3.562 -11.582  15.395  0.00  0.00    +0.214 C 
ATOM     34  H   UNL     1      -4.920 -11.810  13.831  0.00  0.00    +0.149 HD
BRANCH  24  18
ATOM     18  C   UNL     1      -4.537 -12.387  16.234  0.00  0.00    +0.103 C 
BRANCH  18  11
ATOM     11  C   UNL     1      -5.137 -11.573  17.382  0.00  0.00    -0.011 C 
ATOM     15  C   UNL     1      -4.304 -11.704  18.664  0.00  0.00    +0.008 C 
ATOM     16  C   UNL     1      -6.490 -12.143  17.832  0.00  0.00    +0.008 C 
ATOM     19  C   UNL     1      -5.267 -11.368  19.800  0.00  0.00    +0.001 C 
ATOM     20  C   UNL     1      -6.672 -11.651  19.265  0.00  0.00    +0.001 C 
BRANCH  11  22
ATOM     22  C   UNL     1      -5.267 -10.104  16.948  0.00  0.00    +0.127 C 
BRANCH  22  25
ATOM      5  O   UNL     1      -6.783 -10.292  15.047  0.00  0.00    -0.251 OA
ATOM     25  C   UNL     1      -6.529  -9.876  16.168  0.00  0.00    +0.305 C 
BRANCH  25   4
ATOM      4  O   UNL     1      -7.382  -9.117  16.902  0.00  0.00    -0.481 OA
ATOM     36  H   UNL     1      -6.904  -8.476  17.471  0.00  0.00    +0.295 HD
ENDBRANCH  25   4
ENDBRANCH  22  25
ENDBRANCH  11  22
ENDBRANCH  18  11
ENDBRANCH  24  18
ENDBRANCH  14   7
TORSDOF 8
ENDMDL
MODEL 4
REMARK VINA RESULT:      -6.7     32.958     36.540
REMARK  Name = 11913301
REMARK  8 active torsions:
REMARK  status: ('A' for Active; 'I' for Inactive)
REMARK    1  A    between atoms: O_4  and  C_25
REMARK    2  A    between atoms: N_7  and  C_14
REMARK    3  A    between atoms: N_8  and  C_17
REMARK    4  A    between atoms: C_11  and  C_18
REMARK    5  A    between atoms: C_11  and  C_22
REMARK    6  A    between atoms: C_18  and  C_24
REMARK    7  A    between atoms: C_22  and  C_25
REMARK    8  A    between atoms: C_27  and  C_30
REMARK                            x       y       z     vdW  Elec       q    Type
REMARK                         _______ _______ _______ _____ _____    ______ ____
ROOT
ATOM      1  O   UNL     1      22.667   7.891  22.009  0.00  0.00    -0.370 OA
ATOM      2  O   UNL     1      20.726   5.855  23.361  0.00  0.00    -0.370 OA
ATOM     12  C   UNL     1      21.908   5.703  22.557  0.00  0.00    +0.171 C 
ATOM     13  C   UNL     1      21.881   6.796  21.506  0.00  0.00    +0.171 C 
ATOM     14  C   UNL     1      23.143   6.009  23.373  0.00  0.00    +0.130 C 
ATOM     17  C   UNL     1      20.426   7.193  21.422  0.00  0.00    +0.130 C 
ATOM     21  C   UNL     1      23.233   7.520  23.275  0.00  0.00    +0.185 C 
ATOM     23  C   UNL     1      19.923   6.918  22.827  0.00  0.00    +0.185 C 
ENDROOT
BRANCH  17   8
ATOM      8  N   UNL     1      19.737   6.347  20.471  0.00  0.00    -0.306 N 
ATOM      9  N   UNL     1      17.771   7.568  20.665  0.00  0.00    -0.211 NA
ATOM     10  N   UNL     1      17.920   5.664  19.196  0.00  0.00    -0.223 NA
ATOM     26  C   UNL     1      18.418   6.535  20.095  0.00  0.00    +0.216 A 
ATOM     27  C   UNL     1      16.488   7.722  20.276  0.00  0.00    +0.111 A 
ATOM     28  C   UNL     1      16.633   5.877  18.852  0.00  0.00    +0.116 A 
ATOM     29  C   UNL     1      15.860   6.899  19.363  0.00  0.00    +0.051 A 
ATOM     35  H   UNL     1      20.245   5.604  20.005  0.00  0.00    +0.149 HD
BRANCH  27  30
ATOM      6  O   UNL     1      15.111   8.527  22.021  0.00  0.00    -0.461 OA
ATOM     30  C   UNL     1      15.801   8.826  20.890  0.00  0.00    +0.153 A 
ATOM     31  C   UNL     1      15.676  10.162  20.587  0.00  0.00    +0.051 A 
ATOM     32  C   UNL     1      14.855  10.720  21.596  0.00  0.00    +0.042 A 
ATOM     33  C   UNL     1      14.538   9.685  22.445  0.00  0.00    +0.196 A 
ENDBRANCH  27  30
ENDBRANCH  17   8
BRANCH  14   7
ATOM      3  O   UNL     1      24.852   4.038  24.630  0.00  0.00    -0.276 OA
ATOM      7  N   UNL     1      24.311   5.376  22.808  0.00  0.00    -0.308 N 
ATOM     24  C   UNL     1      25.073   4.436  23.490  0.00  0.00    +0.214 C 
ATOM     34  H   UNL     1      24.559   5.618  21.853  0.00  0.00    +0.149 HD
BRANCH  24  18
ATOM     18  C   UNL     1      26.236   3.943  22.649  0.00  0.00    +0.103 C 
BRANCH  18  11
ATOM     11  C   UNL     1      25.888   2.693  21.838  0.00  0.00    -0.011 C 
ATOM     15  C   UNL     1      24.407   2.319  21.985  0.00  0.00    +0.008 C 
ATOM     16  C   UNL     1      26.581   1.444  22.400  0.00  0.00    +0.008 C 
ATOM     19  C   UNL     1      24.338   0.831  21.649  0.00  0.00    +0.001 C 
ATOM     20  C   UNL     1      25.735   0.269  21.917  0.00  0.00    +0.001 C 
BRANCH  11  22
ATOM     22  C   UNL     1      26.263   2.923  20.365  0.00  0.00    +0.127 C 
BRANCH  22  25
ATOM      5  O   UNL     1      24.876   4.857  19.832  0.00  0.00    -0.251 OA
ATOM     25  C   UNL     1      25.194   3.692  19.644  0.00  0.00    +0.305 C 
BRANCH  25   4
ATOM      4  O   UNL     1      24.607   2.889  18.720  0.00  0.00    -0.481 OA
ATOM     36  H   UNL     1      24.320   2.034  19.109  0.00  0.00    +0.295 HD
ENDBRANCH  25   4
ENDBRANCH  22  25
ENDBRANCH  11  22
ENDBRANCH  18  11
ENDBRANCH  24  18
ENDBRANCH  14   7
TORSDOF 8
ENDMDL
MODEL 5
REMARK VINA RESULT:      -6.5      7.429      9.300
REMARK  Name = 11913301
REMARK  8 active torsions:
REMARK  status: ('A' for Active; 'I' for Inactive)
REMARK    1  A    between atoms: O_4  and  C_25
REMARK    2  A    between atoms: N_7  and  C_14
REMARK    3  A    between atoms: N_8  and  C_17
REMARK    4  A    between atoms: C_11  and  C_18
REMARK    5  A    between atoms: C_11  and  C_22
REMARK    6  A    between atoms: C_18  and  C_24
REMARK    7  A    between atoms: C_22  and  C_25
REMARK    8  A    between atoms: C_27  and  C_30
REMARK                            x       y       z     vdW  Elec       q    Type
REMARK                         _______ _______ _______ _____ _____    ______ ____
ROOT
ATOM      1  O   UNL     1      -6.783 -10.334  16.480  0.00  0.00    -0.370 OA
ATOM      2  O   UNL     1      -5.141 -10.702  19.108  0.00  0.00    -0.370 OA
ATOM     12  C   UNL     1      -5.140 -11.384  17.843  0.00  0.00    +0.171 C 
ATOM     13  C   UNL     1      -6.578 -11.449  17.365  0.00  0.00    +0.171 C 
ATOM     14  C   UNL     1      -4.442 -10.549  16.795  0.00  0.00    +0.130 C 
ATOM     17  C   UNL     1      -7.395 -11.275  18.624  0.00  0.00    +0.130 C 
ATOM     21  C   UNL     1      -5.547  -9.620  16.328  0.00  0.00    +0.185 C 
ATOM     23  C   UNL     1      -6.495 -10.413  19.489  0.00  0.00    +0.185 C 
ENDROOT
BRANCH  17   8
ATOM      8  N   UNL     1      -7.612 -12.560  19.254  0.00  0.00    -0.306 N 
ATOM      9  N   UNL     1      -9.765 -11.982  19.905  0.00  0.00    -0.211 NA
ATOM     10  N   UNL     1      -8.839 -14.146  20.425  0.00  0.00    -0.223 NA
ATOM     26  C   UNL     1      -8.790 -12.911  19.890  0.00  0.00    +0.216 A 
ATOM     27  C   UNL     1     -10.899 -12.358  20.533  0.00  0.00    +0.111 A 
ATOM     28  C   UNL     1     -10.001 -14.454  21.037  0.00  0.00    +0.116 A 
ATOM     29  C   UNL     1     -11.076 -13.593  21.123  0.00  0.00    +0.051 A 
ATOM     35  H   UNL     1      -6.894 -13.273  19.192  0.00  0.00    +0.149 HD
BRANCH  27  30
ATOM      6  O   UNL     1     -13.133 -11.774  21.044  0.00  0.00    -0.461 OA
ATOM     30  C   UNL     1     -11.936 -11.362  20.549  0.00  0.00    +0.153 A 
ATOM     31  C   UNL     1     -12.001 -10.042  20.166  0.00  0.00    +0.051 A 
ATOM     32  C   UNL     1     -13.322  -9.617  20.443  0.00  0.00    +0.042 A 
ATOM     33  C   UNL     1     -13.971 -10.706  20.976  0.00  0.00    +0.196 A 
ENDBRANCH  27  30
ENDBRANCH  17   8
BRANCH  14   7
ATOM      3  O   UNL     1      -1.965 -10.232  15.329  0.00  0.00    -0.276 OA
ATOM      7  N   UNL     1      -3.955 -11.370  15.712  0.00  0.00    -0.308 N 
ATOM     24  C   UNL     1      -2.747 -11.140  15.065  0.00  0.00    +0.214 C 
ATOM     34  H   UNL     1      -4.520 -12.170  15.441  0.00  0.00    +0.149 HD
BRANCH  24  18
ATOM     18  C   UNL     1      -2.495 -12.162  13.972  0.00  0.00    +0.103 C 
BRANCH  18  11
ATOM     11  C   UNL     1      -2.896 -11.653  12.586  0.00  0.00    -0.011 C 
ATOM     15  C   UNL     1      -1.835 -10.712  12.002  0.00  0.00    +0.008 C 
ATOM     16  C   UNL     1      -4.124 -10.734  12.656  0.00  0.00    +0.008 C 
ATOM     19  C   UNL     1      -2.580  -9.864  10.973  0.00  0.00    +0.001 C 
ATOM     20  C   UNL     1      -4.051  -9.878  11.394  0.00  0.00    +0.001 C 
BRANCH  11  22
ATOM     22  C   UNL     1      -3.150 -12.854  11.660  0.00  0.00    +0.127 C 
BRANCH  22  25
ATOM      5  O   UNL     1      -3.853 -14.777  12.983  0.00  0.00    -0.251 OA
ATOM     25  C   UNL     1      -2.984 -14.153  12.392  0.00  0.00    +0.305 C 
BRANCH  25   4
ATOM      4  O   UNL     1      -1.691 -14.556  12.307  0.00  0.00    -0.481 OA
ATOM     36  H   UNL     1      -1.172 -14.289  13.095  0.00  0.00    +0.295 HD
ENDBRANCH  25   4
ENDBRANCH  22  25
ENDBRANCH  11  22
ENDBRANCH  18  11
ENDBRANCH  24  18
ENDBRANCH  14   7
TORSDOF 8
ENDMDL
MODEL 6
REMARK VINA RESULT:      -6.5     26.355     29.637
REMARK  Name = 11913301
REMARK  8 active torsions:
REMARK  status: ('A' for Active; 'I' for Inactive)
REMARK    1  A    between atoms: O_4  and  C_25
REMARK    2  A    between atoms: N_7  and  C_14
REMARK    3  A    between atoms: N_8  and  C_17
REMARK    4  A    between atoms: C_11  and  C_18
REMARK    5  A    between atoms: C_11  and  C_22
REMARK    6  A    between atoms: C_18  and  C_24
REMARK    7  A    between atoms: C_22  and  C_25
REMARK    8  A    between atoms: C_27  and  C_30
REMARK                            x       y       z     vdW  Elec       q    Type
REMARK                         _______ _______ _______ _____ _____    ______ ____
ROOT
ATOM      1  O   UNL     1      11.493   8.160   0.921  0.00  0.00    -0.370 OA
ATOM      2  O   UNL     1       8.912   8.667  -0.758  0.00  0.00    -0.370 OA
ATOM     12  C   UNL     1       9.240   7.735   0.287  0.00  0.00    +0.171 C 
ATOM     13  C   UNL     1      10.683   7.319   0.082  0.00  0.00    +0.171 C 
ATOM     14  C   UNL     1       9.244   8.430   1.629  0.00  0.00    +0.130 C 
ATOM     17  C   UNL     1      10.952   7.618  -1.374  0.00  0.00    +0.130 C 
ATOM     21  C   UNL     1      10.638   9.027   1.682  0.00  0.00    +0.185 C 
ATOM     23  C   UNL     1      10.031   8.792  -1.649  0.00  0.00    +0.185 C 
ENDROOT
BRANCH  17   8
ATOM      8  N   UNL     1      10.575   6.484  -2.190  0.00  0.00    -0.306 N 
ATOM      9  N   UNL     1      12.102   5.092  -1.131  0.00  0.00    -0.211 NA
ATOM     10  N   UNL     1      10.684   4.276  -2.900  0.00  0.00    -0.223 NA
ATOM     26  C   UNL     1      11.146   5.230  -2.069  0.00  0.00    +0.216 A 
ATOM     27  C   UNL     1      12.637   3.857  -1.040  0.00  0.00    +0.111 A 
ATOM     28  C   UNL     1      11.263   3.066  -2.755  0.00  0.00    +0.116 A 
ATOM     29  C   UNL     1      12.252   2.794  -1.833  0.00  0.00    +0.051 A 
ATOM     35  H   UNL     1       9.818   6.581  -2.858  0.00  0.00    +0.149 HD
BRANCH  27  30
ATOM      6  O   UNL     1      14.930   3.925  -0.469  0.00  0.00    -0.461 OA
ATOM     30  C   UNL     1      13.659   3.715  -0.038  0.00  0.00    +0.153 A 
ATOM     31  C   UNL     1      13.648   3.407   1.303  0.00  0.00    +0.051 A 
ATOM     32  C   UNL     1      15.000   3.427   1.722  0.00  0.00    +0.042 A 
ATOM     33  C   UNL     1      15.741   3.748   0.609  0.00  0.00    +0.196 A 
ENDBRANCH  27  30
ENDBRANCH  17   8
BRANCH  14   7
ATOM      3  O   UNL     1       7.756   8.863   4.075  0.00  0.00    -0.276 OA
ATOM      7  N   UNL     1       9.036   7.489   2.704  0.00  0.00    -0.308 N 
ATOM     24  C   UNL     1       8.304   7.788   3.846  0.00  0.00    +0.214 C 
ATOM     34  H   UNL     1       9.425   6.557   2.593  0.00  0.00    +0.149 HD
BRANCH  24  18
ATOM     18  C   UNL     1       8.251   6.609   4.800  0.00  0.00    +0.103 C 
BRANCH  18  11
ATOM     11  C   UNL     1       9.107   6.825   6.050  0.00  0.00    -0.011 C 
ATOM     15  C   UNL     1       9.324   5.515   6.818  0.00  0.00    +0.008 C 
ATOM     16  C   UNL     1       8.376   7.681   7.094  0.00  0.00    +0.008 C 
ATOM     19  C   UNL     1       9.648   5.942   8.248  0.00  0.00    +0.001 C 
ATOM     20  C   UNL     1       9.038   7.334   8.425  0.00  0.00    +0.001 C 
BRANCH  11  22
ATOM     22  C   UNL     1      10.445   7.463   5.644  0.00  0.00    +0.127 C 
BRANCH  22  25
ATOM      5  O   UNL     1      11.350   5.818   4.089  0.00  0.00    -0.251 OA
ATOM     25  C   UNL     1      11.413   6.430   5.144  0.00  0.00    +0.305 C 
BRANCH  25   4
ATOM      4  O   UNL     1      12.403   6.263   6.057  0.00  0.00    -0.481 OA
ATOM     36  H   UNL     1      12.121   6.533   6.957  0.00  0.00    +0.295 HD
ENDBRANCH  25   4
ENDBRANCH  22  25
ENDBRANCH  11  22
ENDBRANCH  18  11
ENDBRANCH  24  18
ENDBRANCH  14   7
TORSDOF 8
ENDMDL
MODEL 7
REMARK VINA RESULT:      -6.5     30.163     33.732
REMARK  Name = 11913301
REMARK  8 active torsions:
REMARK  status: ('A' for Active; 'I' for Inactive)
REMARK    1  A    between atoms: O_4  and  C_25
REMARK    2  A    between atoms: N_7  and  C_14
REMARK    3  A    between atoms: N_8  and  C_17
REMARK    4  A    between atoms: C_11  and  C_18
REMARK    5  A    between atoms: C_11  and  C_22
REMARK    6  A    between atoms: C_18  and  C_24
REMARK    7  A    between atoms: C_22  and  C_25
REMARK    8  A    between atoms: C_27  and  C_30
REMARK                            x       y       z     vdW  Elec       q    Type
REMARK                         _______ _______ _______ _____ _____    ______ ____
ROOT
ATOM      1  O   UNL     1      18.593  -9.036  -2.380  0.00  0.00    -0.370 OA
ATOM      2  O   UNL     1      21.179  -8.048  -0.940  0.00  0.00    -0.370 OA
ATOM     12  C   UNL     1      19.825  -8.251  -0.502  0.00  0.00    +0.171 C 
ATOM     13  C   UNL     1      18.916  -7.843  -1.644  0.00  0.00    +0.171 C 
ATOM     14  C   UNL     1      19.547  -9.726  -0.320  0.00  0.00    +0.130 C 
ATOM     17  C   UNL     1      19.769  -6.924  -2.486  0.00  0.00    +0.130 C 
ATOM     21  C   UNL     1      19.190 -10.166  -1.728  0.00  0.00    +0.185 C 
ATOM     23  C   UNL     1      21.170  -7.459  -2.249  0.00  0.00    +0.185 C 
ENDROOT
BRANCH  17   8
ATOM      8  N   UNL     1      19.664  -5.566  -1.999  0.00  0.00    -0.306 N 
ATOM      9  N   UNL     1      17.609  -5.253  -3.033  0.00  0.00    -0.211 NA
ATOM     10  N   UNL     1      18.638  -3.498  -1.742  0.00  0.00    -0.223 NA
ATOM     26  C   UNL     1      18.590  -4.736  -2.270  0.00  0.00    +0.216 A 
ATOM     27  C   UNL     1      16.577  -4.418  -3.278  0.00  0.00    +0.111 A 
ATOM     28  C   UNL     1      17.575  -2.717  -2.026  0.00  0.00    +0.116 A 
ATOM     29  C   UNL     1      16.506  -3.127  -2.796  0.00  0.00    +0.051 A 
ATOM     35  H   UNL     1      20.381  -5.201  -1.381  0.00  0.00    +0.149 HD
BRANCH  27  30
ATOM      6  O   UNL     1      15.853  -5.164  -5.401  0.00  0.00    -0.461 OA
ATOM     30  C   UNL     1      15.533  -4.974  -4.095  0.00  0.00    +0.153 A 
ATOM     31  C   UNL     1      14.239  -5.373  -3.852  0.00  0.00    +0.051 A 
ATOM     32  C   UNL     1      13.731  -5.837  -5.089  0.00  0.00    +0.042 A 
ATOM     33  C   UNL     1      14.751  -5.689  -6.000  0.00  0.00    +0.196 A 
ENDBRANCH  27  30
ENDBRANCH  17   8
BRANCH  14   7
ATOM      3  O   UNL     1      19.661 -10.911   2.319  0.00  0.00    -0.276 OA
ATOM      7  N   UNL     1      18.447  -9.941   0.590  0.00  0.00    -0.308 N 
ATOM     24  C   UNL     1      18.599 -10.521   1.844  0.00  0.00    +0.214 C 
ATOM     34  H   UNL     1      17.528  -9.621   0.299  0.00  0.00    +0.149 HD
BRANCH  24  18
ATOM     18  C   UNL     1      17.275 -10.617   2.579  0.00  0.00    +0.103 C 
BRANCH  18  11
ATOM     11  C   UNL     1      16.803 -12.061   2.756  0.00  0.00    -0.011 C 
ATOM     15  C   UNL     1      15.303 -12.132   3.068  0.00  0.00    +0.008 C 
ATOM     16  C   UNL     1      17.412 -12.704   4.011  0.00  0.00    +0.008 C 
ATOM     19  C   UNL     1      15.105 -13.474   3.770  0.00  0.00    +0.001 C 
ATOM     20  C   UNL     1      16.461 -13.840   4.376  0.00  0.00    +0.001 C 
BRANCH  11  22
ATOM     22  C   UNL     1      17.150 -12.867   1.494  0.00  0.00    +0.127 C 
BRANCH  22  25
ATOM      5  O   UNL     1      15.974 -11.635  -0.251  0.00  0.00    -0.251 OA
ATOM     25  C   UNL     1      16.134 -12.649   0.412  0.00  0.00    +0.305 C 
BRANCH  25   4
ATOM      4  O   UNL     1      15.387 -13.773   0.262  0.00  0.00    -0.481 OA
ATOM     36  H   UNL     1      15.626 -14.461   0.920  0.00  0.00    +0.295 HD
ENDBRANCH  25   4
ENDBRANCH  22  25
ENDBRANCH  11  22
ENDBRANCH  18  11
ENDBRANCH  24  18
ENDBRANCH  14   7
TORSDOF 8
ENDMDL
MODEL 8
REMARK VINA RESULT:      -6.5     26.565     29.806
REMARK  Name = 11913301
REMARK  8 active torsions:
REMARK  status: ('A' for Active; 'I' for Inactive)
REMARK    1  A    between atoms: O_4  and  C_25
REMARK    2  A    between atoms: N_7  and  C_14
REMARK    3  A    between atoms: N_8  and  C_17
REMARK    4  A    between atoms: C_11  and  C_18
REMARK    5  A    between atoms: C_11  and  C_22
REMARK    6  A    between atoms: C_18  and  C_24
REMARK    7  A    between atoms: C_22  and  C_25
REMARK    8  A    between atoms: C_27  and  C_30
REMARK                            x       y       z     vdW  Elec       q    Type
REMARK                         _______ _______ _______ _____ _____    ______ ____
ROOT
ATOM      1  O   UNL     1      12.506   6.956   0.664  0.00  0.00    -0.370 OA
ATOM      2  O   UNL     1      14.749   5.766   2.480  0.00  0.00    -0.370 OA
ATOM     12  C   UNL     1      13.679   5.176   1.721  0.00  0.00    +0.171 C 
ATOM     13  C   UNL     1      12.487   6.107   1.825  0.00  0.00    +0.171 C 
ATOM     14  C   UNL     1      14.017   5.175   0.248  0.00  0.00    +0.130 C 
ATOM     17  C   UNL     1      12.757   6.917   3.071  0.00  0.00    +0.130 C 
ATOM     21  C   UNL     1      13.597   6.567  -0.184  0.00  0.00    +0.185 C 
ATOM     23  C   UNL     1      14.273   6.960   3.118  0.00  0.00    +0.185 C 
ENDROOT
BRANCH  17   8
ATOM      8  N   UNL     1      12.240   6.227   4.232  0.00  0.00    -0.306 N 
ATOM      9  N   UNL     1      10.172   7.267   4.049  0.00  0.00    -0.211 NA
ATOM     10  N   UNL     1      10.622   5.682   5.807  0.00  0.00    -0.223 NA
ATOM     26  C   UNL     1      10.956   6.400   4.718  0.00  0.00    +0.216 A 
ATOM     27  C   UNL     1       8.927   7.412   4.548  0.00  0.00    +0.111 A 
ATOM     28  C   UNL     1       9.364   5.876   6.253  0.00  0.00    +0.116 A 
ATOM     29  C   UNL     1       8.463   6.736   5.658  0.00  0.00    +0.051 A 
ATOM     35  H   UNL     1      12.817   5.536   4.700  0.00  0.00    +0.149 HD
BRANCH  27  30
ATOM      6  O   UNL     1       8.239   8.330   2.481  0.00  0.00    -0.461 OA
ATOM     30  C   UNL     1       8.095   8.340   3.832  0.00  0.00    +0.153 A 
ATOM     31  C   UNL     1       7.153   9.269   4.209  0.00  0.00    +0.051 A 
ATOM     32  C   UNL     1       6.689   9.869   3.014  0.00  0.00    +0.042 A 
ATOM     33  C   UNL     1       7.380   9.263   1.991  0.00  0.00    +0.196 A 
ENDBRANCH  27  30
ENDBRANCH  17   8
BRANCH  14   7
ATOM      3  O   UNL     1      14.415   4.282  -2.477  0.00  0.00    -0.276 OA
ATOM      7  N   UNL     1      13.271   4.160  -0.458  0.00  0.00    -0.308 N 
ATOM     24  C   UNL     1      13.536   3.796  -1.772  0.00  0.00    +0.214 C 
ATOM     34  H   UNL     1      12.540   3.675   0.054  0.00  0.00    +0.149 HD
BRANCH  24  18
ATOM     18  C   UNL     1      12.596   2.704  -2.249  0.00  0.00    +0.103 C 
BRANCH  18  11
ATOM     11  C   UNL     1      11.506   3.232  -3.184  0.00  0.00    -0.011 C 
ATOM     15  C   UNL     1      10.281   2.309  -3.200  0.00  0.00    +0.008 C 
ATOM     16  C   UNL     1      11.951   3.184  -4.653  0.00  0.00    +0.008 C 
ATOM     19  C   UNL     1       9.581   2.602  -4.525  0.00  0.00    +0.001 C 
ATOM     20  C   UNL     1      10.655   3.163  -5.459  0.00  0.00    +0.001 C 
BRANCH  11  22
ATOM     22  C   UNL     1      11.126   4.661  -2.763  0.00  0.00    +0.127 C 
BRANCH  22  25
ATOM      5  O   UNL     1      10.283   4.302  -0.503  0.00  0.00    -0.251 OA
ATOM     25  C   UNL     1      10.107   4.651  -1.661  0.00  0.00    +0.305 C 
BRANCH  25   4
ATOM      4  O   UNL     1       8.919   5.099  -2.142  0.00  0.00    -0.481 OA
ATOM     36  H   UNL     1       8.986   5.378  -3.080  0.00  0.00    +0.295 HD
ENDBRANCH  25   4
ENDBRANCH  22  25
ENDBRANCH  11  22
ENDBRANCH  18  11
ENDBRANCH  24  18
ENDBRANCH  14   7
TORSDOF 8
ENDMDL
MODEL 9
REMARK VINA RESULT:      -6.4     26.729     29.468
REMARK  Name = 11913301
REMARK  8 active torsions:
REMARK  status: ('A' for Active; 'I' for Inactive)
REMARK    1  A    between atoms: O_4  and  C_25
REMARK    2  A    between atoms: N_7  and  C_14
REMARK    3  A    between atoms: N_8  and  C_17
REMARK    4  A    between atoms: C_11  and  C_18
REMARK    5  A    between atoms: C_11  and  C_22
REMARK    6  A    between atoms: C_18  and  C_24
REMARK    7  A    between atoms: C_22  and  C_25
REMARK    8  A    between atoms: C_27  and  C_30
REMARK                            x       y       z     vdW  Elec       q    Type
REMARK                         _______ _______ _______ _____ _____    ______ ____
ROOT
ATOM      1  O   UNL     1      10.761   5.763   6.053  0.00  0.00    -0.370 OA
ATOM      2  O   UNL     1       8.793   7.081   4.022  0.00  0.00    -0.370 OA
ATOM     12  C   UNL     1      10.098   6.494   3.889  0.00  0.00    +0.171 C 
ATOM     13  C   UNL     1      10.886   6.860   5.131  0.00  0.00    +0.171 C 
ATOM     14  C   UNL     1      10.004   4.986   3.944  0.00  0.00    +0.130 C 
ATOM     17  C   UNL     1      10.180   8.081   5.671  0.00  0.00    +0.130 C 
ATOM     21  C   UNL     1      10.001   4.714   5.436  0.00  0.00    +0.185 C 
ATOM     23  C   UNL     1       8.746   7.860   5.227  0.00  0.00    +0.185 C 
ENDROOT
BRANCH  17   8
ATOM      8  N   UNL     1      10.715   9.275   5.055  0.00  0.00    -0.306 N 
ATOM      9  N   UNL     1      10.083  10.601   6.853  0.00  0.00    -0.211 NA
ATOM     10  N   UNL     1      11.213  11.541   4.943  0.00  0.00    -0.223 NA
ATOM     26  C   UNL     1      10.668  10.527   5.643  0.00  0.00    +0.216 A 
ATOM     27  C   UNL     1      10.055  11.836   7.398  0.00  0.00    +0.111 A 
ATOM     28  C   UNL     1      11.149  12.746   5.546  0.00  0.00    +0.116 A 
ATOM     29  C   UNL     1      10.578  12.956   6.784  0.00  0.00    +0.051 A 
ATOM     35  H   UNL     1      11.201   9.204   4.168  0.00  0.00    +0.149 HD
BRANCH  27  30
ATOM      6  O   UNL     1       8.407  12.800   8.792  0.00  0.00    -0.461 OA
ATOM     30  C   UNL     1       9.428  11.910   8.690  0.00  0.00    +0.153 A 
ATOM     31  C   UNL     1       9.628  11.266   9.889  0.00  0.00    +0.051 A 
ATOM     32  C   UNL     1       8.670  11.795  10.785  0.00  0.00    +0.042 A 
ATOM     33  C   UNL     1       7.950  12.724  10.070  0.00  0.00    +0.196 A 
ENDBRANCH  27  30
ENDBRANCH  17   8
BRANCH  14   7
ATOM      3  O   UNL     1      10.085   3.764   1.320  0.00  0.00    -0.276 OA
ATOM      7  N   UNL     1      11.140   4.369   3.301  0.00  0.00    -0.308 N 
ATOM     24  C   UNL     1      11.084   3.805   2.033  0.00  0.00    +0.214 C 
ATOM     34  H   UNL     1      12.024   4.381   3.801  0.00  0.00    +0.149 HD
BRANCH  24  18
ATOM     18  C   UNL     1      12.427   3.235   1.615  0.00  0.00    +0.103 C 
BRANCH  18  11
ATOM     11  C   UNL     1      12.956   3.860   0.323  0.00  0.00    -0.011 C 
ATOM     15  C   UNL     1      12.387   5.268   0.102  0.00  0.00    +0.008 C 
ATOM     16  C   UNL     1      12.436   3.118  -0.917  0.00  0.00    +0.008 C 
ATOM     19  C   UNL     1      12.502   5.512  -1.401  0.00  0.00    +0.001 C 
ATOM     20  C   UNL     1      12.533   4.130  -2.055  0.00  0.00    +0.001 C 
BRANCH  11  22
ATOM     22  C   UNL     1      14.492   3.877   0.359  0.00  0.00    +0.127 C 
BRANCH  22  25
ATOM      5  O   UNL     1      14.931   5.407   2.206  0.00  0.00    -0.251 OA
ATOM     25  C   UNL     1      15.001   4.293   1.708  0.00  0.00    +0.305 C 
BRANCH  25   4
ATOM      4  O   UNL     1      15.570   3.226   2.325  0.00  0.00    -0.481 OA
ATOM     36  H   UNL     1      15.879   3.448   3.229  0.00  0.00    +0.295 HD
ENDBRANCH  25   4
ENDBRANCH  22  25
ENDBRANCH  11  22
ENDBRANCH  18  11
ENDBRANCH  24  18
ENDBRANCH  14   7
TORSDOF 8
ENDMDL
MODEL 10
REMARK VINA RESULT:      -6.4      6.804     11.960
REMARK  Name = 11913301
REMARK  8 active torsions:
REMARK  status: ('A' for Active; 'I' for Inactive)
REMARK    1  A    between atoms: O_4  and  C_25
REMARK    2  A    between atoms: N_7  and  C_14
REMARK    3  A    between atoms: N_8  and  C_17
REMARK    4  A    between atoms: C_11  and  C_18
REMARK    5  A    between atoms: C_11  and  C_22
REMARK    6  A    between atoms: C_18  and  C_24
REMARK    7  A    between atoms: C_22  and  C_25
REMARK    8  A    between atoms: C_27  and  C_30
REMARK                            x       y       z     vdW  Elec       q    Type
REMARK                         _______ _______ _______ _____ _____    ______ ____
ROOT
ATOM      1  O   UNL     1      -3.018 -12.856  12.667  0.00  0.00    -0.370 OA
ATOM      2  O   UNL     1      -1.887  -9.953  12.856  0.00  0.00    -0.370 OA
ATOM     12  C   UNL     1      -2.835 -10.694  13.643  0.00  0.00    +0.171 C 
ATOM     13  C   UNL     1      -3.636 -11.557  12.689  0.00  0.00    +0.171 C 
ATOM     14  C   UNL     1      -2.120 -11.689  14.528  0.00  0.00    +0.130 C 
ATOM     17  C   UNL     1      -3.474 -10.878  11.350  0.00  0.00    +0.130 C 
ATOM     21  C   UNL     1      -1.924 -12.871  13.596  0.00  0.00    +0.185 C 
ATOM     23  C   UNL     1      -2.103 -10.236  11.465  0.00  0.00    +0.185 C 
ENDROOT
BRANCH  17   8
ATOM      8  N   UNL     1      -4.489  -9.861  11.184  0.00  0.00    -0.306 N 
ATOM      9  N   UNL     1      -4.824 -10.423   8.956  0.00  0.00    -0.211 NA
ATOM     10  N   UNL     1      -6.082  -8.653  10.001  0.00  0.00    -0.223 NA
ATOM     26  C   UNL     1      -5.161  -9.636   9.995  0.00  0.00    +0.216 A 
ATOM     27  C   UNL     1      -5.498 -10.177   7.813  0.00  0.00    +0.111 A 
ATOM     28  C   UNL     1      -6.716  -8.461   8.826  0.00  0.00    +0.116 A 
ATOM     29  C   UNL     1      -6.464  -9.200   7.688  0.00  0.00    +0.051 A 
ATOM     35  H   UNL     1      -4.776  -9.307  11.984  0.00  0.00    +0.149 HD
BRANCH  27  30
ATOM      6  O   UNL     1      -5.813 -10.791   5.551  0.00  0.00    -0.461 OA
ATOM     30  C   UNL     1      -5.134 -11.019   6.706  0.00  0.00    +0.153 A 
ATOM     31  C   UNL     1      -4.225 -12.038   6.538  0.00  0.00    +0.051 A 
ATOM     32  C   UNL     1      -4.355 -12.464   5.194  0.00  0.00    +0.042 A 
ATOM     33  C   UNL     1      -5.332 -11.674   4.636  0.00  0.00    +0.196 A 
ENDBRANCH  27  30
ENDBRANCH  17   8
BRANCH  14   7
ATOM      3  O   UNL     1      -3.011  -9.952  16.666  0.00  0.00    -0.276 OA
ATOM      7  N   UNL     1      -2.929 -12.050  15.668  0.00  0.00    -0.308 N 
ATOM     24  C   UNL     1      -3.310 -11.142  16.648  0.00  0.00    +0.214 C 
ATOM     34  H   UNL     1      -3.254 -13.010  15.727  0.00  0.00    +0.149 HD
BRANCH  24  18
ATOM     18  C   UNL     1      -4.158 -11.802  17.721  0.00  0.00    +0.103 C 
BRANCH  18  11
ATOM     11  C   UNL     1      -5.650 -11.508  17.554  0.00  0.00    -0.011 C 
ATOM     15  C   UNL     1      -5.920 -10.637  16.321  0.00  0.00    +0.008 C 
ATOM     16  C   UNL     1      -6.179 -10.616  18.687  0.00  0.00    +0.008 C 
ATOM     19  C   UNL     1      -7.263  -9.964  16.596  0.00  0.00    +0.001 C 
ATOM     20  C   UNL     1      -7.429  -9.950  18.117  0.00  0.00    +0.001 C 
BRANCH  11  22
ATOM     22  C   UNL     1      -6.423 -12.835  17.483  0.00  0.00    +0.127 C 
BRANCH  22  25
ATOM      5  O   UNL     1      -5.488 -13.802  15.449  0.00  0.00    -0.251 OA
ATOM     25  C   UNL     1      -5.690 -13.848  16.653  0.00  0.00    +0.305 C 
BRANCH  25   4
ATOM      4  O   UNL     1      -5.266 -14.861  17.451  0.00  0.00    -0.481 OA
ATOM     36  H   UNL     1      -4.760 -14.530  18.223  0.00  0.00    +0.295 HD
ENDBRANCH  25   4
ENDBRANCH  22  25
ENDBRANCH  11  22
ENDBRANCH  18  11
ENDBRANCH  24  18
ENDBRANCH  14   7
TORSDOF 8
ENDMDL
