MODEL 1
REMARK VINA RESULT:      -6.0      0.000      0.000
REMARK  Name = 11883311
REMARK  6 active torsions:
REMARK  status: ('A' for Active; 'I' for Inactive)
REMARK    1  A    between atoms: S_1  and  N_7
REMARK    2  A    between atoms: S_1  and  C_15
REMARK    3  A    between atoms: O_4  and  C_12
REMARK    4  A    between atoms: O_4  and  C_16
REMARK    5  A    between atoms: N_7  and  C_11
REMARK    6  A    between atoms: C_17  and  C_22
REMARK                            x       y       z     vdW  Elec       q    Type
REMARK                         _______ _______ _______ _____ _____    ______ ____
ROOT
ATOM      7  N   UNL     1      12.891   9.810  18.034  0.00  0.00    -0.182 NA
ATOM     23  H   UNL     1      12.366  10.685  18.155  0.00  0.00    +0.148 HD
ENDROOT
BRANCH   7  11
ATOM      2  O   UNL     1      13.627   9.781  14.994  0.00  0.00    -0.370 OA
ATOM      3  O   UNL     1      15.787  11.404  16.446  0.00  0.00    -0.370 OA
ATOM      9  C   UNL     1      14.381  11.223  16.720  0.00  0.00    +0.170 C 
ATOM     10  C   UNL     1      13.677  11.166  15.379  0.00  0.00    +0.179 C 
ATOM     11  C   UNL     1      14.141   9.854  17.315  0.00  0.00    +0.133 C 
ATOM     12  C   UNL     1      14.603  11.961  14.489  0.00  0.00    +0.175 C 
ATOM     13  C   UNL     1      14.100   8.970  16.081  0.00  0.00    +0.183 C 
ATOM     14  C   UNL     1      15.964  11.591  15.034  0.00  0.00    +0.194 C 
BRANCH  12   4
ATOM      4  O   UNL     1      14.476  11.646  13.121  0.00  0.00    -0.375 OA
ATOM     16  C   UNL     1      15.708  11.806  12.422  0.00  0.00    +0.194 C 
ENDBRANCH  12   4
ENDBRANCH   7  11
BRANCH   7   1
ATOM      1  S   UNL     1      12.499   8.444  18.962  0.00  0.00    +0.060 S 
ATOM      5  O   UNL     1      13.710   7.708  19.274  0.00  0.00    -0.153 OA
ATOM      6  O   UNL     1      11.373   7.768  18.348  0.00  0.00    -0.153 OA
BRANCH   1  15
ATOM     15  C   UNL     1      11.908   9.177  20.458  0.00  0.00    +0.123 A 
ATOM     17  C   UNL     1      11.349   8.406  21.467  0.00  0.00    +0.078 A 
ATOM     18  C   UNL     1      12.019  10.555  20.589  0.00  0.00    +0.030 A 
ATOM     19  C   UNL     1      10.894   9.025  22.632  0.00  0.00    +0.021 A 
ATOM     20  C   UNL     1      11.564  11.174  21.753  0.00  0.00    +0.002 A 
ATOM     21  C   UNL     1      11.001  10.408  22.774  0.00  0.00    +0.001 A 
BRANCH  17  22
ATOM      8  N   UNL     1      11.120   5.833  21.263  0.00  0.00    -0.191 NA
ATOM     22  C   UNL     1      11.223   6.984  21.354  0.00  0.00    +0.101 C 
ENDBRANCH  17  22
ENDBRANCH   1  15
ENDBRANCH   7   1
TORSDOF 5
ENDMDL
MODEL 2
REMARK VINA RESULT:      -5.6     26.737     27.419
REMARK  Name = 11883311
REMARK  6 active torsions:
REMARK  status: ('A' for Active; 'I' for Inactive)
REMARK    1  A    between atoms: S_1  and  N_7
REMARK    2  A    between atoms: S_1  and  C_15
REMARK    3  A    between atoms: O_4  and  C_12
REMARK    4  A    between atoms: O_4  and  C_16
REMARK    5  A    between atoms: N_7  and  C_11
REMARK    6  A    between atoms: C_17  and  C_22
REMARK                            x       y       z     vdW  Elec       q    Type
REMARK                         _______ _______ _______ _____ _____    ______ ____
ROOT
ATOM      7  N   UNL     1      -3.994 -10.449  14.618  0.00  0.00    -0.182 NA
ATOM     23  H   UNL     1      -3.672  -9.482  14.488  0.00  0.00    +0.148 HD
ENDROOT
BRANCH   7  11
ATOM      2  O   UNL     1      -5.098  -9.658  11.800  0.00  0.00    -0.370 OA
ATOM      3  O   UNL     1      -3.445 -12.219  11.453  0.00  0.00    -0.370 OA
ATOM      9  C   UNL     1      -3.315 -11.113  12.372  0.00  0.00    +0.170 C 
ATOM     10  C   UNL     1      -3.687  -9.859  11.607  0.00  0.00    +0.179 C 
ATOM     11  C   UNL     1      -4.370 -11.208  13.450  0.00  0.00    +0.133 C 
ATOM     12  C   UNL     1      -3.365 -10.239  10.181  0.00  0.00    +0.175 C 
ATOM     13  C   UNL     1      -5.584 -10.603  12.766  0.00  0.00    +0.183 C 
ATOM     14  C   UNL     1      -3.745 -11.702  10.148  0.00  0.00    +0.194 C 
BRANCH  12   4
ATOM      4  O   UNL     1      -4.075  -9.485   9.224  0.00  0.00    -0.375 OA
ATOM     16  C   UNL     1      -4.805 -10.317   8.326  0.00  0.00    +0.194 C 
ENDBRANCH  12   4
ENDBRANCH   7  11
BRANCH   7   1
ATOM      1  S   UNL     1      -3.736 -11.244  16.095  0.00  0.00    +0.060 S 
ATOM      5  O   UNL     1      -2.536 -10.721  16.722  0.00  0.00    -0.153 OA
ATOM      6  O   UNL     1      -3.891 -12.671  15.892  0.00  0.00    -0.153 OA
BRANCH   1  15
ATOM     15  C   UNL     1      -5.125 -10.705  17.047  0.00  0.00    +0.123 A 
ATOM     17  C   UNL     1      -5.220 -10.979  18.403  0.00  0.00    +0.078 A 
ATOM     18  C   UNL     1      -6.122  -9.998  16.388  0.00  0.00    +0.030 A 
ATOM     19  C   UNL     1      -6.334 -10.536  19.117  0.00  0.00    +0.021 A 
ATOM     20  C   UNL     1      -7.236  -9.555  17.102  0.00  0.00    +0.002 A 
ATOM     21  C   UNL     1      -7.341  -9.824  18.466  0.00  0.00    +0.001 A 
BRANCH  17  22
ATOM      8  N   UNL     1      -3.384 -12.298  19.670  0.00  0.00    -0.191 NA
ATOM     22  C   UNL     1      -4.205 -11.708  19.103  0.00  0.00    +0.101 C 
ENDBRANCH  17  22
ENDBRANCH   1  15
ENDBRANCH   7   1
TORSDOF 5
ENDMDL
MODEL 3
REMARK VINA RESULT:      -5.5      3.875      7.311
REMARK  Name = 11883311
REMARK  6 active torsions:
REMARK  status: ('A' for Active; 'I' for Inactive)
REMARK    1  A    between atoms: S_1  and  N_7
REMARK    2  A    between atoms: S_1  and  C_15
REMARK    3  A    between atoms: O_4  and  C_12
REMARK    4  A    between atoms: O_4  and  C_16
REMARK    5  A    between atoms: N_7  and  C_11
REMARK    6  A    between atoms: C_17  and  C_22
REMARK                            x       y       z     vdW  Elec       q    Type
REMARK                         _______ _______ _______ _____ _____    ______ ____
ROOT
ATOM      7  N   UNL     1      12.722  10.456  21.160  0.00  0.00    -0.182 NA
ATOM     23  H   UNL     1      13.602  10.722  21.619  0.00  0.00    +0.148 HD
ENDROOT
BRANCH   7  11
ATOM      2  O   UNL     1      11.490  11.029  23.978  0.00  0.00    -0.370 OA
ATOM      3  O   UNL     1      10.544  13.255  22.092  0.00  0.00    -0.370 OA
ATOM      9  C   UNL     1      11.762  12.480  22.122  0.00  0.00    +0.170 C 
ATOM     10  C   UNL     1      12.109  12.265  23.581  0.00  0.00    +0.179 C 
ATOM     11  C   UNL     1      11.501  11.086  21.600  0.00  0.00    +0.133 C 
ATOM     12  C   UNL     1      11.464  13.454  24.250  0.00  0.00    +0.175 C 
ATOM     13  C   UNL     1      10.929  10.387  22.822  0.00  0.00    +0.183 C 
ATOM     14  C   UNL     1      10.204  13.634  23.434  0.00  0.00    +0.194 C 
BRANCH  12   4
ATOM      4  O   UNL     1      11.186  13.248  25.617  0.00  0.00    -0.375 OA
ATOM     16  C   UNL     1      10.942  14.475  26.301  0.00  0.00    +0.194 C 
ENDBRANCH  12   4
ENDBRANCH   7  11
BRANCH   7   1
ATOM      1  S   UNL     1      12.749   9.598  19.695  0.00  0.00    +0.060 S 
ATOM      5  O   UNL     1      13.194  10.476  18.629  0.00  0.00    -0.153 OA
ATOM      6  O   UNL     1      11.508   8.859  19.562  0.00  0.00    -0.153 OA
BRANCH   1  15
ATOM     15  C   UNL     1      14.026   8.411  19.992  0.00  0.00    +0.123 A 
ATOM     17  C   UNL     1      14.530   7.624  18.967  0.00  0.00    +0.078 A 
ATOM     18  C   UNL     1      14.506   8.292  21.289  0.00  0.00    +0.030 A 
ATOM     19  C   UNL     1      15.537   6.699  19.244  0.00  0.00    +0.021 A 
ATOM     20  C   UNL     1      15.513   7.367  21.566  0.00  0.00    +0.002 A 
ATOM     21  C   UNL     1      16.029   6.571  20.544  0.00  0.00    +0.001 A 
BRANCH  17  22
ATOM      8  N   UNL     1      13.660   7.813  16.534  0.00  0.00    -0.191 NA
ATOM     22  C   UNL     1      14.049   7.728  17.623  0.00  0.00    +0.101 C 
ENDBRANCH  17  22
ENDBRANCH   1  15
ENDBRANCH   7   1
TORSDOF 5
ENDMDL
MODEL 4
REMARK VINA RESULT:      -5.5     12.484     15.135
REMARK  Name = 11883311
REMARK  6 active torsions:
REMARK  status: ('A' for Active; 'I' for Inactive)
REMARK    1  A    between atoms: S_1  and  N_7
REMARK    2  A    between atoms: S_1  and  C_15
REMARK    3  A    between atoms: O_4  and  C_12
REMARK    4  A    between atoms: O_4  and  C_16
REMARK    5  A    between atoms: N_7  and  C_11
REMARK    6  A    between atoms: C_17  and  C_22
REMARK                            x       y       z     vdW  Elec       q    Type
REMARK                         _______ _______ _______ _____ _____    ______ ____
ROOT
ATOM      7  N   UNL     1      10.557   5.420   4.214  0.00  0.00    -0.182 NA
ATOM     23  H   UNL     1      10.705   4.499   4.645  0.00  0.00    +0.148 HD
ENDROOT
BRANCH   7  11
ATOM      2  O   UNL     1      12.714   5.472   1.949  0.00  0.00    -0.370 OA
ATOM      3  O   UNL     1      10.209   4.123   0.801  0.00  0.00    -0.370 OA
ATOM      9  C   UNL     1      10.751   4.154   2.139  0.00  0.00    +0.170 C 
ATOM     10  C   UNL     1      12.260   4.108   2.003  0.00  0.00    +0.179 C 
ATOM     11  C   UNL     1      10.484   5.499   2.776  0.00  0.00    +0.133 C 
ATOM     12  C   UNL     1      12.448   3.403   0.681  0.00  0.00    +0.175 C 
ATOM     13  C   UNL     1      11.609   6.350   2.212  0.00  0.00    +0.183 C 
ATOM     14  C   UNL     1      11.285   3.930  -0.129  0.00  0.00    +0.194 C 
BRANCH  12   4
ATOM      4  O   UNL     1      13.688   3.676   0.069  0.00  0.00    -0.375 OA
ATOM     16  C   UNL     1      13.543   3.974  -1.317  0.00  0.00    +0.194 C 
ENDBRANCH  12   4
ENDBRANCH   7  11
BRANCH   7   1
ATOM      1  S   UNL     1      10.043   6.732   5.160  0.00  0.00    +0.060 S 
ATOM      5  O   UNL     1       8.766   7.213   4.664  0.00  0.00    -0.153 OA
ATOM      6  O   UNL     1      11.152   7.650   5.330  0.00  0.00    -0.153 OA
BRANCH   1  15
ATOM     15  C   UNL     1       9.764   5.965   6.728  0.00  0.00    +0.123 A 
ATOM     17  C   UNL     1       9.418   6.712   7.844  0.00  0.00    +0.078 A 
ATOM     18  C   UNL     1       9.904   4.586   6.804  0.00  0.00    +0.030 A 
ATOM     19  C   UNL     1       9.208   6.067   9.063  0.00  0.00    +0.021 A 
ATOM     20  C   UNL     1       9.694   3.941   8.023  0.00  0.00    +0.002 A 
ATOM     21  C   UNL     1       9.345   4.682   9.153  0.00  0.00    +0.001 A 
BRANCH  17  22
ATOM      8  N   UNL     1       9.149   9.287   7.745  0.00  0.00    -0.191 NA
ATOM     22  C   UNL     1       9.269   8.135   7.789  0.00  0.00    +0.101 C 
ENDBRANCH  17  22
ENDBRANCH   1  15
ENDBRANCH   7   1
TORSDOF 5
ENDMDL
MODEL 5
REMARK VINA RESULT:      -5.4     30.675     31.821
REMARK  Name = 11883311
REMARK  6 active torsions:
REMARK  status: ('A' for Active; 'I' for Inactive)
REMARK    1  A    between atoms: S_1  and  N_7
REMARK    2  A    between atoms: S_1  and  C_15
REMARK    3  A    between atoms: O_4  and  C_12
REMARK    4  A    between atoms: O_4  and  C_16
REMARK    5  A    between atoms: N_7  and  C_11
REMARK    6  A    between atoms: C_17  and  C_22
REMARK                            x       y       z     vdW  Elec       q    Type
REMARK                         _______ _______ _______ _____ _____    ______ ____
ROOT
ATOM      7  N   UNL     1     -14.677   4.404  31.936  0.00  0.00    -0.182 NA
ATOM     23  H   UNL     1     -13.657   4.444  32.059  0.00  0.00    +0.148 HD
ENDROOT
BRANCH   7  11
ATOM      2  O   UNL     1     -15.198   2.139  29.843  0.00  0.00    -0.370 OA
ATOM      3  O   UNL     1     -14.913   0.804  32.589  0.00  0.00    -0.370 OA
ATOM      9  C   UNL     1     -14.313   1.996  32.039  0.00  0.00    +0.170 C 
ATOM     10  C   UNL     1     -14.037   1.713  30.576  0.00  0.00    +0.179 C 
ATOM     11  C   UNL     1     -15.325   3.118  32.007  0.00  0.00    +0.133 C 
ATOM     12  C   UNL     1     -13.884   0.211  30.557  0.00  0.00    +0.175 C 
ATOM     13  C   UNL     1     -16.098   2.818  30.733  0.00  0.00    +0.183 C 
ATOM     14  C   UNL     1     -14.898  -0.226  31.589  0.00  0.00    +0.194 C 
BRANCH  12   4
ATOM      4  O   UNL     1     -14.132  -0.364  29.293  0.00  0.00    -0.375 OA
ATOM     16  C   UNL     1     -13.179  -1.374  28.971  0.00  0.00    +0.194 C 
ENDBRANCH  12   4
ENDBRANCH   7  11
BRANCH   7   1
ATOM      1  S   UNL     1     -15.604   5.824  32.025  0.00  0.00    +0.060 S 
ATOM      5  O   UNL     1     -16.691   5.632  32.967  0.00  0.00    -0.153 OA
ATOM      6  O   UNL     1     -15.877   6.289  30.679  0.00  0.00    -0.153 OA
BRANCH   1  15
ATOM     15  C   UNL     1     -14.458   6.964  32.742  0.00  0.00    +0.123 A 
ATOM     17  C   UNL     1     -13.881   6.723  33.980  0.00  0.00    +0.078 A 
ATOM     18  C   UNL     1     -14.155   8.112  32.022  0.00  0.00    +0.030 A 
ATOM     19  C   UNL     1     -12.982   7.649  34.510  0.00  0.00    +0.021 A 
ATOM     20  C   UNL     1     -13.256   9.038  32.552  0.00  0.00    +0.002 A 
ATOM     21  C   UNL     1     -12.670   8.806  33.796  0.00  0.00    +0.001 A 
BRANCH  17  22
ATOM      8  N   UNL     1     -14.421   4.596  35.357  0.00  0.00    -0.191 NA
ATOM     22  C   UNL     1     -14.180   5.547  34.741  0.00  0.00    +0.101 C 
ENDBRANCH  17  22
ENDBRANCH   1  15
ENDBRANCH   7   1
TORSDOF 5
ENDMDL
MODEL 6
REMARK VINA RESULT:      -5.4     27.435     30.410
REMARK  Name = 11883311
REMARK  6 active torsions:
REMARK  status: ('A' for Active; 'I' for Inactive)
REMARK    1  A    between atoms: S_1  and  N_7
REMARK    2  A    between atoms: S_1  and  C_15
REMARK    3  A    between atoms: O_4  and  C_12
REMARK    4  A    between atoms: O_4  and  C_16
REMARK    5  A    between atoms: N_7  and  C_11
REMARK    6  A    between atoms: C_17  and  C_22
REMARK                            x       y       z     vdW  Elec       q    Type
REMARK                         _______ _______ _______ _____ _____    ______ ____
ROOT
ATOM      7  N   UNL     1      -8.320 -10.423  18.697  0.00  0.00    -0.182 NA
ATOM     23  H   UNL     1      -8.338  -9.593  18.090  0.00  0.00    +0.148 HD
ENDROOT
BRANCH   7  11
ATOM      2  O   UNL     1     -11.110  -9.988  20.044  0.00  0.00    -0.370 OA
ATOM      3  O   UNL     1     -11.543 -11.778  17.591  0.00  0.00    -0.370 OA
ATOM      9  C   UNL     1     -10.587 -10.728  17.852  0.00  0.00    +0.170 C 
ATOM     10  C   UNL     1     -11.309  -9.666  18.656  0.00  0.00    +0.179 C 
ATOM     11  C   UNL     1      -9.513 -11.228  18.791  0.00  0.00    +0.133 C 
ATOM     12  C   UNL     1     -12.746  -9.860  18.238  0.00  0.00    +0.175 C 
ATOM     13  C   UNL     1     -10.176 -11.075  20.149  0.00  0.00    +0.183 C 
ATOM     14  C   UNL     1     -12.830 -11.361  18.071  0.00  0.00    +0.194 C 
BRANCH  12   4
ATOM      4  O   UNL     1     -13.677  -9.380  19.182  0.00  0.00    -0.375 OA
ATOM     16  C   UNL     1     -14.608 -10.386  19.572  0.00  0.00    +0.194 C 
ENDBRANCH  12   4
ENDBRANCH   7  11
BRANCH   7   1
ATOM      1  S   UNL     1      -6.841 -11.032  19.266  0.00  0.00    +0.060 S 
ATOM      5  O   UNL     1      -6.963 -12.460  19.492  0.00  0.00    -0.153 OA
ATOM      6  O   UNL     1      -6.353 -10.166  20.321  0.00  0.00    -0.153 OA
BRANCH   1  15
ATOM     15  C   UNL     1      -5.785 -10.791  17.869  0.00  0.00    +0.123 A 
ATOM     17  C   UNL     1      -4.464 -11.212  17.884  0.00  0.00    +0.078 A 
ATOM     18  C   UNL     1      -6.324 -10.161  16.755  0.00  0.00    +0.030 A 
ATOM     19  C   UNL     1      -3.664 -11.002  16.760  0.00  0.00    +0.021 A 
ATOM     20  C   UNL     1      -5.524  -9.950  15.632  0.00  0.00    +0.002 A 
ATOM     21  C   UNL     1      -4.194 -10.371  15.634  0.00  0.00    +0.001 A 
BRANCH  17  22
ATOM      8  N   UNL     1      -3.419 -12.388  19.942  0.00  0.00    -0.191 NA
ATOM     22  C   UNL     1      -3.886 -11.862  19.021  0.00  0.00    +0.101 C 
ENDBRANCH  17  22
ENDBRANCH   1  15
ENDBRANCH   7   1
TORSDOF 5
ENDMDL
MODEL 7
REMARK VINA RESULT:      -5.3     26.213     28.141
REMARK  Name = 11883311
REMARK  6 active torsions:
REMARK  status: ('A' for Active; 'I' for Inactive)
REMARK    1  A    between atoms: S_1  and  N_7
REMARK    2  A    between atoms: S_1  and  C_15
REMARK    3  A    between atoms: O_4  and  C_12
REMARK    4  A    between atoms: O_4  and  C_16
REMARK    5  A    between atoms: N_7  and  C_11
REMARK    6  A    between atoms: C_17  and  C_22
REMARK                            x       y       z     vdW  Elec       q    Type
REMARK                         _______ _______ _______ _____ _____    ______ ____
ROOT
ATOM      7  N   UNL     1      -5.747 -10.746  17.003  0.00  0.00    -0.182 NA
ATOM     23  H   UNL     1      -5.937  -9.900  16.450  0.00  0.00    +0.148 HD
ENDROOT
BRANCH   7  11
ATOM      2  O   UNL     1      -4.150 -12.033  14.641  0.00  0.00    -0.370 OA
ATOM      3  O   UNL     1      -2.106 -10.807  16.572  0.00  0.00    -0.370 OA
ATOM      9  C   UNL     1      -3.456 -10.421  16.236  0.00  0.00    +0.170 C 
ATOM     10  C   UNL     1      -3.635 -10.695  14.756  0.00  0.00    +0.179 C 
ATOM     11  C   UNL     1      -4.442 -11.353  16.901  0.00  0.00    +0.133 C 
ATOM     12  C   UNL     1      -2.224 -10.590  14.230  0.00  0.00    +0.175 C 
ATOM     13  C   UNL     1      -4.457 -12.537  15.950  0.00  0.00    +0.183 C 
ATOM     14  C   UNL     1      -1.417 -11.174  15.368  0.00  0.00    +0.194 C 
BRANCH  12   4
ATOM      4  O   UNL     1      -2.020 -11.289  13.022  0.00  0.00    -0.375 OA
ATOM     16  C   UNL     1      -1.872 -10.404  11.915  0.00  0.00    +0.194 C 
ENDBRANCH  12   4
ENDBRANCH   7  11
BRANCH   7   1
ATOM      1  S   UNL     1      -6.791 -11.194  18.264  0.00  0.00    +0.060 S 
ATOM      5  O   UNL     1      -6.218 -10.785  19.533  0.00  0.00    -0.153 OA
ATOM      6  O   UNL     1      -7.209 -12.567  18.062  0.00  0.00    -0.153 OA
BRANCH   1  15
ATOM     15  C   UNL     1      -8.201 -10.175  17.950  0.00  0.00    +0.123 A 
ATOM     17  C   UNL     1      -9.389 -10.354  18.644  0.00  0.00    +0.078 A 
ATOM     18  C   UNL     1      -8.079  -9.187  16.981  0.00  0.00    +0.030 A 
ATOM     19  C   UNL     1     -10.478  -9.528  18.364  0.00  0.00    +0.021 A 
ATOM     20  C   UNL     1      -9.169  -8.362  16.702  0.00  0.00    +0.002 A 
ATOM     21  C   UNL     1     -10.368  -8.532  17.394  0.00  0.00    +0.001 A 
BRANCH  17  22
ATOM      8  N   UNL     1      -9.658 -12.185  20.456  0.00  0.00    -0.191 NA
ATOM     22  C   UNL     1      -9.537 -11.366  19.646  0.00  0.00    +0.101 C 
ENDBRANCH  17  22
ENDBRANCH   1  15
ENDBRANCH   7   1
TORSDOF 5
ENDMDL
MODEL 8
REMARK VINA RESULT:      -5.3     27.432     29.784
REMARK  Name = 11883311
REMARK  6 active torsions:
REMARK  status: ('A' for Active; 'I' for Inactive)
REMARK    1  A    between atoms: S_1  and  N_7
REMARK    2  A    between atoms: S_1  and  C_15
REMARK    3  A    between atoms: O_4  and  C_12
REMARK    4  A    between atoms: O_4  and  C_16
REMARK    5  A    between atoms: N_7  and  C_11
REMARK    6  A    between atoms: C_17  and  C_22
REMARK                            x       y       z     vdW  Elec       q    Type
REMARK                         _______ _______ _______ _____ _____    ______ ____
ROOT
ATOM      7  N   UNL     1      -8.161  -9.967  18.504  0.00  0.00    -0.182 NA
ATOM     23  H   UNL     1      -8.032  -8.970  18.290  0.00  0.00    +0.148 HD
ENDROOT
BRANCH   7  11
ATOM      2  O   UNL     1     -11.195  -9.210  18.596  0.00  0.00    -0.370 OA
ATOM      3  O   UNL     1     -10.742 -10.888  16.068  0.00  0.00    -0.370 OA
ATOM      9  C   UNL     1      -9.879  -9.972  16.775  0.00  0.00    +0.170 C 
ATOM     10  C   UNL     1     -10.756  -8.842  17.276  0.00  0.00    +0.179 C 
ATOM     11  C   UNL     1      -9.361 -10.618  18.039  0.00  0.00    +0.133 C 
ATOM     12  C   UNL     1     -11.895  -8.847  16.286  0.00  0.00    +0.175 C 
ATOM     13  C   UNL     1     -10.514 -10.407  19.004  0.00  0.00    +0.183 C 
ATOM     14  C   UNL     1     -12.059 -10.322  15.997  0.00  0.00    +0.194 C 
BRANCH  12   4
ATOM      4  O   UNL     1     -13.080  -8.269  16.787  0.00  0.00    -0.375 OA
ATOM     16  C   UNL     1     -13.900  -7.748  15.745  0.00  0.00    +0.194 C 
ENDBRANCH  12   4
ENDBRANCH   7  11
BRANCH   7   1
ATOM      1  S   UNL     1      -6.852 -10.899  19.052  0.00  0.00    +0.060 S 
ATOM      5  O   UNL     1      -7.261 -12.287  19.163  0.00  0.00    -0.153 OA
ATOM      6  O   UNL     1      -6.238 -10.226  20.180  0.00  0.00    -0.153 OA
BRANCH   1  15
ATOM     15  C   UNL     1      -5.722 -10.771  17.699  0.00  0.00    +0.123 A 
ATOM     17  C   UNL     1      -4.420 -11.239  17.800  0.00  0.00    +0.078 A 
ATOM     18  C   UNL     1      -6.182 -10.184  16.528  0.00  0.00    +0.030 A 
ATOM     19  C   UNL     1      -3.560 -11.119  16.708  0.00  0.00    +0.021 A 
ATOM     20  C   UNL     1      -5.322 -10.063  15.436  0.00  0.00    +0.002 A 
ATOM     21  C   UNL     1      -4.011 -10.531  15.526  0.00  0.00    +0.001 A 
BRANCH  17  22
ATOM      8  N   UNL     1      -3.521 -12.339  19.967  0.00  0.00    -0.191 NA
ATOM     22  C   UNL     1      -3.923 -11.847  18.998  0.00  0.00    +0.101 C 
ENDBRANCH  17  22
ENDBRANCH   1  15
ENDBRANCH   7   1
TORSDOF 5
ENDMDL
MODEL 9
REMARK VINA RESULT:      -5.2     13.117     17.043
REMARK  Name = 11883311
REMARK  6 active torsions:
REMARK  status: ('A' for Active; 'I' for Inactive)
REMARK    1  A    between atoms: S_1  and  N_7
REMARK    2  A    between atoms: S_1  and  C_15
REMARK    3  A    between atoms: O_4  and  C_12
REMARK    4  A    between atoms: O_4  and  C_16
REMARK    5  A    between atoms: N_7  and  C_11
REMARK    6  A    between atoms: C_17  and  C_22
REMARK                            x       y       z     vdW  Elec       q    Type
REMARK                         _______ _______ _______ _____ _____    ______ ____
ROOT
ATOM      7  N   UNL     1      11.599   5.384   3.476  0.00  0.00    -0.182 NA
ATOM     23  H   UNL     1      12.460   4.937   3.816  0.00  0.00    +0.148 HD
ENDROOT
BRANCH   7  11
ATOM      2  O   UNL     1       9.371   5.561   5.666  0.00  0.00    -0.370 OA
ATOM      3  O   UNL     1      11.413   7.773   6.252  0.00  0.00    -0.370 OA
ATOM      9  C   UNL     1      11.564   6.464   5.662  0.00  0.00    +0.170 C 
ATOM     10  C   UNL     1      10.611   5.540   6.393  0.00  0.00    +0.179 C 
ATOM     11  C   UNL     1      11.044   6.473   4.243  0.00  0.00    +0.133 C 
ATOM     12  C   UNL     1      10.480   6.206   7.742  0.00  0.00    +0.175 C 
ATOM     13  C   UNL     1       9.549   6.299   4.447  0.00  0.00    +0.183 C 
ATOM     14  C   UNL     1      10.528   7.673   7.378  0.00  0.00    +0.194 C 
BRANCH  12   4
ATOM      4  O   UNL     1       9.292   5.868   8.423  0.00  0.00    -0.375 OA
ATOM     16  C   UNL     1       9.482   4.765   9.307  0.00  0.00    +0.194 C 
ENDBRANCH  12   4
ENDBRANCH   7  11
BRANCH   7   1
ATOM      1  S   UNL     1      11.061   5.107   1.890  0.00  0.00    +0.060 S 
ATOM      5  O   UNL     1      10.615   6.358   1.307  0.00  0.00    -0.153 OA
ATOM      6  O   UNL     1      10.190   3.948   1.887  0.00  0.00    -0.153 OA
BRANCH   1  15
ATOM     15  C   UNL     1      12.556   4.630   1.077  0.00  0.00    +0.123 A 
ATOM     17  C   UNL     1      12.552   4.187  -0.238  0.00  0.00    +0.078 A 
ATOM     18  C   UNL     1      13.738   4.712   1.801  0.00  0.00    +0.030 A 
ATOM     19  C   UNL     1      13.754   3.819  -0.842  0.00  0.00    +0.021 A 
ATOM     20  C   UNL     1      14.941   4.344   1.196  0.00  0.00    +0.002 A 
ATOM     21  C   UNL     1      14.948   3.898  -0.125  0.00  0.00    +0.001 A 
BRANCH  17  22
ATOM      8  N   UNL     1      10.369   4.016  -1.623  0.00  0.00    -0.191 NA
ATOM     22  C   UNL     1      11.345   4.093  -1.003  0.00  0.00    +0.101 C 
ENDBRANCH  17  22
ENDBRANCH   1  15
ENDBRANCH   7   1
TORSDOF 5
ENDMDL
MODEL 10
REMARK VINA RESULT:      -5.2     29.056     31.118
REMARK  Name = 11883311
REMARK  6 active torsions:
REMARK  status: ('A' for Active; 'I' for Inactive)
REMARK    1  A    between atoms: S_1  and  N_7
REMARK    2  A    between atoms: S_1  and  C_15
REMARK    3  A    between atoms: O_4  and  C_12
REMARK    4  A    between atoms: O_4  and  C_16
REMARK    5  A    between atoms: N_7  and  C_11
REMARK    6  A    between atoms: C_17  and  C_22
REMARK                            x       y       z     vdW  Elec       q    Type
REMARK                         _______ _______ _______ _____ _____    ______ ____
ROOT
ATOM      7  N   UNL     1     -13.981   6.191  32.596  0.00  0.00    -0.182 NA
ATOM     23  H   UNL     1     -13.275   6.253  31.852  0.00  0.00    +0.148 HD
ENDROOT
BRANCH   7  11
ATOM      2  O   UNL     1     -14.576   3.870  30.584  0.00  0.00    -0.370 OA
ATOM      3  O   UNL     1     -14.790   2.709  33.415  0.00  0.00    -0.370 OA
ATOM      9  C   UNL     1     -13.972   3.768  32.875  0.00  0.00    +0.170 C 
ATOM     10  C   UNL     1     -13.575   3.347  31.474  0.00  0.00    +0.179 C 
ATOM     11  C   UNL     1     -14.807   5.009  32.658  0.00  0.00    +0.133 C 
ATOM     12  C   UNL     1     -13.632   1.841  31.558  0.00  0.00    +0.175 C 
ATOM     13  C   UNL     1     -15.465   4.724  31.320  0.00  0.00    +0.183 C 
ATOM     14  C   UNL     1     -14.807   1.617  32.483  0.00  0.00    +0.194 C 
BRANCH  12   4
ATOM      4  O   UNL     1     -13.815   1.214  30.307  0.00  0.00    -0.375 OA
ATOM     16  C   UNL     1     -14.874   0.261  30.340  0.00  0.00    +0.194 C 
ENDBRANCH  12   4
ENDBRANCH   7  11
BRANCH   7   1
ATOM      1  S   UNL     1     -13.926   7.254  33.918  0.00  0.00    +0.060 S 
ATOM      5  O   UNL     1     -13.598   6.512  35.121  0.00  0.00    -0.153 OA
ATOM      6  O   UNL     1     -15.099   8.106  33.883  0.00  0.00    -0.153 OA
BRANCH   1  15
ATOM     15  C   UNL     1     -12.538   8.271  33.510  0.00  0.00    +0.123 A 
ATOM     17  C   UNL     1     -11.950   9.100  34.454  0.00  0.00    +0.078 A 
ATOM     18  C   UNL     1     -12.057   8.213  32.209  0.00  0.00    +0.030 A 
ATOM     19  C   UNL     1     -10.857   9.887  34.091  0.00  0.00    +0.021 A 
ATOM     20  C   UNL     1     -10.964   9.000  31.845  0.00  0.00    +0.002 A 
ATOM     21  C   UNL     1     -10.364   9.837  32.786  0.00  0.00    +0.001 A 
BRANCH  17  22
ATOM      8  N   UNL     1     -12.819   9.239  36.891  0.00  0.00    -0.191 NA
ATOM     22  C   UNL     1     -12.430   9.177  35.801  0.00  0.00    +0.101 C 
ENDBRANCH  17  22
ENDBRANCH   1  15
ENDBRANCH   7   1
TORSDOF 5
ENDMDL
