MODEL 1
REMARK VINA RESULT:      -7.7      0.000      0.000
REMARK  Name = 25318005
REMARK  15 active torsions:
REMARK  status: ('A' for Active; 'I' for Inactive)
REMARK    1  A    between atoms: O_1  and  C_14
REMARK    2  A    between atoms: N_3  and  C_10
REMARK    3  A    between atoms: N_3  and  C_21
REMARK    4  A    between atoms: N_4  and  C_26
REMARK    5  A    between atoms: N_5  and  C_29
REMARK    6  A    between atoms: N_5  and  C_33
REMARK    7  A    between atoms: N_5  and  C_34
REMARK    8  A    between atoms: C_7  and  C_15
REMARK    9  A    between atoms: C_9  and  C_17
REMARK   10  A    between atoms: C_9  and  C_18
REMARK   11  A    between atoms: C_14  and  C_20
REMARK   12  A    between atoms: C_15  and  C_19
REMARK   13  A    between atoms: C_19  and  C_22
REMARK   14  A    between atoms: C_21  and  C_23
REMARK   15  A    between atoms: C_26  and  C_30
REMARK                            x       y       z     vdW  Elec       q    Type
REMARK                         _______ _______ _______ _____ _____    ______ ____
ROOT
ATOM      7  C   UNL     1      13.280   8.911  19.487  0.00  0.00    -0.010 C 
ATOM      8  C   UNL     1      12.685   9.848  18.384  0.00  0.00    +0.005 C 
ATOM      9  C   UNL     1      12.529   8.934  17.107  0.00  0.00    -0.030 C 
ATOM     10  C   UNL     1      14.260   8.066  18.643  0.00  0.00    +0.061 C 
ATOM     11  C   UNL     1      13.469   7.728  17.370  0.00  0.00    +0.026 C 
ATOM     12  C   UNL     1      13.953   9.665  20.658  0.00  0.00    +0.011 C 
ATOM     13  C   UNL     1      13.564  11.095  18.113  0.00  0.00    +0.039 C 
ATOM     14  C   UNL     1      14.010  11.833  19.376  0.00  0.00    +0.064 C 
ATOM     16  C   UNL     1      14.797  10.871  20.265  0.00  0.00    +0.035 C 
ATOM     17  C   UNL     1      11.066   8.471  16.950  0.00  0.00    +0.011 C 
ATOM     18  C   UNL     1      12.906   9.597  15.766  0.00  0.00    +0.011 C 
ATOM     20  C   UNL     1      14.863  13.052  19.012  0.00  0.00    +0.041 C 
ENDROOT
BRANCH  14   1
ATOM      1  O   UNL     1      12.850  12.301  20.065  0.00  0.00    -0.389 OA
ATOM     38  H   UNL     1      12.853  11.917  20.958  0.00  0.00    +0.210 HD
ENDBRANCH  14   1
BRANCH  10   3
ATOM      3  N   UNL     1      14.757   6.885  19.298  0.00  0.00    -0.309 NA
ATOM     37  H   UNL     1      14.867   7.061  20.295  0.00  0.00    +0.123 HD
BRANCH   3  21
ATOM     21  C   UNL     1      16.045   6.487  18.746  0.00  0.00    +0.116 C 
BRANCH  21  23
ATOM     23  C   UNL     1      17.155   6.643  19.744  0.00  0.00    -0.033 A 
ATOM     24  C   UNL     1      17.094   7.654  20.704  0.00  0.00    +0.007 A 
ATOM     25  C   UNL     1      18.249   5.778  19.711  0.00  0.00    +0.007 A 
ATOM     27  C   UNL     1      18.127   7.800  21.630  0.00  0.00    +0.023 A 
ATOM     28  C   UNL     1      19.282   5.923  20.637  0.00  0.00    +0.023 A 
ATOM     29  C   UNL     1      19.220   6.934  21.597  0.00  0.00    +0.029 A 
BRANCH  29   5
ATOM      5  N   UNL     1      20.265   7.080  22.534  0.00  0.00    -0.336 N 
ATOM     33  C   UNL     1      20.265   8.190  23.466  0.00  0.00    +0.129 C 
ATOM     34  C   UNL     1      21.355   6.126  22.572  0.00  0.00    +0.129 C 
ENDBRANCH  29   5
ENDBRANCH  21  23
ENDBRANCH   3  21
ENDBRANCH  10   3
BRANCH   7  15
ATOM     15  C   UNL     1      12.190   8.018  20.136  0.00  0.00    +0.018 C 
BRANCH  15  19
ATOM     19  C   UNL     1      10.978   8.849  20.506  0.00  0.00    +0.096 C 
BRANCH  19  22
ATOM      2  O   UNL     1      10.519   7.996  22.724  0.00  0.00    -0.276 OA
ATOM      4  N   UNL     1      11.047  10.242  22.464  0.00  0.00    -0.311 N 
ATOM     22  C   UNL     1      10.817   8.950  22.012  0.00  0.00    +0.213 C 
ATOM     39  H   UNL     1      11.273  10.975  21.797  0.00  0.00    +0.149 HD
BRANCH   4  26
ATOM     26  C   UNL     1      10.954  10.597  23.861  0.00  0.00    +0.141 C 
BRANCH  26  30
ATOM      6  N   UNL     1      10.676  14.286  23.074  0.00  0.00    -0.263 NA
ATOM     30  C   UNL     1      10.813  12.079  24.054  0.00  0.00    -0.012 A 
ATOM     31  C   UNL     1      10.695  12.629  25.325  0.00  0.00    +0.008 A 
ATOM     32  C   UNL     1      10.798  12.943  22.970  0.00  0.00    +0.115 A 
ATOM     35  C   UNL     1      10.566  14.006  25.473  0.00  0.00    +0.020 A 
ATOM     36  C   UNL     1      10.563  14.783  24.326  0.00  0.00    +0.111 A 
ENDBRANCH  26  30
ENDBRANCH   4  26
ENDBRANCH  19  22
ENDBRANCH  15  19
ENDBRANCH   7  15
TORSDOF 10
ENDMDL
MODEL 2
REMARK VINA RESULT:      -7.6      2.187      8.121
REMARK  Name = 25318005
REMARK  15 active torsions:
REMARK  status: ('A' for Active; 'I' for Inactive)
REMARK    1  A    between atoms: O_1  and  C_14
REMARK    2  A    between atoms: N_3  and  C_10
REMARK    3  A    between atoms: N_3  and  C_21
REMARK    4  A    between atoms: N_4  and  C_26
REMARK    5  A    between atoms: N_5  and  C_29
REMARK    6  A    between atoms: N_5  and  C_33
REMARK    7  A    between atoms: N_5  and  C_34
REMARK    8  A    between atoms: C_7  and  C_15
REMARK    9  A    between atoms: C_9  and  C_17
REMARK   10  A    between atoms: C_9  and  C_18
REMARK   11  A    between atoms: C_14  and  C_20
REMARK   12  A    between atoms: C_15  and  C_19
REMARK   13  A    between atoms: C_19  and  C_22
REMARK   14  A    between atoms: C_21  and  C_23
REMARK   15  A    between atoms: C_26  and  C_30
REMARK                            x       y       z     vdW  Elec       q    Type
REMARK                         _______ _______ _______ _____ _____    ______ ____
ROOT
ATOM      7  C   UNL     1      14.350   8.565  20.004  0.00  0.00    -0.010 C 
ATOM      8  C   UNL     1      13.264   7.824  19.154  0.00  0.00    +0.005 C 
ATOM      9  C   UNL     1      13.280   8.541  17.749  0.00  0.00    -0.030 C 
ATOM     10  C   UNL     1      14.131  10.021  19.537  0.00  0.00    +0.061 C 
ATOM     11  C   UNL     1      13.964   9.909  18.013  0.00  0.00    +0.026 C 
ATOM     12  C   UNL     1      14.196   8.369  21.530  0.00  0.00    +0.011 C 
ATOM     13  C   UNL     1      11.861   7.850  19.813  0.00  0.00    +0.039 C 
ATOM     14  C   UNL     1      11.857   7.464  21.293  0.00  0.00    +0.064 C 
ATOM     16  C   UNL     1      12.769   8.421  22.060  0.00  0.00    +0.035 C 
ATOM     17  C   UNL     1      14.085   7.709  16.728  0.00  0.00    +0.011 C 
ATOM     18  C   UNL     1      11.898   8.773  17.105  0.00  0.00    +0.011 C 
ATOM     20  C   UNL     1      10.433   7.509  21.854  0.00  0.00    +0.041 C 
ENDROOT
BRANCH  14   1
ATOM      1  O   UNL     1      12.335   6.125  21.417  0.00  0.00    -0.389 OA
ATOM     38  H   UNL     1      11.566   5.533  21.477  0.00  0.00    +0.210 HD
ENDBRANCH  14   1
BRANCH  10   3
ATOM      3  N   UNL     1      15.182  10.935  19.897  0.00  0.00    -0.309 NA
ATOM     37  H   UNL     1      15.563  10.684  20.808  0.00  0.00    +0.123 HD
BRANCH   3  21
ATOM     21  C   UNL     1      14.684  12.303  19.957  0.00  0.00    +0.116 C 
BRANCH  21  23
ATOM     23  C   UNL     1      13.674  12.484  21.053  0.00  0.00    -0.033 A 
ATOM     24  C   UNL     1      12.427  13.041  20.768  0.00  0.00    +0.007 A 
ATOM     25  C   UNL     1      13.984  12.098  22.357  0.00  0.00    +0.007 A 
ATOM     27  C   UNL     1      11.490  13.210  21.788  0.00  0.00    +0.023 A 
ATOM     28  C   UNL     1      13.047  12.267  23.377  0.00  0.00    +0.023 A 
ATOM     29  C   UNL     1      11.800  12.823  23.091  0.00  0.00    +0.029 A 
BRANCH  29   5
ATOM      5  N   UNL     1      10.852  12.993  24.122  0.00  0.00    -0.336 N 
ATOM     33  C   UNL     1      10.919  12.185  25.323  0.00  0.00    +0.129 C 
ATOM     34  C   UNL     1       9.793  13.976  23.990  0.00  0.00    +0.129 C 
ENDBRANCH  29   5
ENDBRANCH  21  23
ENDBRANCH   3  21
ENDBRANCH  10   3
BRANCH   7  15
ATOM     15  C   UNL     1      15.782   8.078  19.661  0.00  0.00    +0.018 C 
BRANCH  15  19
ATOM     19  C   UNL     1      15.851   6.566  19.707  0.00  0.00    +0.096 C 
BRANCH  19  22
ATOM      2  O   UNL     1      17.579   5.452  18.430  0.00  0.00    -0.276 OA
ATOM      4  N   UNL     1      18.123   6.400  20.478  0.00  0.00    -0.311 N 
ATOM     22  C   UNL     1      17.261   6.069  19.442  0.00  0.00    +0.213 C 
ATOM     39  H   UNL     1      17.765   6.900  21.288  0.00  0.00    +0.149 HD
BRANCH   4  26
ATOM     26  C   UNL     1      19.520   6.038  20.463  0.00  0.00    +0.141 C 
BRANCH  26  30
ATOM      6  N   UNL     1      21.789   5.540  23.447  0.00  0.00    -0.263 NA
ATOM     30  C   UNL     1      20.169   6.252  21.800  0.00  0.00    -0.012 A 
ATOM     31  C   UNL     1      19.787   7.306  22.622  0.00  0.00    +0.008 A 
ATOM     32  C   UNL     1      21.167   5.404  22.255  0.00  0.00    +0.115 A 
ATOM     35  C   UNL     1      20.404   7.478  23.856  0.00  0.00    +0.020 A 
ATOM     36  C   UNL     1      21.391   6.576  24.218  0.00  0.00    +0.111 A 
ENDBRANCH  26  30
ENDBRANCH   4  26
ENDBRANCH  19  22
ENDBRANCH  15  19
ENDBRANCH   7  15
TORSDOF 10
ENDMDL
MODEL 3
REMARK VINA RESULT:      -7.5      2.286      5.954
REMARK  Name = 25318005
REMARK  15 active torsions:
REMARK  status: ('A' for Active; 'I' for Inactive)
REMARK    1  A    between atoms: O_1  and  C_14
REMARK    2  A    between atoms: N_3  and  C_10
REMARK    3  A    between atoms: N_3  and  C_21
REMARK    4  A    between atoms: N_4  and  C_26
REMARK    5  A    between atoms: N_5  and  C_29
REMARK    6  A    between atoms: N_5  and  C_33
REMARK    7  A    between atoms: N_5  and  C_34
REMARK    8  A    between atoms: C_7  and  C_15
REMARK    9  A    between atoms: C_9  and  C_17
REMARK   10  A    between atoms: C_9  and  C_18
REMARK   11  A    between atoms: C_14  and  C_20
REMARK   12  A    between atoms: C_15  and  C_19
REMARK   13  A    between atoms: C_19  and  C_22
REMARK   14  A    between atoms: C_21  and  C_23
REMARK   15  A    between atoms: C_26  and  C_30
REMARK                            x       y       z     vdW  Elec       q    Type
REMARK                         _______ _______ _______ _____ _____    ______ ____
ROOT
ATOM      7  C   UNL     1      12.530  11.660  22.476  0.00  0.00    -0.010 C 
ATOM      8  C   UNL     1      12.280  12.802  23.517  0.00  0.00    +0.005 C 
ATOM      9  C   UNL     1      11.642  13.983  22.688  0.00  0.00    -0.030 C 
ATOM     10  C   UNL     1      12.988  12.485  21.253  0.00  0.00    +0.061 C 
ATOM     11  C   UNL     1      12.015  13.673  21.213  0.00  0.00    +0.026 C 
ATOM     12  C   UNL     1      13.560  10.603  22.938  0.00  0.00    +0.011 C 
ATOM     13  C   UNL     1      13.571  13.234  24.260  0.00  0.00    +0.039 C 
ATOM     14  C   UNL     1      14.397  12.069  24.808  0.00  0.00    +0.064 C 
ATOM     16  C   UNL     1      14.789  11.149  23.652  0.00  0.00    +0.035 C 
ATOM     17  C   UNL     1      10.111  14.010  22.877  0.00  0.00    +0.011 C 
ATOM     18  C   UNL     1      12.137  15.397  23.057  0.00  0.00    +0.011 C 
ATOM     20  C   UNL     1      15.642  12.589  25.531  0.00  0.00    +0.041 C 
ENDROOT
BRANCH  14   1
ATOM      1  O   UNL     1      13.605  11.354  25.757  0.00  0.00    -0.389 OA
ATOM     38  H   UNL     1      12.778  11.846  25.892  0.00  0.00    +0.210 HD
ENDBRANCH  14   1
BRANCH  10   3
ATOM      3  N   UNL     1      13.006  11.761  20.010  0.00  0.00    -0.309 NA
ATOM     37  H   UNL     1      12.818  10.774  20.179  0.00  0.00    +0.123 HD
BRANCH   3  21
ATOM     21  C   UNL     1      14.300  11.887  19.353  0.00  0.00    +0.116 C 
BRANCH  21  23
ATOM     23  C   UNL     1      15.291  10.886  19.871  0.00  0.00    -0.033 A 
ATOM     24  C   UNL     1      14.980   9.526  19.863  0.00  0.00    +0.007 A 
ATOM     25  C   UNL     1      16.524  11.316  20.363  0.00  0.00    +0.007 A 
ATOM     27  C   UNL     1      15.901   8.597  20.346  0.00  0.00    +0.023 A 
ATOM     28  C   UNL     1      17.446  10.387  20.845  0.00  0.00    +0.023 A 
ATOM     29  C   UNL     1      17.134   9.027  20.836  0.00  0.00    +0.029 A 
BRANCH  29   5
ATOM      5  N   UNL     1      18.066   8.088  21.324  0.00  0.00    -0.336 N 
ATOM     33  C   UNL     1      19.136   8.505  22.208  0.00  0.00    +0.129 C 
ATOM     34  C   UNL     1      17.970   6.693  20.941  0.00  0.00    +0.129 C 
ENDBRANCH  29   5
ENDBRANCH  21  23
ENDBRANCH   3  21
ENDBRANCH  10   3
BRANCH   7  15
ATOM     15  C   UNL     1      11.232  10.871  22.164  0.00  0.00    +0.018 C 
BRANCH  15  19
ATOM     19  C   UNL     1      11.409   9.406  22.506  0.00  0.00    +0.096 C 
BRANCH  19  22
ATOM      2  O   UNL     1      10.451   7.418  21.511  0.00  0.00    -0.276 OA
ATOM      4  N   UNL     1      11.265   9.093  20.126  0.00  0.00    -0.311 N 
ATOM     22  C   UNL     1      10.981   8.514  21.355  0.00  0.00    +0.213 C 
ATOM     39  H   UNL     1      11.722  10.001  20.093  0.00  0.00    +0.149 HD
BRANCH   4  26
ATOM     26  C   UNL     1      10.954   8.442  18.876  0.00  0.00    +0.141 C 
BRANCH  26  30
ATOM      6  N   UNL     1      14.022   7.417  16.917  0.00  0.00    -0.263 NA
ATOM     30  C   UNL     1      12.103   8.501  17.912  0.00  0.00    -0.012 A 
ATOM     31  C   UNL     1      12.334   9.633  17.139  0.00  0.00    +0.008 A 
ATOM     32  C   UNL     1      12.969   7.428  17.765  0.00  0.00    +0.115 A 
ATOM     35  C   UNL     1      13.407   9.659  16.255  0.00  0.00    +0.020 A 
ATOM     36  C   UNL     1      14.214   8.535  16.183  0.00  0.00    +0.111 A 
ENDBRANCH  26  30
ENDBRANCH   4  26
ENDBRANCH  19  22
ENDBRANCH  15  19
ENDBRANCH   7  15
TORSDOF 10
ENDMDL
MODEL 4
REMARK VINA RESULT:      -7.5      2.261      5.872
REMARK  Name = 25318005
REMARK  15 active torsions:
REMARK  status: ('A' for Active; 'I' for Inactive)
REMARK    1  A    between atoms: O_1  and  C_14
REMARK    2  A    between atoms: N_3  and  C_10
REMARK    3  A    between atoms: N_3  and  C_21
REMARK    4  A    between atoms: N_4  and  C_26
REMARK    5  A    between atoms: N_5  and  C_29
REMARK    6  A    between atoms: N_5  and  C_33
REMARK    7  A    between atoms: N_5  and  C_34
REMARK    8  A    between atoms: C_7  and  C_15
REMARK    9  A    between atoms: C_9  and  C_17
REMARK   10  A    between atoms: C_9  and  C_18
REMARK   11  A    between atoms: C_14  and  C_20
REMARK   12  A    between atoms: C_15  and  C_19
REMARK   13  A    between atoms: C_19  and  C_22
REMARK   14  A    between atoms: C_21  and  C_23
REMARK   15  A    between atoms: C_26  and  C_30
REMARK                            x       y       z     vdW  Elec       q    Type
REMARK                         _______ _______ _______ _____ _____    ______ ____
ROOT
ATOM      7  C   UNL     1      12.926  11.472  22.870  0.00  0.00    -0.010 C 
ATOM      8  C   UNL     1      12.148  12.656  22.205  0.00  0.00    +0.005 C 
ATOM      9  C   UNL     1      13.155  13.277  21.161  0.00  0.00    -0.030 C 
ATOM     10  C   UNL     1      14.341  12.085  22.974  0.00  0.00    +0.061 C 
ATOM     11  C   UNL     1      14.552  12.779  21.620  0.00  0.00    +0.026 C 
ATOM     12  C   UNL     1      12.341  11.019  24.228  0.00  0.00    +0.011 C 
ATOM     13  C   UNL     1      11.646  13.702  23.233  0.00  0.00    +0.039 C 
ATOM     14  C   UNL     1      10.934  13.097  24.444  0.00  0.00    +0.064 C 
ATOM     16  C   UNL     1      11.887  12.138  25.156  0.00  0.00    +0.035 C 
ATOM     17  C   UNL     1      12.832  12.779  19.737  0.00  0.00    +0.011 C 
ATOM     18  C   UNL     1      13.159  14.817  21.077  0.00  0.00    +0.011 C 
ATOM     20  C   UNL     1      10.466  14.200  25.397  0.00  0.00    +0.041 C 
ENDROOT
BRANCH  14   1
ATOM      1  O   UNL     1       9.778  12.393  23.989  0.00  0.00    -0.389 OA
ATOM     38  H   UNL     1       9.247  12.150  24.766  0.00  0.00    +0.210 HD
ENDBRANCH  14   1
BRANCH  10   3
ATOM      3  N   UNL     1      15.387  11.141  23.265  0.00  0.00    -0.309 NA
ATOM     37  H   UNL     1      15.702  11.257  24.226  0.00  0.00    +0.123 HD
BRANCH   3  21
ATOM     21  C   UNL     1      16.522  11.332  22.372  0.00  0.00    +0.116 C 
BRANCH  21  23
ATOM     23  C   UNL     1      16.988  10.036  21.773  0.00  0.00    -0.033 A 
ATOM     24  C   UNL     1      18.308   9.620  21.949  0.00  0.00    +0.007 A 
ATOM     25  C   UNL     1      16.101   9.250  21.038  0.00  0.00    +0.007 A 
ATOM     27  C   UNL     1      18.741   8.417  21.391  0.00  0.00    +0.023 A 
ATOM     28  C   UNL     1      16.533   8.046  20.480  0.00  0.00    +0.023 A 
ATOM     29  C   UNL     1      17.853   7.631  20.657  0.00  0.00    +0.029 A 
BRANCH  29   5
ATOM      5  N   UNL     1      18.290   6.414  20.094  0.00  0.00    -0.336 N 
ATOM     33  C   UNL     1      19.537   5.811  20.521  0.00  0.00    +0.129 C 
ATOM     34  C   UNL     1      17.499   5.752  19.074  0.00  0.00    +0.129 C 
ENDBRANCH  29   5
ENDBRANCH  21  23
ENDBRANCH   3  21
ENDBRANCH  10   3
BRANCH   7  15
ATOM     15  C   UNL     1      12.930  10.207  21.973  0.00  0.00    +0.018 C 
BRANCH  15  19
ATOM     19  C   UNL     1      11.530   9.901  21.485  0.00  0.00    +0.096 C 
BRANCH  19  22
ATOM      2  O   UNL     1      10.550   8.571  19.715  0.00  0.00    -0.276 OA
ATOM      4  N   UNL     1      12.847   8.902  19.739  0.00  0.00    -0.311 N 
ATOM     22  C   UNL     1      11.557   9.054  20.225  0.00  0.00    +0.213 C 
ATOM     39  H   UNL     1      13.625   9.325  20.239  0.00  0.00    +0.149 HD
BRANCH   4  26
ATOM     26  C   UNL     1      13.138   8.137  18.549  0.00  0.00    +0.141 C 
BRANCH  26  30
ATOM      6  N   UNL     1      14.373   9.254  15.154  0.00  0.00    -0.263 NA
ATOM     30  C   UNL     1      13.763   8.983  17.478  0.00  0.00    -0.012 A 
ATOM     31  C   UNL     1      14.299  10.232  17.771  0.00  0.00    +0.008 A 
ATOM     32  C   UNL     1      13.824   8.543  16.165  0.00  0.00    +0.115 A 
ATOM     35  C   UNL     1      14.871  10.993  16.758  0.00  0.00    +0.020 A 
ATOM     36  C   UNL     1      14.883  10.463  15.478  0.00  0.00    +0.111 A 
ENDBRANCH  26  30
ENDBRANCH   4  26
ENDBRANCH  19  22
ENDBRANCH  15  19
ENDBRANCH   7  15
TORSDOF 10
ENDMDL
MODEL 5
REMARK VINA RESULT:      -7.3      1.952      3.472
REMARK  Name = 25318005
REMARK  15 active torsions:
REMARK  status: ('A' for Active; 'I' for Inactive)
REMARK    1  A    between atoms: O_1  and  C_14
REMARK    2  A    between atoms: N_3  and  C_10
REMARK    3  A    between atoms: N_3  and  C_21
REMARK    4  A    between atoms: N_4  and  C_26
REMARK    5  A    between atoms: N_5  and  C_29
REMARK    6  A    between atoms: N_5  and  C_33
REMARK    7  A    between atoms: N_5  and  C_34
REMARK    8  A    between atoms: C_7  and  C_15
REMARK    9  A    between atoms: C_9  and  C_17
REMARK   10  A    between atoms: C_9  and  C_18
REMARK   11  A    between atoms: C_14  and  C_20
REMARK   12  A    between atoms: C_15  and  C_19
REMARK   13  A    between atoms: C_19  and  C_22
REMARK   14  A    between atoms: C_21  and  C_23
REMARK   15  A    between atoms: C_26  and  C_30
REMARK                            x       y       z     vdW  Elec       q    Type
REMARK                         _______ _______ _______ _____ _____    ______ ____
ROOT
ATOM      7  C   UNL     1      14.151   8.869  20.168  0.00  0.00    -0.010 C 
ATOM      8  C   UNL     1      12.662   9.341  20.080  0.00  0.00    +0.005 C 
ATOM      9  C   UNL     1      11.919   8.586  21.249  0.00  0.00    -0.030 C 
ATOM     10  C   UNL     1      13.955   7.380  20.533  0.00  0.00    +0.061 C 
ATOM     11  C   UNL     1      12.851   7.395  21.601  0.00  0.00    +0.026 C 
ATOM     12  C   UNL     1      14.960   9.092  18.868  0.00  0.00    +0.011 C 
ATOM     13  C   UNL     1      12.020   9.061  18.697  0.00  0.00    +0.039 C 
ATOM     14  C   UNL     1      12.878   9.498  17.508  0.00  0.00    +0.064 C 
ATOM     16  C   UNL     1      14.224   8.776  17.573  0.00  0.00    +0.035 C 
ATOM     17  C   UNL     1      11.735   9.520  22.463  0.00  0.00    +0.011 C 
ATOM     18  C   UNL     1      10.512   8.055  20.909  0.00  0.00    +0.011 C 
ATOM     20  C   UNL     1      12.163   9.192  16.190  0.00  0.00    +0.041 C 
ENDROOT
BRANCH  14   1
ATOM      1  O   UNL     1      13.074  10.910  17.582  0.00  0.00    -0.389 OA
ATOM     38  H   UNL     1      13.991  11.102  17.323  0.00  0.00    +0.210 HD
ENDBRANCH  14   1
BRANCH  10   3
ATOM      3  N   UNL     1      15.143   6.712  20.995  0.00  0.00    -0.309 NA
ATOM     37  H   UNL     1      15.667   7.324  21.617  0.00  0.00    +0.123 HD
BRANCH   3  21
ATOM     21  C   UNL     1      15.997   6.336  19.877  0.00  0.00    +0.116 C 
BRANCH  21  23
ATOM     23  C   UNL     1      17.453   6.476  20.212  0.00  0.00    -0.033 A 
ATOM     24  C   UNL     1      18.353   5.473  19.851  0.00  0.00    +0.007 A 
ATOM     25  C   UNL     1      17.907   7.610  20.888  0.00  0.00    +0.007 A 
ATOM     27  C   UNL     1      19.706   5.604  20.164  0.00  0.00    +0.023 A 
ATOM     28  C   UNL     1      19.260   7.741  21.201  0.00  0.00    +0.023 A 
ATOM     29  C   UNL     1      20.159   6.738  20.839  0.00  0.00    +0.029 A 
BRANCH  29   5
ATOM      5  N   UNL     1      21.527   6.870  21.156  0.00  0.00    -0.336 N 
ATOM     33  C   UNL     1      22.351   7.840  20.461  0.00  0.00    +0.129 C 
ATOM     34  C   UNL     1      22.129   6.034  22.175  0.00  0.00    +0.129 C 
ENDBRANCH  29   5
ENDBRANCH  21  23
ENDBRANCH   3  21
ENDBRANCH  10   3
BRANCH   7  15
ATOM     15  C   UNL     1      14.930   9.619  21.279  0.00  0.00    +0.018 C 
BRANCH  15  19
ATOM     19  C   UNL     1      15.807  10.696  20.675  0.00  0.00    +0.096 C 
BRANCH  19  22
ATOM      2  O   UNL     1      16.300  12.984  21.291  0.00  0.00    -0.276 OA
ATOM      4  N   UNL     1      14.203  12.113  21.771  0.00  0.00    -0.311 N 
ATOM     22  C   UNL     1      15.495  12.058  21.268  0.00  0.00    +0.213 C 
ATOM     39  H   UNL     1      13.611  11.288  21.724  0.00  0.00    +0.149 HD
BRANCH   4  26
ATOM     26  C   UNL     1      13.666  13.303  22.389  0.00  0.00    +0.141 C 
BRANCH  26  30
ATOM      6  N   UNL     1      12.114  11.996  25.580  0.00  0.00    -0.263 NA
ATOM     30  C   UNL     1      12.638  12.977  23.433  0.00  0.00    -0.012 A 
ATOM     31  C   UNL     1      11.303  13.324  23.258  0.00  0.00    +0.008 A 
ATOM     32  C   UNL     1      12.989  12.320  24.602  0.00  0.00    +0.115 A 
ATOM     35  C   UNL     1      10.372  13.008  24.242  0.00  0.00    +0.020 A 
ATOM     36  C   UNL     1      10.825  12.350  25.374  0.00  0.00    +0.111 A 
ENDBRANCH  26  30
ENDBRANCH   4  26
ENDBRANCH  19  22
ENDBRANCH  15  19
ENDBRANCH   7  15
TORSDOF 10
ENDMDL
MODEL 6
REMARK VINA RESULT:      -7.1     27.802     31.061
REMARK  Name = 25318005
REMARK  15 active torsions:
REMARK  status: ('A' for Active; 'I' for Inactive)
REMARK    1  A    between atoms: O_1  and  C_14
REMARK    2  A    between atoms: N_3  and  C_10
REMARK    3  A    between atoms: N_3  and  C_21
REMARK    4  A    between atoms: N_4  and  C_26
REMARK    5  A    between atoms: N_5  and  C_29
REMARK    6  A    between atoms: N_5  and  C_33
REMARK    7  A    between atoms: N_5  and  C_34
REMARK    8  A    between atoms: C_7  and  C_15
REMARK    9  A    between atoms: C_9  and  C_17
REMARK   10  A    between atoms: C_9  and  C_18
REMARK   11  A    between atoms: C_14  and  C_20
REMARK   12  A    between atoms: C_15  and  C_19
REMARK   13  A    between atoms: C_19  and  C_22
REMARK   14  A    between atoms: C_21  and  C_23
REMARK   15  A    between atoms: C_26  and  C_30
REMARK                            x       y       z     vdW  Elec       q    Type
REMARK                         _______ _______ _______ _____ _____    ______ ____
ROOT
ATOM      7  C   UNL     1      -7.273 -10.391  16.860  0.00  0.00    -0.010 C 
ATOM      8  C   UNL     1      -7.448 -11.892  16.451  0.00  0.00    +0.005 C 
ATOM      9  C   UNL     1      -8.223 -11.857  15.077  0.00  0.00    -0.030 C 
ATOM     10  C   UNL     1      -8.632  -9.813  16.406  0.00  0.00    +0.061 C 
ATOM     11  C   UNL     1      -8.871 -10.447  15.028  0.00  0.00    +0.026 C 
ATOM     12  C   UNL     1      -6.975 -10.179  18.363  0.00  0.00    +0.011 C 
ATOM     13  C   UNL     1      -8.191 -12.727  17.525  0.00  0.00    +0.039 C 
ATOM     14  C   UNL     1      -7.661 -12.532  18.947  0.00  0.00    +0.064 C 
ATOM     16  C   UNL     1      -7.771 -11.055  19.322  0.00  0.00    +0.035 C 
ATOM     17  C   UNL     1      -7.245 -12.057  13.901  0.00  0.00    +0.011 C 
ATOM     18  C   UNL     1      -9.315 -12.932  14.903  0.00  0.00    +0.011 C 
ATOM     20  C   UNL     1      -8.444 -13.400  19.935  0.00  0.00    +0.041 C 
ENDROOT
BRANCH  14   1
ATOM      1  O   UNL     1      -6.295 -12.948  18.986  0.00  0.00    -0.389 OA
ATOM     38  H   UNL     1      -6.273 -13.919  18.949  0.00  0.00    +0.210 HD
ENDBRANCH  14   1
BRANCH  10   3
ATOM      3  N   UNL     1      -8.689  -8.376  16.355  0.00  0.00    -0.309 NA
ATOM     37  H   UNL     1      -7.788  -7.982  16.623  0.00  0.00    +0.123 HD
BRANCH   3  21
ATOM     21  C   UNL     1      -9.712  -7.863  17.256  0.00  0.00    +0.116 C 
BRANCH  21  23
ATOM     23  C   UNL     1     -10.919  -7.371  16.511  0.00  0.00    -0.033 A 
ATOM     24  C   UNL     1     -12.132  -8.051  16.620  0.00  0.00    +0.007 A 
ATOM     25  C   UNL     1     -10.827  -6.234  15.708  0.00  0.00    +0.007 A 
ATOM     27  C   UNL     1     -13.253  -7.594  15.927  0.00  0.00    +0.023 A 
ATOM     28  C   UNL     1     -11.947  -5.777  15.015  0.00  0.00    +0.023 A 
ATOM     29  C   UNL     1     -13.160  -6.457  15.124  0.00  0.00    +0.029 A 
BRANCH  29   5
ATOM      5  N   UNL     1     -14.293  -5.994  14.424  0.00  0.00    -0.336 N 
ATOM     33  C   UNL     1     -15.622  -6.430  14.805  0.00  0.00    +0.129 C 
ATOM     34  C   UNL     1     -14.143  -5.081  13.308  0.00  0.00    +0.129 C 
ENDBRANCH  29   5
ENDBRANCH  21  23
ENDBRANCH   3  21
ENDBRANCH  10   3
BRANCH   7  15
ATOM     15  C   UNL     1      -6.099  -9.719  16.102  0.00  0.00    +0.018 C 
BRANCH  15  19
ATOM     19  C   UNL     1      -4.774 -10.133  16.707  0.00  0.00    +0.096 C 
BRANCH  19  22
ATOM      2  O   UNL     1      -2.927 -11.496  15.938  0.00  0.00    -0.276 OA
ATOM      4  N   UNL     1      -4.204 -10.343  14.380  0.00  0.00    -0.311 N 
ATOM     22  C   UNL     1      -3.856 -10.744  15.662  0.00  0.00    +0.213 C 
ATOM     39  H   UNL     1      -4.982  -9.702  14.248  0.00  0.00    +0.149 HD
BRANCH   4  26
ATOM     26  C   UNL     1      -3.483 -10.788  13.211  0.00  0.00    +0.141 C 
BRANCH  26  30
ATOM      6  N   UNL     1      -5.657  -8.882  10.774  0.00  0.00    -0.263 NA
ATOM     30  C   UNL     1      -3.919 -10.060  11.973  0.00  0.00    -0.012 A 
ATOM     31  C   UNL     1      -3.051  -9.883  10.901  0.00  0.00    +0.008 A 
ATOM     32  C   UNL     1      -5.201  -9.545  11.860  0.00  0.00    +0.115 A 
ATOM     35  C   UNL     1      -3.483  -9.205   9.767  0.00  0.00    +0.020 A 
ATOM     36  C   UNL     1      -4.784  -8.729   9.753  0.00  0.00    +0.111 A 
ENDBRANCH  26  30
ENDBRANCH   4  26
ENDBRANCH  19  22
ENDBRANCH  15  19
ENDBRANCH   7  15
TORSDOF 10
ENDMDL
MODEL 7
REMARK VINA RESULT:      -7.0     14.785     20.407
REMARK  Name = 25318005
REMARK  15 active torsions:
REMARK  status: ('A' for Active; 'I' for Inactive)
REMARK    1  A    between atoms: O_1  and  C_14
REMARK    2  A    between atoms: N_3  and  C_10
REMARK    3  A    between atoms: N_3  and  C_21
REMARK    4  A    between atoms: N_4  and  C_26
REMARK    5  A    between atoms: N_5  and  C_29
REMARK    6  A    between atoms: N_5  and  C_33
REMARK    7  A    between atoms: N_5  and  C_34
REMARK    8  A    between atoms: C_7  and  C_15
REMARK    9  A    between atoms: C_9  and  C_17
REMARK   10  A    between atoms: C_9  and  C_18
REMARK   11  A    between atoms: C_14  and  C_20
REMARK   12  A    between atoms: C_15  and  C_19
REMARK   13  A    between atoms: C_19  and  C_22
REMARK   14  A    between atoms: C_21  and  C_23
REMARK   15  A    between atoms: C_26  and  C_30
REMARK                            x       y       z     vdW  Elec       q    Type
REMARK                         _______ _______ _______ _____ _____    ______ ____
ROOT
ATOM      7  C   UNL     1      10.284   6.627   4.980  0.00  0.00    -0.010 C 
ATOM      8  C   UNL     1      11.081   6.081   6.211  0.00  0.00    +0.005 C 
ATOM      9  C   UNL     1       9.982   5.545   7.208  0.00  0.00    -0.030 C 
ATOM     10  C   UNL     1       9.071   7.268   5.688  0.00  0.00    +0.061 C 
ATOM     11  C   UNL     1       8.669   6.240   6.757  0.00  0.00    +0.026 C 
ATOM     12  C   UNL     1      11.087   7.615   4.099  0.00  0.00    +0.011 C 
ATOM     13  C   UNL     1      11.995   7.151   6.862  0.00  0.00    +0.039 C 
ATOM     14  C   UNL     1      12.855   7.929   5.866  0.00  0.00    +0.064 C 
ATOM     16  C   UNL     1      11.943   8.623   4.854  0.00  0.00    +0.035 C 
ATOM     17  C   UNL     1       9.860   4.010   7.102  0.00  0.00    +0.011 C 
ATOM     18  C   UNL     1      10.235   5.844   8.700  0.00  0.00    +0.011 C 
ATOM     20  C   UNL     1      13.728   8.953   6.596  0.00  0.00    +0.041 C 
ENDROOT
BRANCH  14   1
ATOM      1  O   UNL     1      13.722   7.012   5.198  0.00  0.00    -0.389 OA
ATOM     38  H   UNL     1      13.396   6.112   5.365  0.00  0.00    +0.210 HD
ENDBRANCH  14   1
BRANCH  10   3
ATOM      3  N   UNL     1       7.972   7.600   4.821  0.00  0.00    -0.309 NA
ATOM     37  H   UNL     1       8.125   7.199   3.897  0.00  0.00    +0.123 HD
BRANCH   3  21
ATOM     21  C   UNL     1       7.831   9.044   4.688  0.00  0.00    +0.116 C 
BRANCH  21  23
ATOM     23  C   UNL     1       7.066   9.422   3.453  0.00  0.00    -0.033 A 
ATOM     24  C   UNL     1       7.599   9.152   2.192  0.00  0.00    +0.007 A 
ATOM     25  C   UNL     1       5.823  10.044   3.566  0.00  0.00    +0.007 A 
ATOM     27  C   UNL     1       6.889   9.505   1.044  0.00  0.00    +0.023 A 
ATOM     28  C   UNL     1       5.112  10.397   2.418  0.00  0.00    +0.023 A 
ATOM     29  C   UNL     1       5.645  10.127   1.158  0.00  0.00    +0.029 A 
BRANCH  29   5
ATOM      5  N   UNL     1       4.926  10.482  -0.002  0.00  0.00    -0.336 N 
ATOM     33  C   UNL     1       3.570  10.011  -0.199  0.00  0.00    +0.129 C 
ATOM     34  C   UNL     1       5.537  11.319  -1.016  0.00  0.00    +0.129 C 
ENDBRANCH  29   5
ENDBRANCH  21  23
ENDBRANCH   3  21
ENDBRANCH  10   3
BRANCH   7  15
ATOM     15  C   UNL     1       9.838   5.486   4.029  0.00  0.00    +0.018 C 
BRANCH  15  19
ATOM     19  C   UNL     1      10.221   5.809   2.600  0.00  0.00    +0.096 C 
BRANCH  19  22
ATOM      2  O   UNL     1      10.115   3.991   1.005  0.00  0.00    -0.276 OA
ATOM      4  N   UNL     1      12.007   4.223   2.330  0.00  0.00    -0.311 N 
ATOM     22  C   UNL     1      10.745   4.581   1.878  0.00  0.00    +0.213 C 
ATOM     39  H   UNL     1      12.447   4.762   3.071  0.00  0.00    +0.149 HD
BRANCH   4  26
ATOM     26  C   UNL     1      12.722   3.086   1.799  0.00  0.00    +0.141 C 
BRANCH  26  30
ATOM      6  N   UNL     1      16.021   4.080   0.242  0.00  0.00    -0.263 NA
ATOM     30  C   UNL     1      13.736   3.492   0.770  0.00  0.00    -0.012 A 
ATOM     31  C   UNL     1      13.378   3.660  -0.563  0.00  0.00    +0.008 A 
ATOM     32  C   UNL     1      15.060   3.712   1.118  0.00  0.00    +0.115 A 
ATOM     35  C   UNL     1      14.339   4.038  -1.494  0.00  0.00    +0.020 A 
ATOM     36  C   UNL     1      15.635   4.233  -1.044  0.00  0.00    +0.111 A 
ENDBRANCH  26  30
ENDBRANCH   4  26
ENDBRANCH  19  22
ENDBRANCH  15  19
ENDBRANCH   7  15
TORSDOF 10
ENDMDL
MODEL 8
REMARK VINA RESULT:      -7.0     27.196     30.110
REMARK  Name = 25318005
REMARK  15 active torsions:
REMARK  status: ('A' for Active; 'I' for Inactive)
REMARK    1  A    between atoms: O_1  and  C_14
REMARK    2  A    between atoms: N_3  and  C_10
REMARK    3  A    between atoms: N_3  and  C_21
REMARK    4  A    between atoms: N_4  and  C_26
REMARK    5  A    between atoms: N_5  and  C_29
REMARK    6  A    between atoms: N_5  and  C_33
REMARK    7  A    between atoms: N_5  and  C_34
REMARK    8  A    between atoms: C_7  and  C_15
REMARK    9  A    between atoms: C_9  and  C_17
REMARK   10  A    between atoms: C_9  and  C_18
REMARK   11  A    between atoms: C_14  and  C_20
REMARK   12  A    between atoms: C_15  and  C_19
REMARK   13  A    between atoms: C_19  and  C_22
REMARK   14  A    between atoms: C_21  and  C_23
REMARK   15  A    between atoms: C_26  and  C_30
REMARK                            x       y       z     vdW  Elec       q    Type
REMARK                         _______ _______ _______ _____ _____    ______ ____
ROOT
ATOM      7  C   UNL     1      -3.868 -11.493  12.488  0.00  0.00    -0.010 C 
ATOM      8  C   UNL     1      -3.386 -11.524  10.999  0.00  0.00    +0.005 C 
ATOM      9  C   UNL     1      -3.776 -10.113  10.410  0.00  0.00    -0.030 C 
ATOM     10  C   UNL     1      -5.197 -10.720  12.340  0.00  0.00    +0.061 C 
ATOM     11  C   UNL     1      -4.861  -9.570  11.379  0.00  0.00    +0.026 C 
ATOM     12  C   UNL     1      -4.027 -12.894  13.126  0.00  0.00    +0.011 C 
ATOM     13  C   UNL     1      -4.004 -12.692  10.188  0.00  0.00    +0.039 C 
ATOM     14  C   UNL     1      -3.929 -14.049  10.889  0.00  0.00    +0.064 C 
ATOM     16  C   UNL     1      -4.653 -13.957  12.233  0.00  0.00    +0.035 C 
ATOM     17  C   UNL     1      -2.546  -9.182  10.380  0.00  0.00    +0.011 C 
ATOM     18  C   UNL     1      -4.331 -10.124   8.971  0.00  0.00    +0.011 C 
ATOM     20  C   UNL     1      -4.552 -15.139  10.014  0.00  0.00    +0.041 C 
ENDROOT
BRANCH  14   1
ATOM      1  O   UNL     1      -2.556 -14.382  11.093  0.00  0.00    -0.389 OA
ATOM     38  H   UNL     1      -2.016 -13.790  10.543  0.00  0.00    +0.210 HD
ENDBRANCH  14   1
BRANCH  10   3
ATOM      3  N   UNL     1      -5.758 -10.243  13.576  0.00  0.00    -0.309 NA
ATOM     37  H   UNL     1      -5.666 -10.956  14.298  0.00  0.00    +0.123 HD
BRANCH   3  21
ATOM     21  C   UNL     1      -7.168  -9.916  13.416  0.00  0.00    +0.116 C 
BRANCH  21  23
ATOM     23  C   UNL     1      -7.968 -10.273  14.635  0.00  0.00    -0.033 A 
ATOM     24  C   UNL     1      -8.578 -11.524  14.729  0.00  0.00    +0.007 A 
ATOM     25  C   UNL     1      -8.104  -9.352  15.674  0.00  0.00    +0.007 A 
ATOM     27  C   UNL     1      -9.322 -11.855  15.861  0.00  0.00    +0.023 A 
ATOM     28  C   UNL     1      -8.848  -9.682  16.807  0.00  0.00    +0.023 A 
ATOM     29  C   UNL     1      -9.457 -10.934  16.900  0.00  0.00    +0.029 A 
BRANCH  29   5
ATOM      5  N   UNL     1     -10.209 -11.268  18.046  0.00  0.00    -0.336 N 
ATOM     33  C   UNL     1     -10.854 -12.561  18.149  0.00  0.00    +0.129 C 
ATOM     34  C   UNL     1     -10.352 -10.318  19.132  0.00  0.00    +0.129 C 
ENDBRANCH  29   5
ENDBRANCH  21  23
ENDBRANCH   3  21
ENDBRANCH  10   3
BRANCH   7  15
ATOM     15  C   UNL     1      -2.875 -10.728  13.400  0.00  0.00    +0.018 C 
BRANCH  15  19
ATOM     19  C   UNL     1      -2.444 -11.600  14.561  0.00  0.00    +0.096 C 
BRANCH  19  22
ATOM      2  O   UNL     1      -1.928 -10.785  16.781  0.00  0.00    -0.276 OA
ATOM      4  N   UNL     1      -4.090 -10.553  15.968  0.00  0.00    -0.311 N 
ATOM     22  C   UNL     1      -2.760 -10.942  15.893  0.00  0.00    +0.213 C 
ATOM     39  H   UNL     1      -4.713 -10.740  15.186  0.00  0.00    +0.149 HD
BRANCH   4  26
ATOM     26  C   UNL     1      -4.639  -9.904  17.135  0.00  0.00    +0.141 C 
BRANCH  26  30
ATOM      6  N   UNL     1      -6.849 -11.219  19.907  0.00  0.00    -0.263 NA
ATOM     30  C   UNL     1      -5.528 -10.823  17.921  0.00  0.00    -0.012 A 
ATOM     31  C   UNL     1      -5.858 -12.085  17.442  0.00  0.00    +0.008 A 
ATOM     32  C   UNL     1      -6.045 -10.440  19.149  0.00  0.00    +0.115 A 
ATOM     35  C   UNL     1      -6.683 -12.915  18.193  0.00  0.00    +0.020 A 
ATOM     36  C   UNL     1      -7.148 -12.439  19.408  0.00  0.00    +0.111 A 
ENDBRANCH  26  30
ENDBRANCH   4  26
ENDBRANCH  19  22
ENDBRANCH  15  19
ENDBRANCH   7  15
TORSDOF 10
ENDMDL
MODEL 9
REMARK VINA RESULT:      -6.9     14.971     19.804
REMARK  Name = 25318005
REMARK  15 active torsions:
REMARK  status: ('A' for Active; 'I' for Inactive)
REMARK    1  A    between atoms: O_1  and  C_14
REMARK    2  A    between atoms: N_3  and  C_10
REMARK    3  A    between atoms: N_3  and  C_21
REMARK    4  A    between atoms: N_4  and  C_26
REMARK    5  A    between atoms: N_5  and  C_29
REMARK    6  A    between atoms: N_5  and  C_33
REMARK    7  A    between atoms: N_5  and  C_34
REMARK    8  A    between atoms: C_7  and  C_15
REMARK    9  A    between atoms: C_9  and  C_17
REMARK   10  A    between atoms: C_9  and  C_18
REMARK   11  A    between atoms: C_14  and  C_20
REMARK   12  A    between atoms: C_15  and  C_19
REMARK   13  A    between atoms: C_19  and  C_22
REMARK   14  A    between atoms: C_21  and  C_23
REMARK   15  A    between atoms: C_26  and  C_30
REMARK                            x       y       z     vdW  Elec       q    Type
REMARK                         _______ _______ _______ _____ _____    ______ ____
ROOT
ATOM      7  C   UNL     1      10.245   6.993   5.319  0.00  0.00    -0.010 C 
ATOM      8  C   UNL     1      11.066   7.401   6.588  0.00  0.00    +0.005 C 
ATOM      9  C   UNL     1      12.531   7.664   6.064  0.00  0.00    -0.030 C 
ATOM     10  C   UNL     1      11.288   6.137   4.568  0.00  0.00    +0.061 C 
ATOM     11  C   UNL     1      12.594   6.936   4.694  0.00  0.00    +0.026 C 
ATOM     12  C   UNL     1       8.930   6.241   5.636  0.00  0.00    +0.011 C 
ATOM     13  C   UNL     1      11.024   6.326   7.705  0.00  0.00    +0.039 C 
ATOM     14  C   UNL     1       9.621   5.804   8.019  0.00  0.00    +0.064 C 
ATOM     16  C   UNL     1       9.016   5.206   6.749  0.00  0.00    +0.035 C 
ATOM     17  C   UNL     1      12.780   9.178   5.897  0.00  0.00    +0.011 C 
ATOM     18  C   UNL     1      13.664   7.149   6.974  0.00  0.00    +0.011 C 
ATOM     20  C   UNL     1       9.676   4.759   9.135  0.00  0.00    +0.041 C 
ENDROOT
BRANCH  14   1
ATOM      1  O   UNL     1       8.821   6.893   8.477  0.00  0.00    -0.389 OA
ATOM     38  H   UNL     1       8.961   7.646   7.878  0.00  0.00    +0.210 HD
ENDBRANCH  14   1
BRANCH  10   3
ATOM      3  N   UNL     1      10.961   5.853   3.196  0.00  0.00    -0.309 NA
ATOM     37  H   UNL     1       9.996   6.120   3.007  0.00  0.00    +0.123 HD
BRANCH   3  21
ATOM     21  C   UNL     1      11.121   4.434   2.906  0.00  0.00    +0.116 C 
BRANCH  21  23
ATOM     23  C   UNL     1      11.623   4.201   1.511  0.00  0.00    -0.033 A 
ATOM     24  C   UNL     1      12.977   3.949   1.289  0.00  0.00    +0.007 A 
ATOM     25  C   UNL     1      10.736   4.239   0.435  0.00  0.00    +0.007 A 
ATOM     27  C   UNL     1      13.444   3.734  -0.008  0.00  0.00    +0.023 A 
ATOM     28  C   UNL     1      11.202   4.023  -0.862  0.00  0.00    +0.023 A 
ATOM     29  C   UNL     1      12.556   3.771  -1.083  0.00  0.00    +0.029 A 
BRANCH  29   5
ATOM      5  N   UNL     1      13.027   3.553  -2.394  0.00  0.00    -0.336 N 
ATOM     33  C   UNL     1      12.405   2.554  -3.241  0.00  0.00    +0.129 C 
ATOM     34  C   UNL     1      14.144   4.320  -2.910  0.00  0.00    +0.129 C 
ENDBRANCH  29   5
ENDBRANCH  21  23
ENDBRANCH   3  21
ENDBRANCH  10   3
BRANCH   7  15
ATOM     15  C   UNL     1       9.828   8.229   4.480  0.00  0.00    +0.018 C 
BRANCH  15  19
ATOM     19  C   UNL     1       8.408   8.072   3.977  0.00  0.00    +0.096 C 
BRANCH  19  22
ATOM      2  O   UNL     1       7.388   9.113   2.044  0.00  0.00    -0.276 OA
ATOM      4  N   UNL     1       9.351   7.905   1.771  0.00  0.00    -0.311 N 
ATOM     22  C   UNL     1       8.300   8.434   2.506  0.00  0.00    +0.213 C 
ATOM     39  H   UNL     1      10.055   7.339   2.237  0.00  0.00    +0.149 HD
BRANCH   4  26
ATOM     26  C   UNL     1       9.475   8.108   0.346  0.00  0.00    +0.141 C 
BRANCH  26  30
ATOM      6  N   UNL     1      12.377   7.407  -1.974  0.00  0.00    -0.263 NA
ATOM     30  C   UNL     1      10.875   7.864  -0.135  0.00  0.00    -0.012 A 
ATOM     31  C   UNL     1      11.948   7.859   0.750  0.00  0.00    +0.008 A 
ATOM     32  C   UNL     1      11.141   7.634  -1.476  0.00  0.00    +0.115 A 
ATOM     35  C   UNL     1      13.234   7.629   0.275  0.00  0.00    +0.020 A 
ATOM     36  C   UNL     1      13.394   7.410  -1.083  0.00  0.00    +0.111 A 
ENDBRANCH  26  30
ENDBRANCH   4  26
ENDBRANCH  19  22
ENDBRANCH  15  19
ENDBRANCH   7  15
TORSDOF 10
ENDMDL
MODEL 10
REMARK VINA RESULT:      -6.8     15.950     20.039
REMARK  Name = 25318005
REMARK  15 active torsions:
REMARK  status: ('A' for Active; 'I' for Inactive)
REMARK    1  A    between atoms: O_1  and  C_14
REMARK    2  A    between atoms: N_3  and  C_10
REMARK    3  A    between atoms: N_3  and  C_21
REMARK    4  A    between atoms: N_4  and  C_26
REMARK    5  A    between atoms: N_5  and  C_29
REMARK    6  A    between atoms: N_5  and  C_33
REMARK    7  A    between atoms: N_5  and  C_34
REMARK    8  A    between atoms: C_7  and  C_15
REMARK    9  A    between atoms: C_9  and  C_17
REMARK   10  A    between atoms: C_9  and  C_18
REMARK   11  A    between atoms: C_14  and  C_20
REMARK   12  A    between atoms: C_15  and  C_19
REMARK   13  A    between atoms: C_19  and  C_22
REMARK   14  A    between atoms: C_21  and  C_23
REMARK   15  A    between atoms: C_26  and  C_30
REMARK                            x       y       z     vdW  Elec       q    Type
REMARK                         _______ _______ _______ _____ _____    ______ ____
ROOT
ATOM      7  C   UNL     1      11.975   4.893   0.963  0.00  0.00    -0.010 C 
ATOM      8  C   UNL     1      12.934   4.116   0.002  0.00  0.00    +0.005 C 
ATOM      9  C   UNL     1      14.387   4.584   0.403  0.00  0.00    -0.030 C 
ATOM     10  C   UNL     1      12.683   6.264   1.026  0.00  0.00    +0.061 C 
ATOM     11  C   UNL     1      14.172   5.913   1.175  0.00  0.00    +0.026 C 
ATOM     12  C   UNL     1      10.512   4.968   0.465  0.00  0.00    +0.011 C 
ATOM     13  C   UNL     1      12.626   4.371  -1.496  0.00  0.00    +0.039 C 
ATOM     14  C   UNL     1      11.147   4.240  -1.861  0.00  0.00    +0.064 C 
ATOM     16  C   UNL     1      10.336   5.229  -1.025  0.00  0.00    +0.035 C 
ATOM     17  C   UNL     1      15.066   3.528   1.300  0.00  0.00    +0.011 C 
ATOM     18  C   UNL     1      15.356   4.823  -0.773  0.00  0.00    +0.011 C 
ATOM     20  C   UNL     1      10.939   4.499  -3.356  0.00  0.00    +0.041 C 
ENDROOT
BRANCH  14   1
ATOM      1  O   UNL     1      10.725   2.904  -1.586  0.00  0.00    -0.389 OA
ATOM     38  H   UNL     1      10.908   2.361  -2.371  0.00  0.00    +0.210 HD
ENDBRANCH  14   1
BRANCH  10   3
ATOM      3  N   UNL     1      12.226   7.132   2.078  0.00  0.00    -0.309 NA
ATOM     37  H   UNL     1      11.401   6.734   2.523  0.00  0.00    +0.123 HD
BRANCH   3  21
ATOM     21  C   UNL     1      11.889   8.449   1.557  0.00  0.00    +0.116 C 
BRANCH  21  23
ATOM     23  C   UNL     1      10.486   8.850   1.911  0.00  0.00    -0.033 A 
ATOM     24  C   UNL     1      10.072  10.171   1.736  0.00  0.00    +0.007 A 
ATOM     25  C   UNL     1       9.597   7.902   2.417  0.00  0.00    +0.007 A 
ATOM     27  C   UNL     1       8.769  10.543   2.067  0.00  0.00    +0.023 A 
ATOM     28  C   UNL     1       8.294   8.273   2.748  0.00  0.00    +0.023 A 
ATOM     29  C   UNL     1       7.880   9.594   2.572  0.00  0.00    +0.029 A 
BRANCH  29   5
ATOM      5  N   UNL     1       6.562   9.969   2.906  0.00  0.00    -0.336 N 
ATOM     33  C   UNL     1       5.542  10.060   1.880  0.00  0.00    +0.129 C 
ATOM     34  C   UNL     1       6.212  10.276   4.279  0.00  0.00    +0.129 C 
ENDBRANCH  29   5
ENDBRANCH  21  23
ENDBRANCH   3  21
ENDBRANCH  10   3
BRANCH   7  15
ATOM     15  C   UNL     1      11.906   4.235   2.366  0.00  0.00    +0.018 C 
BRANCH  15  19
ATOM     19  C   UNL     1      10.491   4.284   2.904  0.00  0.00    +0.096 C 
BRANCH  19  22
ATOM      2  O   UNL     1       9.655   4.448   5.170  0.00  0.00    -0.276 OA
ATOM      4  N   UNL     1      11.437   5.788   4.524  0.00  0.00    -0.311 N 
ATOM     22  C   UNL     1      10.458   4.826   4.322  0.00  0.00    +0.213 C 
ATOM     39  H   UNL     1      12.048   6.052   3.755  0.00  0.00    +0.149 HD
BRANCH   4  26
ATOM     26  C   UNL     1      11.610   6.457   5.792  0.00  0.00    +0.141 C 
BRANCH  26  30
ATOM      6  N   UNL     1       8.963   9.110   6.293  0.00  0.00    -0.263 NA
ATOM     30  C   UNL     1      10.937   7.798   5.815  0.00  0.00    -0.012 A 
ATOM     31  C   UNL     1      11.607   8.945   5.402  0.00  0.00    +0.008 A 
ATOM     32  C   UNL     1       9.627   7.934   6.248  0.00  0.00    +0.115 A 
ATOM     35  C   UNL     1      10.957  10.174   5.434  0.00  0.00    +0.020 A 
ATOM     36  C   UNL     1       9.647  10.202   5.883  0.00  0.00    +0.111 A 
ENDBRANCH  26  30
ENDBRANCH   4  26
ENDBRANCH  19  22
ENDBRANCH  15  19
ENDBRANCH   7  15
TORSDOF 10
ENDMDL
