MODEL 1
REMARK VINA RESULT:      -8.1      0.000      0.000
REMARK  Name = 7134574
REMARK  8 active torsions:
REMARK  status: ('A' for Active; 'I' for Inactive)
REMARK    1  A    between atoms: N_7  and  C_24
REMARK    2  A    between atoms: N_9  and  C_15
REMARK    3  A    between atoms: N_11  and  C_33
REMARK    4  A    between atoms: C_12  and  C_18
REMARK    5  A    between atoms: C_13  and  C_27
REMARK    6  A    between atoms: C_18  and  C_24
REMARK    7  A    between atoms: C_24  and  C_31
REMARK    8  A    between atoms: C_25  and  C_26
REMARK                            x       y       z     vdW  Elec       q    Type
REMARK                         _______ _______ _______ _____ _____    ______ ____
ROOT
ATOM      2  O   UNL     1      12.213   6.869  18.902  0.00  0.00    -0.274 OA
ATOM      6  N   UNL     1      14.369   7.074  19.760  0.00  0.00    -0.289 N 
ATOM     13  C   UNL     1      15.271   7.400  20.876  0.00  0.00    +0.164 C 
ATOM     14  C   UNL     1      16.569   6.591  20.857  0.00  0.00    +0.054 C 
ATOM     15  C   UNL     1      17.220   6.520  19.473  0.00  0.00    +0.078 C 
ATOM     19  C   UNL     1      16.202   6.060  18.432  0.00  0.00    +0.041 C 
ATOM     20  C   UNL     1      14.980   6.969  18.429  0.00  0.00    +0.110 C 
ATOM     26  C   UNL     1      12.973   7.010  19.864  0.00  0.00    +0.233 C 
ENDROOT
BRANCH  15   9
ATOM      5  O   UNL     1      19.550   6.769  21.120  0.00  0.00    -0.253 OA
ATOM      9  N   UNL     1      18.364   5.640  19.489  0.00  0.00    -0.296 N 
ATOM     11  N   UNL     1      20.416   4.829  20.124  0.00  0.00    -0.269 N 
ATOM     32  C   UNL     1      19.467   5.834  20.329  0.00  0.00    +0.304 C 
ATOM     41  H   UNL     1      18.337   4.802  18.916  0.00  0.00    +0.151 HD
ATOM     44  H   UNL     1      20.193   4.126  19.424  0.00  0.00    +0.156 HD
BRANCH  11  33
ATOM      1  F   UNL     1      23.276   2.424  23.137  0.00  0.00    -0.205 F 
ATOM     33  C   UNL     1      21.663   4.667  20.772  0.00  0.00    +0.037 A 
ATOM     34  C   UNL     1      21.858   3.605  21.654  0.00  0.00    +0.061 A 
ATOM     35  C   UNL     1      22.698   5.571  20.529  0.00  0.00    +0.023 A 
ATOM     36  C   UNL     1      23.088   3.444  22.292  0.00  0.00    +0.125 A 
ATOM     37  C   UNL     1      23.928   5.411  21.167  0.00  0.00    +0.005 A 
ATOM     38  C   UNL     1      24.123   4.348  22.048  0.00  0.00    +0.038 A 
ENDBRANCH  11  33
ENDBRANCH  15   9
BRANCH  26  25
ATOM      8  N   UNL     1      11.086   6.462  21.187  0.00  0.00    -0.306 NA
ATOM     25  C   UNL     1      12.396   7.110  21.236  0.00  0.00    +0.141 C 
ATOM     28  C   UNL     1      12.145   8.554  21.655  0.00  0.00    +0.029 C 
ATOM     29  C   UNL     1      10.633   8.658  21.790  0.00  0.00    +0.017 C 
ATOM     30  C   UNL     1      10.211   7.231  22.067  0.00  0.00    +0.081 C 
ATOM     40  H   UNL     1      11.142   5.488  21.481  0.00  0.00    +0.123 HD
ENDBRANCH  26  25
BRANCH  13  27
ATOM      3  O   UNL     1      15.266   9.538  19.810  0.00  0.00    -0.274 OA
ATOM      7  N   UNL     1      16.090   9.362  21.980  0.00  0.00    -0.302 N 
ATOM     27  C   UNL     1      15.525   8.878  20.812  0.00  0.00    +0.234 C 
ATOM     39  H   UNL     1      16.263   8.732  22.755  0.00  0.00    +0.150 HD
BRANCH   7  24
ATOM     24  C   UNL     1      16.454  10.749  22.166  0.00  0.00    +0.159 C 
BRANCH  24  31
ATOM      4  O   UNL     1      18.532  11.874  22.730  0.00  0.00    -0.274 OA
ATOM     10  N   UNL     1      18.545   9.587  22.528  0.00  0.00    -0.328 N 
ATOM     31  C   UNL     1      17.934  10.823  22.514  0.00  0.00    +0.231 C 
ATOM     42  H   UNL     1      19.534   9.498  22.738  0.00  0.00    +0.145 HD
ATOM     43  H   UNL     1      18.044   8.727  22.329  0.00  0.00    +0.145 HD
ENDBRANCH  24  31
BRANCH  24  18
ATOM     18  C   UNL     1      15.565  11.447  23.201  0.00  0.00    +0.035 C 
BRANCH  18  12
ATOM     12  C   UNL     1      14.069  11.351  22.908  0.00  0.00    -0.009 C 
ATOM     16  C   UNL     1      13.687  12.262  21.734  0.00  0.00    +0.003 C 
ATOM     17  C   UNL     1      13.248  11.699  24.158  0.00  0.00    +0.003 C 
ATOM     21  C   UNL     1      12.186  12.225  21.455  0.00  0.00    +0.000 C 
ATOM     22  C   UNL     1      11.749  11.662  23.876  0.00  0.00    +0.000 C 
ATOM     23  C   UNL     1      11.375  12.562  22.702  0.00  0.00    +0.000 C 
ENDBRANCH  18  12
ENDBRANCH  24  18
ENDBRANCH   7  24
ENDBRANCH  13  27
TORSDOF 8
ENDMDL
MODEL 2
REMARK VINA RESULT:      -7.9      1.987      2.912
REMARK  Name = 7134574
REMARK  8 active torsions:
REMARK  status: ('A' for Active; 'I' for Inactive)
REMARK    1  A    between atoms: N_7  and  C_24
REMARK    2  A    between atoms: N_9  and  C_15
REMARK    3  A    between atoms: N_11  and  C_33
REMARK    4  A    between atoms: C_12  and  C_18
REMARK    5  A    between atoms: C_13  and  C_27
REMARK    6  A    between atoms: C_18  and  C_24
REMARK    7  A    between atoms: C_24  and  C_31
REMARK    8  A    between atoms: C_25  and  C_26
REMARK                            x       y       z     vdW  Elec       q    Type
REMARK                         _______ _______ _______ _____ _____    ______ ____
ROOT
ATOM      2  O   UNL     1      12.721   6.944  18.931  0.00  0.00    -0.274 OA
ATOM      6  N   UNL     1      14.810   6.935  19.960  0.00  0.00    -0.289 N 
ATOM     13  C   UNL     1      15.633   7.051  21.174  0.00  0.00    +0.164 C 
ATOM     14  C   UNL     1      16.910   6.210  21.118  0.00  0.00    +0.054 C 
ATOM     15  C   UNL     1      17.661   6.334  19.790  0.00  0.00    +0.078 C 
ATOM     19  C   UNL     1      16.713   6.078  18.620  0.00  0.00    +0.041 C 
ATOM     20  C   UNL     1      15.517   7.019  18.676  0.00  0.00    +0.110 C 
ATOM     26  C   UNL     1      13.410   6.905  19.953  0.00  0.00    +0.233 C 
ENDROOT
BRANCH  15   9
ATOM      5  O   UNL     1      20.069   6.502  21.332  0.00  0.00    -0.253 OA
ATOM      9  N   UNL     1      18.780   5.422  19.746  0.00  0.00    -0.296 N 
ATOM     11  N   UNL     1      20.835   4.548  20.281  0.00  0.00    -0.269 N 
ATOM     32  C   UNL     1      19.924   5.578  20.537  0.00  0.00    +0.304 C 
ATOM     41  H   UNL     1      18.703   4.590  19.168  0.00  0.00    +0.151 HD
ATOM     44  H   UNL     1      20.560   3.858  19.586  0.00  0.00    +0.156 HD
BRANCH  11  33
ATOM      1  F   UNL     1      23.726   2.110  23.237  0.00  0.00    -0.205 F 
ATOM     33  C   UNL     1      22.104   4.346  20.870  0.00  0.00    +0.037 A 
ATOM     34  C   UNL     1      22.292   3.308  21.782  0.00  0.00    +0.061 A 
ATOM     35  C   UNL     1      23.168   5.186  20.540  0.00  0.00    +0.023 A 
ATOM     36  C   UNL     1      23.545   3.107  22.362  0.00  0.00    +0.125 A 
ATOM     37  C   UNL     1      24.421   4.985  21.120  0.00  0.00    +0.005 A 
ATOM     38  C   UNL     1      24.609   3.947  22.032  0.00  0.00    +0.038 A 
ENDBRANCH  11  33
ENDBRANCH  15   9
BRANCH  26  25
ATOM      8  N   UNL     1      11.765   5.718  21.179  0.00  0.00    -0.306 NA
ATOM     25  C   UNL     1      12.733   6.809  21.280  0.00  0.00    +0.141 C 
ATOM     28  C   UNL     1      11.933   8.064  21.614  0.00  0.00    +0.029 C 
ATOM     29  C   UNL     1      10.486   7.598  21.648  0.00  0.00    +0.017 C 
ATOM     30  C   UNL     1      10.603   6.122  21.965  0.00  0.00    +0.081 C 
ATOM     40  H   UNL     1      12.156   4.842  21.521  0.00  0.00    +0.123 HD
ENDBRANCH  26  25
BRANCH  13  27
ATOM      3  O   UNL     1      17.023   8.907  21.750  0.00  0.00    -0.274 OA
ATOM      7  N   UNL     1      14.830   9.306  21.078  0.00  0.00    -0.302 N 
ATOM     27  C   UNL     1      15.927   8.511  21.363  0.00  0.00    +0.234 C 
ATOM     39  H   UNL     1      13.966   8.878  20.762  0.00  0.00    +0.150 HD
BRANCH   7  24
ATOM     24  C   UNL     1      14.843  10.746  21.205  0.00  0.00    +0.159 C 
BRANCH  24  31
ATOM      4  O   UNL     1      13.504  12.078  22.732  0.00  0.00    -0.274 OA
ATOM     10  N   UNL     1      14.684  10.298  23.577  0.00  0.00    -0.328 N 
ATOM     31  C   UNL     1      14.256  11.123  22.558  0.00  0.00    +0.231 C 
ATOM     42  H   UNL     1      14.372  10.447  24.532  0.00  0.00    +0.145 HD
ATOM     43  H   UNL     1      15.321   9.524  23.424  0.00  0.00    +0.145 HD
ENDBRANCH  24  31
BRANCH  24  18
ATOM     18  C   UNL     1      14.133  11.436  20.036  0.00  0.00    +0.035 C 
BRANCH  18  12
ATOM     12  C   UNL     1      14.427  10.819  18.671  0.00  0.00    -0.009 C 
ATOM     16  C   UNL     1      15.077  11.850  17.738  0.00  0.00    +0.003 C 
ATOM     17  C   UNL     1      13.147  10.248  18.045  0.00  0.00    +0.003 C 
ATOM     21  C   UNL     1      15.334  11.272  16.349  0.00  0.00    +0.000 C 
ATOM     22  C   UNL     1      13.406   9.673  16.656  0.00  0.00    +0.000 C 
ATOM     23  C   UNL     1      14.060  10.698  15.735  0.00  0.00    +0.000 C 
ENDBRANCH  18  12
ENDBRANCH  24  18
ENDBRANCH   7  24
ENDBRANCH  13  27
TORSDOF 8
ENDMDL
MODEL 3
REMARK VINA RESULT:      -7.4      2.091      4.384
REMARK  Name = 7134574
REMARK  8 active torsions:
REMARK  status: ('A' for Active; 'I' for Inactive)
REMARK    1  A    between atoms: N_7  and  C_24
REMARK    2  A    between atoms: N_9  and  C_15
REMARK    3  A    between atoms: N_11  and  C_33
REMARK    4  A    between atoms: C_12  and  C_18
REMARK    5  A    between atoms: C_13  and  C_27
REMARK    6  A    between atoms: C_18  and  C_24
REMARK    7  A    between atoms: C_24  and  C_31
REMARK    8  A    between atoms: C_25  and  C_26
REMARK                            x       y       z     vdW  Elec       q    Type
REMARK                         _______ _______ _______ _____ _____    ______ ____
ROOT
ATOM      2  O   UNL     1      15.820  12.111  20.464  0.00  0.00    -0.274 OA
ATOM      6  N   UNL     1      15.776   9.784  20.385  0.00  0.00    -0.289 N 
ATOM     13  C   UNL     1      15.100   8.534  20.004  0.00  0.00    +0.164 C 
ATOM     14  C   UNL     1      16.072   7.403  19.664  0.00  0.00    +0.054 C 
ATOM     15  C   UNL     1      17.215   7.261  20.673  0.00  0.00    +0.078 C 
ATOM     19  C   UNL     1      17.901   8.608  20.889  0.00  0.00    +0.041 C 
ATOM     20  C   UNL     1      16.896   9.665  21.327  0.00  0.00    +0.110 C 
ATOM     26  C   UNL     1      15.330  11.064  20.033  0.00  0.00    +0.233 C 
ENDROOT
BRANCH  15   9
ATOM      5  O   UNL     1      19.781   6.721  21.825  0.00  0.00    -0.253 OA
ATOM      9  N   UNL     1      18.167   6.270  20.233  0.00  0.00    -0.296 N 
ATOM     11  N   UNL     1      20.111   5.048  20.213  0.00  0.00    -0.269 N 
ATOM     32  C   UNL     1      19.405   6.069  20.855  0.00  0.00    +0.304 C 
ATOM     41  H   UNL     1      17.898   5.640  19.483  0.00  0.00    +0.151 HD
ATOM     44  H   UNL     1      19.656   4.608  19.417  0.00  0.00    +0.156 HD
BRANCH  11  33
ATOM      1  F   UNL     1      24.893   5.455  20.140  0.00  0.00    -0.205 F 
ATOM     33  C   UNL     1      21.394   4.545  20.533  0.00  0.00    +0.037 A 
ATOM     34  C   UNL     1      22.534   5.261  20.170  0.00  0.00    +0.061 A 
ATOM     35  C   UNL     1      21.518   3.331  21.211  0.00  0.00    +0.023 A 
ATOM     36  C   UNL     1      23.799   4.766  20.487  0.00  0.00    +0.125 A 
ATOM     37  C   UNL     1      22.784   2.837  21.527  0.00  0.00    +0.005 A 
ATOM     38  C   UNL     1      23.924   3.553  21.165  0.00  0.00    +0.038 A 
ENDBRANCH  11  33
ENDBRANCH  15   9
BRANCH  26  25
ATOM      8  N   UNL     1      14.774  10.972  17.731  0.00  0.00    -0.306 NA
ATOM     25  C   UNL     1      14.197  11.138  19.065  0.00  0.00    +0.141 C 
ATOM     28  C   UNL     1      13.517  12.503  19.072  0.00  0.00    +0.029 C 
ATOM     29  C   UNL     1      13.793  13.076  17.690  0.00  0.00    +0.017 C 
ATOM     30  C   UNL     1      14.012  11.842  16.840  0.00  0.00    +0.081 C 
ATOM     40  H   UNL     1      14.729  10.001  17.426  0.00  0.00    +0.123 HD
ENDBRANCH  26  25
BRANCH  13  27
ATOM      3  O   UNL     1      14.585   7.559  22.124  0.00  0.00    -0.274 OA
ATOM      7  N   UNL     1      12.882   8.583  20.911  0.00  0.00    -0.302 N 
ATOM     27  C   UNL     1      14.184   8.171  21.137  0.00  0.00    +0.234 C 
ATOM     39  H   UNL     1      12.654   9.087  20.060  0.00  0.00    +0.150 HD
BRANCH   7  24
ATOM     24  C   UNL     1      11.802   8.335  21.838  0.00  0.00    +0.159 C 
BRANCH  24  31
ATOM      4  O   UNL     1      11.505   6.272  20.590  0.00  0.00    -0.274 OA
ATOM     10  N   UNL     1       9.810   6.968  21.975  0.00  0.00    -0.328 N 
ATOM     31  C   UNL     1      11.058   7.082  21.397  0.00  0.00    +0.231 C 
ATOM     42  H   UNL     1       9.207   6.180  21.758  0.00  0.00    +0.145 HD
ATOM     43  H   UNL     1       9.444   7.654  22.626  0.00  0.00    +0.145 HD
ENDBRANCH  24  31
BRANCH  24  18
ATOM     18  C   UNL     1      10.881   9.549  21.993  0.00  0.00    +0.035 C 
BRANCH  18  12
ATOM     12  C   UNL     1      11.501  10.711  22.767  0.00  0.00    -0.009 C 
ATOM     16  C   UNL     1      10.919  10.790  24.185  0.00  0.00    +0.003 C 
ATOM     17  C   UNL     1      11.294  12.035  22.017  0.00  0.00    +0.003 C 
ATOM     21  C   UNL     1      11.484  11.977  24.961  0.00  0.00    +0.000 C 
ATOM     22  C   UNL     1      11.858  13.219  22.797  0.00  0.00    +0.000 C 
ATOM     23  C   UNL     1      11.283  13.288  24.209  0.00  0.00    +0.000 C 
ENDBRANCH  18  12
ENDBRANCH  24  18
ENDBRANCH   7  24
ENDBRANCH  13  27
TORSDOF 8
ENDMDL
MODEL 4
REMARK VINA RESULT:      -7.3     26.915     31.459
REMARK  Name = 7134574
REMARK  8 active torsions:
REMARK  status: ('A' for Active; 'I' for Inactive)
REMARK    1  A    between atoms: N_7  and  C_24
REMARK    2  A    between atoms: N_9  and  C_15
REMARK    3  A    between atoms: N_11  and  C_33
REMARK    4  A    between atoms: C_12  and  C_18
REMARK    5  A    between atoms: C_13  and  C_27
REMARK    6  A    between atoms: C_18  and  C_24
REMARK    7  A    between atoms: C_24  and  C_31
REMARK    8  A    between atoms: C_25  and  C_26
REMARK                            x       y       z     vdW  Elec       q    Type
REMARK                         _______ _______ _______ _____ _____    ______ ____
ROOT
ATOM      2  O   UNL     1      -2.390 -12.022  12.565  0.00  0.00    -0.274 OA
ATOM      6  N   UNL     1      -4.195 -10.664  11.998  0.00  0.00    -0.289 N 
ATOM     13  C   UNL     1      -5.174  -9.626  12.362  0.00  0.00    +0.164 C 
ATOM     14  C   UNL     1      -5.595  -8.754  11.179  0.00  0.00    +0.054 C 
ATOM     15  C   UNL     1      -5.916  -9.559   9.915  0.00  0.00    +0.078 C 
ATOM     19  C   UNL     1      -4.768 -10.512   9.590  0.00  0.00    +0.041 C 
ATOM     20  C   UNL     1      -4.468 -11.424  10.773  0.00  0.00    +0.110 C 
ATOM     26  C   UNL     1      -3.127 -11.063  12.811  0.00  0.00    +0.233 C 
ENDROOT
BRANCH  15   9
ATOM      5  O   UNL     1      -7.696 -10.054   7.727  0.00  0.00    -0.253 OA
ATOM      9  N   UNL     1      -6.179  -8.680   8.801  0.00  0.00    -0.296 N 
ATOM     11  N   UNL     1      -7.118  -7.962   6.832  0.00  0.00    -0.269 N 
ATOM     32  C   UNL     1      -7.067  -8.999   7.768  0.00  0.00    +0.304 C 
ATOM     41  H   UNL     1      -5.754  -7.757   8.803  0.00  0.00    +0.151 HD
ATOM     44  H   UNL     1      -6.529  -7.154   7.015  0.00  0.00    +0.156 HD
BRANCH  11  33
ATOM      1  F   UNL     1     -11.118  -6.655   4.523  0.00  0.00    -0.205 F 
ATOM     33  C   UNL     1      -7.890  -7.897   5.649  0.00  0.00    +0.037 A 
ATOM     34  C   UNL     1      -9.148  -7.298   5.670  0.00  0.00    +0.061 A 
ATOM     35  C   UNL     1      -7.392  -8.433   4.461  0.00  0.00    +0.023 A 
ATOM     36  C   UNL     1      -9.910  -7.232   4.503  0.00  0.00    +0.125 A 
ATOM     37  C   UNL     1      -8.153  -8.367   3.294  0.00  0.00    +0.005 A 
ATOM     38  C   UNL     1      -9.412  -7.768   3.315  0.00  0.00    +0.038 A 
ENDBRANCH  11  33
ENDBRANCH  15   9
BRANCH  26  25
ATOM      8  N   UNL     1      -1.481  -9.832  13.990  0.00  0.00    -0.306 NA
ATOM     25  C   UNL     1      -2.879 -10.256  14.041  0.00  0.00    +0.141 C 
ATOM     28  C   UNL     1      -3.031 -11.080  15.316  0.00  0.00    +0.029 C 
ATOM     29  C   UNL     1      -1.637 -11.109  15.922  0.00  0.00    +0.017 C 
ATOM     30  C   UNL     1      -0.989  -9.860  15.364  0.00  0.00    +0.081 C 
ATOM     40  H   UNL     1      -1.389  -8.902  13.584  0.00  0.00    +0.123 HD
ENDBRANCH  26  25
BRANCH  13  27
ATOM      3  O   UNL     1      -6.822 -11.350  12.500  0.00  0.00    -0.274 OA
ATOM      7  N   UNL     1      -6.792  -9.685  14.128  0.00  0.00    -0.302 N 
ATOM     27  C   UNL     1      -6.341 -10.331  12.989  0.00  0.00    +0.234 C 
ATOM     39  H   UNL     1      -6.322  -8.847  14.451  0.00  0.00    +0.150 HD
BRANCH   7  24
ATOM     24  C   UNL     1      -7.920 -10.148  14.904  0.00  0.00    +0.159 C 
BRANCH  24  31
ATOM      4  O   UNL     1      -9.837  -9.499  13.560  0.00  0.00    -0.274 OA
ATOM     10  N   UNL     1      -9.353  -8.273  15.440  0.00  0.00    -0.328 N 
ATOM     31  C   UNL     1      -9.137  -9.304  14.549  0.00  0.00    +0.231 C 
ATOM     42  H   UNL     1     -10.128  -7.629  15.312  0.00  0.00    +0.145 HD
ATOM     43  H   UNL     1      -8.756  -8.109  16.243  0.00  0.00    +0.145 HD
ENDBRANCH  24  31
BRANCH  24  18
ATOM     18  C   UNL     1      -7.623 -10.158  16.407  0.00  0.00    +0.035 C 
BRANCH  18  12
ATOM     12  C   UNL     1      -6.354 -10.917  16.790  0.00  0.00    -0.009 C 
ATOM     16  C   UNL     1      -6.578 -12.432  16.690  0.00  0.00    +0.003 C 
ATOM     17  C   UNL     1      -5.892 -10.525  18.200  0.00  0.00    +0.003 C 
ATOM     21  C   UNL     1      -5.339 -13.215  17.118  0.00  0.00    +0.000 C 
ATOM     22  C   UNL     1      -4.654 -11.311  18.626  0.00  0.00    +0.000 C 
ATOM     23  C   UNL     1      -4.878 -12.816  18.517  0.00  0.00    +0.000 C 
ENDBRANCH  18  12
ENDBRANCH  24  18
ENDBRANCH   7  24
ENDBRANCH  13  27
TORSDOF 8
ENDMDL
MODEL 5
REMARK VINA RESULT:      -7.1     14.843     16.958
REMARK  Name = 7134574
REMARK  8 active torsions:
REMARK  status: ('A' for Active; 'I' for Inactive)
REMARK    1  A    between atoms: N_7  and  C_24
REMARK    2  A    between atoms: N_9  and  C_15
REMARK    3  A    between atoms: N_11  and  C_33
REMARK    4  A    between atoms: C_12  and  C_18
REMARK    5  A    between atoms: C_13  and  C_27
REMARK    6  A    between atoms: C_18  and  C_24
REMARK    7  A    between atoms: C_24  and  C_31
REMARK    8  A    between atoms: C_25  and  C_26
REMARK                            x       y       z     vdW  Elec       q    Type
REMARK                         _______ _______ _______ _____ _____    ______ ____
ROOT
ATOM      2  O   UNL     1      11.579   7.847   2.426  0.00  0.00    -0.274 OA
ATOM      6  N   UNL     1      12.844   7.730   4.378  0.00  0.00    -0.289 N 
ATOM     13  C   UNL     1      13.247   7.006   5.594  0.00  0.00    +0.164 C 
ATOM     14  C   UNL     1      14.688   7.297   6.018  0.00  0.00    +0.054 C 
ATOM     15  C   UNL     1      15.043   8.786   5.980  0.00  0.00    +0.078 C 
ATOM     19  C   UNL     1      14.677   9.383   4.624  0.00  0.00    +0.041 C 
ATOM     20  C   UNL     1      13.205   9.151   4.308  0.00  0.00    +0.110 C 
ATOM     26  C   UNL     1      12.024   7.197   3.375  0.00  0.00    +0.233 C 
ENDROOT
BRANCH  15   9
ATOM      5  O   UNL     1      17.250   8.027   4.319  0.00  0.00    -0.253 OA
ATOM      9  N   UNL     1      16.445   8.986   6.262  0.00  0.00    -0.296 N 
ATOM     11  N   UNL     1      18.715   8.906   5.928  0.00  0.00    -0.269 N 
ATOM     32  C   UNL     1      17.465   8.583   5.393  0.00  0.00    +0.304 C 
ATOM     41  H   UNL     1      16.700   9.506   7.096  0.00  0.00    +0.151 HD
ATOM     44  H   UNL     1      18.718   9.365   6.835  0.00  0.00    +0.156 HD
BRANCH  11  33
ATOM      1  F   UNL     1      21.991   5.891   4.133  0.00  0.00    -0.205 F 
ATOM     33  C   UNL     1      19.990   8.668   5.363  0.00  0.00    +0.037 A 
ATOM     34  C   UNL     1      20.370   7.371   5.021  0.00  0.00    +0.061 A 
ATOM     35  C   UNL     1      20.866   9.732   5.147  0.00  0.00    +0.023 A 
ATOM     36  C   UNL     1      21.626   7.136   4.462  0.00  0.00    +0.125 A 
ATOM     37  C   UNL     1      22.123   9.497   4.588  0.00  0.00    +0.005 A 
ATOM     38  C   UNL     1      22.503   8.200   4.246  0.00  0.00    +0.038 A 
ENDBRANCH  11  33
ENDBRANCH  15   9
BRANCH  26  25
ATOM      8  N   UNL     1      12.658   5.034   2.644  0.00  0.00    -0.306 NA
ATOM     25  C   UNL     1      11.692   5.746   3.480  0.00  0.00    +0.141 C 
ATOM     28  C   UNL     1      10.313   5.425   2.911  0.00  0.00    +0.029 C 
ATOM     29  C   UNL     1      10.592   4.538   1.707  0.00  0.00    +0.017 C 
ATOM     30  C   UNL     1      11.935   3.921   2.033  0.00  0.00    +0.081 C 
ATOM     40  H   UNL     1      13.450   4.703   3.192  0.00  0.00    +0.123 HD
ENDBRANCH  26  25
BRANCH  13  27
ATOM      3  O   UNL     1      12.270   8.470   7.210  0.00  0.00    -0.274 OA
ATOM      7  N   UNL     1      11.392   6.329   6.950  0.00  0.00    -0.302 N 
ATOM     27  C   UNL     1      12.259   7.370   6.664  0.00  0.00    +0.234 C 
ATOM     39  H   UNL     1      11.465   5.457   6.438  0.00  0.00    +0.150 HD
BRANCH   7  24
ATOM     24  C   UNL     1      10.360   6.415   7.960  0.00  0.00    +0.159 C 
BRANCH  24  31
ATOM      4  O   UNL     1      10.530   5.110  10.002  0.00  0.00    -0.274 OA
ATOM     10  N   UNL     1      10.232   3.999   8.015  0.00  0.00    -0.328 N 
ATOM     31  C   UNL     1      10.376   5.135   8.784  0.00  0.00    +0.231 C 
ATOM     42  H   UNL     1      10.234   3.078   8.442  0.00  0.00    +0.145 HD
ATOM     43  H   UNL     1      10.125   4.031   7.007  0.00  0.00    +0.145 HD
ENDBRANCH  24  31
BRANCH  24  18
ATOM     18  C   UNL     1       8.985   6.716   7.357  0.00  0.00    +0.035 C 
BRANCH  18  12
ATOM     12  C   UNL     1       9.021   7.647   6.147  0.00  0.00    -0.009 C 
ATOM     16  C   UNL     1       8.753   9.097   6.570  0.00  0.00    +0.003 C 
ATOM     17  C   UNL     1       8.011   7.194   5.083  0.00  0.00    +0.003 C 
ATOM     21  C   UNL     1       8.731  10.041   5.370  0.00  0.00    +0.000 C 
ATOM     22  C   UNL     1       7.990   8.139   3.886  0.00  0.00    +0.000 C 
ATOM     23  C   UNL     1       7.733   9.581   4.312  0.00  0.00    +0.000 C 
ENDBRANCH  18  12
ENDBRANCH  24  18
ENDBRANCH   7  24
ENDBRANCH  13  27
TORSDOF 8
ENDMDL
MODEL 6
REMARK VINA RESULT:      -7.0     28.273     31.882
REMARK  Name = 7134574
REMARK  8 active torsions:
REMARK  status: ('A' for Active; 'I' for Inactive)
REMARK    1  A    between atoms: N_7  and  C_24
REMARK    2  A    between atoms: N_9  and  C_15
REMARK    3  A    between atoms: N_11  and  C_33
REMARK    4  A    between atoms: C_12  and  C_18
REMARK    5  A    between atoms: C_13  and  C_27
REMARK    6  A    between atoms: C_18  and  C_24
REMARK    7  A    between atoms: C_24  and  C_31
REMARK    8  A    between atoms: C_25  and  C_26
REMARK                            x       y       z     vdW  Elec       q    Type
REMARK                         _______ _______ _______ _____ _____    ______ ____
ROOT
ATOM      2  O   UNL     1      -2.298 -10.903  16.479  0.00  0.00    -0.274 OA
ATOM      6  N   UNL     1      -4.530 -11.552  16.626  0.00  0.00    -0.289 N 
ATOM     13  C   UNL     1      -5.779 -11.980  15.976  0.00  0.00    +0.164 C 
ATOM     14  C   UNL     1      -6.622 -12.913  16.847  0.00  0.00    +0.054 C 
ATOM     15  C   UNL     1      -6.756 -12.436  18.296  0.00  0.00    +0.078 C 
ATOM     19  C   UNL     1      -5.378 -12.136  18.883  0.00  0.00    +0.041 C 
ATOM     20  C   UNL     1      -4.632 -11.122  18.026  0.00  0.00    +0.110 C 
ATOM     26  C   UNL     1      -3.308 -11.389  15.962  0.00  0.00    +0.233 C 
ENDROOT
BRANCH  15   9
ATOM      5  O   UNL     1      -8.775 -11.926  20.262  0.00  0.00    -0.253 OA
ATOM      9  N   UNL     1      -7.448 -13.417  19.097  0.00  0.00    -0.296 N 
ATOM     11  N   UNL     1      -8.918 -14.234  20.660  0.00  0.00    -0.269 N 
ATOM     32  C   UNL     1      -8.426 -13.082  20.040  0.00  0.00    +0.304 C 
ATOM     41  H   UNL     1      -7.268 -14.401  18.918  0.00  0.00    +0.151 HD
ATOM     44  H   UNL     1      -8.518 -15.120  20.360  0.00  0.00    +0.156 HD
BRANCH  11  33
ATOM      1  F   UNL     1     -10.320 -15.635  25.032  0.00  0.00    -0.205 F 
ATOM     33  C   UNL     1      -9.910 -14.324  21.664  0.00  0.00    +0.037 A 
ATOM     34  C   UNL     1      -9.621 -14.948  22.876  0.00  0.00    +0.061 A 
ATOM     35  C   UNL     1     -11.179 -13.788  21.440  0.00  0.00    +0.023 A 
ATOM     36  C   UNL     1     -10.599 -15.036  23.867  0.00  0.00    +0.125 A 
ATOM     37  C   UNL     1     -12.157 -13.875  22.431  0.00  0.00    +0.005 A 
ATOM     38  C   UNL     1     -11.868 -14.500  23.644  0.00  0.00    +0.038 A 
ENDBRANCH  11  33
ENDBRANCH  15   9
BRANCH  26  25
ATOM      8  N   UNL     1      -1.981 -12.565  14.391  0.00  0.00    -0.306 NA
ATOM     25  C   UNL     1      -3.247 -11.849  14.544  0.00  0.00    +0.141 C 
ATOM     28  C   UNL     1      -3.205 -10.686  13.559  0.00  0.00    +0.029 C 
ATOM     29  C   UNL     1      -1.838 -10.791  12.899  0.00  0.00    +0.017 C 
ATOM     30  C   UNL     1      -1.492 -12.258  13.049  0.00  0.00    +0.081 C 
ATOM     40  H   UNL     1      -2.103 -13.568  14.518  0.00  0.00    +0.123 HD
ENDBRANCH  26  25
BRANCH  13  27
ATOM      3  O   UNL     1      -6.825  -9.881  16.433  0.00  0.00    -0.274 OA
ATOM      7  N   UNL     1      -6.827 -10.691  14.250  0.00  0.00    -0.302 N 
ATOM     27  C   UNL     1      -6.523 -10.732  15.600  0.00  0.00    +0.234 C 
ATOM     39  H   UNL     1      -6.529 -11.447  13.643  0.00  0.00    +0.150 HD
BRANCH   7  24
ATOM     24  C   UNL     1      -7.561  -9.607  13.637  0.00  0.00    +0.159 C 
BRANCH  24  31
ATOM      4  O   UNL     1      -9.804 -10.535  13.731  0.00  0.00    -0.274 OA
ATOM     10  N   UNL     1      -9.349  -8.646  14.954  0.00  0.00    -0.328 N 
ATOM     31  C   UNL     1      -9.010  -9.674  14.100  0.00  0.00    +0.231 C 
ATOM     42  H   UNL     1     -10.290  -8.571  15.329  0.00  0.00    +0.145 HD
ATOM     43  H   UNL     1      -8.689  -7.929  15.237  0.00  0.00    +0.145 HD
ENDBRANCH  24  31
BRANCH  24  18
ATOM     18  C   UNL     1      -7.424  -9.604  12.111  0.00  0.00    +0.035 C 
BRANCH  18  12
ATOM     12  C   UNL     1      -6.005  -9.863  11.609  0.00  0.00    -0.009 C 
ATOM     16  C   UNL     1      -5.441  -8.615  10.915  0.00  0.00    +0.003 C 
ATOM     17  C   UNL     1      -5.976 -11.072  10.665  0.00  0.00    +0.003 C 
ATOM     21  C   UNL     1      -4.042  -8.865  10.357  0.00  0.00    +0.000 C 
ATOM     22  C   UNL     1      -4.577 -11.318  10.107  0.00  0.00    +0.000 C 
ATOM     23  C   UNL     1      -4.015 -10.073   9.427  0.00  0.00    +0.000 C 
ENDBRANCH  18  12
ENDBRANCH  24  18
ENDBRANCH   7  24
ENDBRANCH  13  27
TORSDOF 8
ENDMDL
MODEL 7
REMARK VINA RESULT:      -6.9     26.927     31.246
REMARK  Name = 7134574
REMARK  8 active torsions:
REMARK  status: ('A' for Active; 'I' for Inactive)
REMARK    1  A    between atoms: N_7  and  C_24
REMARK    2  A    between atoms: N_9  and  C_15
REMARK    3  A    between atoms: N_11  and  C_33
REMARK    4  A    between atoms: C_12  and  C_18
REMARK    5  A    between atoms: C_13  and  C_27
REMARK    6  A    between atoms: C_18  and  C_24
REMARK    7  A    between atoms: C_24  and  C_31
REMARK    8  A    between atoms: C_25  and  C_26
REMARK                            x       y       z     vdW  Elec       q    Type
REMARK                         _______ _______ _______ _____ _____    ______ ____
ROOT
ATOM      2  O   UNL     1      -4.444 -15.246  12.186  0.00  0.00    -0.274 OA
ATOM      6  N   UNL     1      -4.186 -13.033  11.509  0.00  0.00    -0.289 N 
ATOM     13  C   UNL     1      -3.393 -11.794  11.479  0.00  0.00    +0.164 C 
ATOM     14  C   UNL     1      -3.600 -10.978  10.201  0.00  0.00    +0.054 C 
ATOM     15  C   UNL     1      -5.072 -10.837   9.802  0.00  0.00    +0.078 C 
ATOM     19  C   UNL     1      -5.743 -12.208   9.763  0.00  0.00    +0.041 C 
ATOM     20  C   UNL     1      -5.591 -12.925  11.099  0.00  0.00    +0.110 C 
ATOM     26  C   UNL     1      -3.734 -14.248  12.039  0.00  0.00    +0.233 C 
ENDROOT
BRANCH  15   9
ATOM      5  O   UNL     1      -7.504 -10.062   8.504  0.00  0.00    -0.253 OA
ATOM      9  N   UNL     1      -5.196 -10.174   8.526  0.00  0.00    -0.296 N 
ATOM     11  N   UNL     1      -6.237  -9.200   6.726  0.00  0.00    -0.269 N 
ATOM     32  C   UNL     1      -6.428  -9.829   7.961  0.00  0.00    +0.304 C 
ATOM     41  H   UNL     1      -4.348  -9.880   8.050  0.00  0.00    +0.151 HD
ATOM     44  H   UNL     1      -5.275  -9.086   6.417  0.00  0.00    +0.156 HD
BRANCH  11  33
ATOM      1  F   UNL     1      -8.411  -9.233   2.446  0.00  0.00    -0.205 F 
ATOM     33  C   UNL     1      -7.224  -8.703   5.843  0.00  0.00    +0.037 A 
ATOM     34  C   UNL     1      -7.332  -9.223   4.554  0.00  0.00    +0.061 A 
ATOM     35  C   UNL     1      -8.088  -7.691   6.263  0.00  0.00    +0.023 A 
ATOM     36  C   UNL     1      -8.306  -8.733   3.684  0.00  0.00    +0.125 A 
ATOM     37  C   UNL     1      -9.062  -7.201   5.392  0.00  0.00    +0.005 A 
ATOM     38  C   UNL     1      -9.171  -7.721   4.103  0.00  0.00    +0.038 A 
ENDBRANCH  11  33
ENDBRANCH  15   9
BRANCH  26  25
ATOM      8  N   UNL     1      -1.695 -15.388  11.640  0.00  0.00    -0.306 NA
ATOM     25  C   UNL     1      -2.297 -14.317  12.433  0.00  0.00    +0.141 C 
ATOM     28  C   UNL     1      -2.115 -14.711  13.895  0.00  0.00    +0.029 C 
ATOM     29  C   UNL     1      -1.422 -16.065  13.844  0.00  0.00    +0.017 C 
ATOM     30  C   UNL     1      -0.718 -16.044  12.504  0.00  0.00    +0.081 C 
ATOM     40  H   UNL     1      -1.256 -15.023  10.796  0.00  0.00    +0.123 HD
ENDBRANCH  26  25
BRANCH  13  27
ATOM      3  O   UNL     1      -4.737 -10.281  12.748  0.00  0.00    -0.274 OA
ATOM      7  N   UNL     1      -2.850 -11.216  13.740  0.00  0.00    -0.302 N 
ATOM     27  C   UNL     1      -3.754 -11.016  12.711  0.00  0.00    +0.234 C 
ATOM     39  H   UNL     1      -2.068 -11.849  13.607  0.00  0.00    +0.150 HD
BRANCH   7  24
ATOM     24  C   UNL     1      -2.958 -10.564  15.025  0.00  0.00    +0.159 C 
BRANCH  24  31
ATOM      4  O   UNL     1      -0.833  -9.387  14.975  0.00  0.00    -0.274 OA
ATOM     10  N   UNL     1      -1.177 -10.957  16.615  0.00  0.00    -0.328 N 
ATOM     31  C   UNL     1      -1.559 -10.217  15.516  0.00  0.00    +0.231 C 
ATOM     42  H   UNL     1      -0.262 -10.828  17.036  0.00  0.00    +0.145 HD
ATOM     43  H   UNL     1      -1.778 -11.653  17.041  0.00  0.00    +0.145 HD
ENDBRANCH  24  31
BRANCH  24  18
ATOM     18  C   UNL     1      -3.750 -11.401  16.034  0.00  0.00    +0.035 C 
BRANCH  18  12
ATOM     12  C   UNL     1      -4.745 -10.598  16.870  0.00  0.00    -0.009 C 
ATOM     16  C   UNL     1      -5.041 -11.313  18.195  0.00  0.00    +0.003 C 
ATOM     17  C   UNL     1      -6.040 -10.350  16.083  0.00  0.00    +0.003 C 
ATOM     21  C   UNL     1      -6.074 -10.556  19.026  0.00  0.00    +0.000 C 
ATOM     22  C   UNL     1      -7.071  -9.595  16.917  0.00  0.00    +0.000 C 
ATOM     23  C   UNL     1      -7.355 -10.304  18.237  0.00  0.00    +0.000 C 
ENDBRANCH  18  12
ENDBRANCH  24  18
ENDBRANCH   7  24
ENDBRANCH  13  27
TORSDOF 8
ENDMDL
MODEL 8
REMARK VINA RESULT:      -6.9     18.053     21.121
REMARK  Name = 7134574
REMARK  8 active torsions:
REMARK  status: ('A' for Active; 'I' for Inactive)
REMARK    1  A    between atoms: N_7  and  C_24
REMARK    2  A    between atoms: N_9  and  C_15
REMARK    3  A    between atoms: N_11  and  C_33
REMARK    4  A    between atoms: C_12  and  C_18
REMARK    5  A    between atoms: C_13  and  C_27
REMARK    6  A    between atoms: C_18  and  C_24
REMARK    7  A    between atoms: C_24  and  C_31
REMARK    8  A    between atoms: C_25  and  C_26
REMARK                            x       y       z     vdW  Elec       q    Type
REMARK                         _______ _______ _______ _____ _____    ______ ____
ROOT
ATOM      2  O   UNL     1      12.814   2.694  -2.400  0.00  0.00    -0.274 OA
ATOM      6  N   UNL     1      11.920   3.975  -0.673  0.00  0.00    -0.289 N 
ATOM     13  C   UNL     1      11.003   5.029  -0.210  0.00  0.00    +0.164 C 
ATOM     14  C   UNL     1      10.484   4.795   1.209  0.00  0.00    +0.054 C 
ATOM     15  C   UNL     1      11.580   4.385   2.197  0.00  0.00    +0.078 C 
ATOM     19  C   UNL     1      12.381   3.209   1.642  0.00  0.00    +0.041 C 
ATOM     20  C   UNL     1      12.958   3.545   0.272  0.00  0.00    +0.110 C 
ATOM     26  C   UNL     1      11.958   3.478  -1.982  0.00  0.00    +0.233 C 
ENDROOT
BRANCH  15   9
ATOM      5  O   UNL     1      10.969   6.205   4.323  0.00  0.00    -0.253 OA
ATOM      9  N   UNL     1      11.013   4.052   3.483  0.00  0.00    -0.296 N 
ATOM     11  N   UNL     1      10.202   4.393   5.603  0.00  0.00    -0.269 N 
ATOM     32  C   UNL     1      10.745   5.006   4.470  0.00  0.00    +0.304 C 
ATOM     41  H   UNL     1      10.730   3.091   3.651  0.00  0.00    +0.151 HD
ATOM     44  H   UNL     1      10.082   3.384   5.563  0.00  0.00    +0.156 HD
BRANCH  11  33
ATOM      1  F   UNL     1       9.590   4.240  10.362  0.00  0.00    -0.205 F 
ATOM     33  C   UNL     1       9.797   5.006   6.812  0.00  0.00    +0.037 A 
ATOM     34  C   UNL     1       9.894   4.307   8.014  0.00  0.00    +0.061 A 
ATOM     35  C   UNL     1       9.300   6.310   6.801  0.00  0.00    +0.023 A 
ATOM     36  C   UNL     1       9.496   4.911   9.207  0.00  0.00    +0.125 A 
ATOM     37  C   UNL     1       8.902   6.914   7.993  0.00  0.00    +0.005 A 
ATOM     38  C   UNL     1       8.999   6.215   9.196  0.00  0.00    +0.038 A 
ENDBRANCH  11  33
ENDBRANCH  15   9
BRANCH  26  25
ATOM      8  N   UNL     1       9.927   2.827  -3.014  0.00  0.00    -0.306 NA
ATOM     25  C   UNL     1      10.878   3.933  -2.905  0.00  0.00    +0.141 C 
ATOM     28  C   UNL     1      11.394   4.196  -4.316  0.00  0.00    +0.029 C 
ATOM     29  C   UNL     1      10.703   3.151  -5.179  0.00  0.00    +0.017 C 
ATOM     30  C   UNL     1       9.449   2.827  -4.394  0.00  0.00    +0.081 C 
ATOM     40  H   UNL     1       9.157   2.934  -2.357  0.00  0.00    +0.123 HD
ENDBRANCH  26  25
BRANCH  13  27
ATOM      3  O   UNL     1      12.340   6.641  -1.360  0.00  0.00    -0.274 OA
ATOM      7  N   UNL     1      11.667   7.086   0.824  0.00  0.00    -0.302 N 
ATOM     27  C   UNL     1      11.739   6.332  -0.335  0.00  0.00    +0.234 C 
ATOM     39  H   UNL     1      11.140   6.740   1.618  0.00  0.00    +0.150 HD
BRANCH   7  24
ATOM     24  C   UNL     1      12.312   8.371   0.971  0.00  0.00    +0.159 C 
BRANCH  24  31
ATOM      4  O   UNL     1      13.965   7.109   2.226  0.00  0.00    -0.274 OA
ATOM     10  N   UNL     1      14.171   9.394   2.132  0.00  0.00    -0.328 N 
ATOM     31  C   UNL     1      13.559   8.197   1.825  0.00  0.00    +0.231 C 
ATOM     42  H   UNL     1      15.010   9.418   2.704  0.00  0.00    +0.145 HD
ATOM     43  H   UNL     1      13.816  10.288   1.811  0.00  0.00    +0.145 HD
ENDBRANCH  24  31
BRANCH  24  18
ATOM     18  C   UNL     1      11.359   9.437   1.522  0.00  0.00    +0.035 C 
BRANCH  18  12
ATOM     12  C   UNL     1       9.913   8.968   1.670  0.00  0.00    -0.009 C 
ATOM     16  C   UNL     1       8.967   9.860   0.854  0.00  0.00    +0.003 C 
ATOM     17  C   UNL     1       9.499   8.944   3.148  0.00  0.00    +0.003 C 
ATOM     21  C   UNL     1       7.509   9.444   1.028  0.00  0.00    +0.000 C 
ATOM     22  C   UNL     1       8.041   8.530   3.319  0.00  0.00    +0.000 C 
ATOM     23  C   UNL     1       7.105   9.413   2.499  0.00  0.00    +0.000 C 
ENDBRANCH  18  12
ENDBRANCH  24  18
ENDBRANCH   7  24
ENDBRANCH  13  27
TORSDOF 8
ENDMDL
MODEL 9
REMARK VINA RESULT:      -6.8     14.462     16.332
REMARK  Name = 7134574
REMARK  8 active torsions:
REMARK  status: ('A' for Active; 'I' for Inactive)
REMARK    1  A    between atoms: N_7  and  C_24
REMARK    2  A    between atoms: N_9  and  C_15
REMARK    3  A    between atoms: N_11  and  C_33
REMARK    4  A    between atoms: C_12  and  C_18
REMARK    5  A    between atoms: C_13  and  C_27
REMARK    6  A    between atoms: C_18  and  C_24
REMARK    7  A    between atoms: C_24  and  C_31
REMARK    8  A    between atoms: C_25  and  C_26
REMARK                            x       y       z     vdW  Elec       q    Type
REMARK                         _______ _______ _______ _____ _____    ______ ____
ROOT
ATOM      2  O   UNL     1      10.466   6.162   5.237  0.00  0.00    -0.274 OA
ATOM      6  N   UNL     1      12.556   7.113   5.625  0.00  0.00    -0.289 N 
ATOM     13  C   UNL     1      13.550   7.670   6.556  0.00  0.00    +0.164 C 
ATOM     14  C   UNL     1      14.994   7.430   6.110  0.00  0.00    +0.054 C 
ATOM     15  C   UNL     1      15.229   7.730   4.627  0.00  0.00    +0.078 C 
ATOM     19  C   UNL     1      14.198   7.000   3.769  0.00  0.00    +0.041 C 
ATOM     20  C   UNL     1      12.781   7.362   4.196  0.00  0.00    +0.110 C 
ATOM     26  C   UNL     1      11.356   6.506   6.018  0.00  0.00    +0.233 C 
ENDROOT
BRANCH  15   9
ATOM      5  O   UNL     1      17.632   9.192   5.166  0.00  0.00    -0.253 OA
ATOM      9  N   UNL     1      16.568   7.363   4.235  0.00  0.00    -0.296 N 
ATOM     11  N   UNL     1      18.849   7.535   4.035  0.00  0.00    -0.269 N 
ATOM     32  C   UNL     1      17.693   8.137   4.540  0.00  0.00    +0.304 C 
ATOM     41  H   UNL     1      16.710   6.466   3.780  0.00  0.00    +0.151 HD
ATOM     44  H   UNL     1      18.726   6.658   3.535  0.00  0.00    +0.156 HD
BRANCH  11  33
ATOM      1  F   UNL     1      22.642   9.765   2.116  0.00  0.00    -0.205 F 
ATOM     33  C   UNL     1      20.182   7.998   4.130  0.00  0.00    +0.037 A 
ATOM     34  C   UNL     1      20.767   8.665   3.054  0.00  0.00    +0.061 A 
ATOM     35  C   UNL     1      20.913   7.786   5.300  0.00  0.00    +0.023 A 
ATOM     36  C   UNL     1      22.082   9.123   3.148  0.00  0.00    +0.125 A 
ATOM     37  C   UNL     1      22.227   8.244   5.394  0.00  0.00    +0.005 A 
ATOM     38  C   UNL     1      22.812   8.911   4.318  0.00  0.00    +0.038 A 
ENDBRANCH  11  33
ENDBRANCH  15   9
BRANCH  26  25
ATOM      8  N   UNL     1      10.755   4.868   7.621  0.00  0.00    -0.306 NA
ATOM     25  C   UNL     1      11.174   6.262   7.479  0.00  0.00    +0.141 C 
ATOM     28  C   UNL     1      10.054   7.109   8.072  0.00  0.00    +0.029 C 
ATOM     29  C   UNL     1       8.998   6.103   8.503  0.00  0.00    +0.017 C 
ATOM     30  C   UNL     1       9.796   4.834   8.721  0.00  0.00    +0.081 C 
ATOM     40  H   UNL     1      11.550   4.258   7.806  0.00  0.00    +0.123 HD
ENDBRANCH  26  25
BRANCH  13  27
ATOM      3  O   UNL     1      14.109   9.992   6.602  0.00  0.00    -0.274 OA
ATOM      7  N   UNL     1      11.901   9.356   6.977  0.00  0.00    -0.302 N 
ATOM     27  C   UNL     1      13.239   9.131   6.702  0.00  0.00    +0.234 C 
ATOM     39  H   UNL     1      11.260   8.572   7.037  0.00  0.00    +0.150 HD
BRANCH   7  24
ATOM     24  C   UNL     1      11.348  10.675   7.187  0.00  0.00    +0.159 C 
BRANCH  24  31
ATOM      4  O   UNL     1       9.997  10.661   9.206  0.00  0.00    -0.274 OA
ATOM     10  N   UNL     1      12.191  11.320   9.361  0.00  0.00    -0.328 N 
ATOM     31  C   UNL     1      11.085  10.864   8.674  0.00  0.00    +0.231 C 
ATOM     42  H   UNL     1      12.147  11.496  10.360  0.00  0.00    +0.145 HD
ATOM     43  H   UNL     1      13.080  11.503   8.907  0.00  0.00    +0.145 HD
ENDBRANCH  24  31
BRANCH  24  18
ATOM     18  C   UNL     1      10.104  10.924   6.328  0.00  0.00    +0.035 C 
BRANCH  18  12
ATOM     12  C   UNL     1       9.743   9.767   5.398  0.00  0.00    -0.009 C 
ATOM     16  C   UNL     1      10.052  10.129   3.939  0.00  0.00    +0.003 C 
ATOM     17  C   UNL     1       8.267   9.379   5.563  0.00  0.00    +0.003 C 
ATOM     21  C   UNL     1       9.651   9.008   2.983  0.00  0.00    +0.000 C 
ATOM     22  C   UNL     1       7.868   8.260   4.605  0.00  0.00    +0.000 C 
ATOM     23  C   UNL     1       8.186   8.620   3.157  0.00  0.00    +0.000 C 
ENDBRANCH  18  12
ENDBRANCH  24  18
ENDBRANCH   7  24
ENDBRANCH  13  27
TORSDOF 8
ENDMDL
MODEL 10
REMARK VINA RESULT:      -6.6     30.066     34.233
REMARK  Name = 7134574
REMARK  8 active torsions:
REMARK  status: ('A' for Active; 'I' for Inactive)
REMARK    1  A    between atoms: N_7  and  C_24
REMARK    2  A    between atoms: N_9  and  C_15
REMARK    3  A    between atoms: N_11  and  C_33
REMARK    4  A    between atoms: C_12  and  C_18
REMARK    5  A    between atoms: C_13  and  C_27
REMARK    6  A    between atoms: C_18  and  C_24
REMARK    7  A    between atoms: C_24  and  C_31
REMARK    8  A    between atoms: C_25  and  C_26
REMARK                            x       y       z     vdW  Elec       q    Type
REMARK                         _______ _______ _______ _____ _____    ______ ____
ROOT
ATOM      2  O   UNL     1      -8.041 -11.988  16.744  0.00  0.00    -0.274 OA
ATOM      6  N   UNL     1      -9.547 -10.234  17.025  0.00  0.00    -0.289 N 
ATOM     13  C   UNL     1     -10.281  -9.313  17.907  0.00  0.00    +0.164 C 
ATOM     14  C   UNL     1     -10.553  -7.952  17.264  0.00  0.00    +0.054 C 
ATOM     15  C   UNL     1     -11.073  -8.053  15.827  0.00  0.00    +0.078 C 
ATOM     19  C   UNL     1     -10.156  -8.946  14.994  0.00  0.00    +0.041 C 
ATOM     20  C   UNL     1     -10.010 -10.321  15.634  0.00  0.00    +0.110 C 
ATOM     26  C   UNL     1      -8.558 -11.125  17.459  0.00  0.00    +0.233 C 
ENDROOT
BRANCH  15   9
ATOM      5  O   UNL     1     -12.978  -7.231  13.852  0.00  0.00    -0.253 OA
ATOM      9  N   UNL     1     -11.186  -6.744  15.230  0.00  0.00    -0.296 N 
ATOM     11  N   UNL     1     -12.019  -5.088  13.873  0.00  0.00    -0.269 N 
ATOM     32  C   UNL     1     -12.150  -6.423  14.267  0.00  0.00    +0.304 C 
ATOM     41  H   UNL     1     -10.586  -6.001  15.576  0.00  0.00    +0.151 HD
ATOM     44  H   UNL     1     -11.275  -4.554  14.315  0.00  0.00    +0.156 HD
BRANCH  11  33
ATOM      1  F   UNL     1     -12.579  -3.232   9.482  0.00  0.00    -0.205 F 
ATOM     33  C   UNL     1     -12.796  -4.382  12.926  0.00  0.00    +0.037 A 
ATOM     34  C   UNL     1     -12.294  -4.149  11.646  0.00  0.00    +0.061 A 
ATOM     35  C   UNL     1     -14.065  -3.917  13.273  0.00  0.00    +0.023 A 
ATOM     36  C   UNL     1     -13.061  -3.454  10.711  0.00  0.00    +0.125 A 
ATOM     37  C   UNL     1     -14.832  -3.221  12.338  0.00  0.00    +0.005 A 
ATOM     38  C   UNL     1     -14.330  -2.989  11.058  0.00  0.00    +0.038 A 
ENDBRANCH  11  33
ENDBRANCH  15   9
BRANCH  26  25
ATOM      8  N   UNL     1      -7.094  -9.943  18.899  0.00  0.00    -0.306 NA
ATOM     25  C   UNL     1      -8.110 -10.995  18.876  0.00  0.00    +0.141 C 
ATOM     28  C   UNL     1      -7.430 -12.260  19.388  0.00  0.00    +0.029 C 
ATOM     29  C   UNL     1      -5.990 -11.844  19.648  0.00  0.00    +0.017 C 
ATOM     30  C   UNL     1      -6.098 -10.352  19.885  0.00  0.00    +0.081 C 
ATOM     40  H   UNL     1      -7.501  -9.040  19.137  0.00  0.00    +0.123 HD
ENDBRANCH  26  25
BRANCH  13  27
ATOM      3  O   UNL     1     -11.558 -11.195  18.638  0.00  0.00    -0.274 OA
ATOM      7  N   UNL     1     -12.650  -9.177  18.239  0.00  0.00    -0.302 N 
ATOM     27  C   UNL     1     -11.547 -10.011  18.310  0.00  0.00    +0.234 C 
ATOM     39  H   UNL     1     -12.532  -8.210  17.958  0.00  0.00    +0.150 HD
BRANCH   7  24
ATOM     24  C   UNL     1     -13.992  -9.613  18.552  0.00  0.00    +0.159 C 
BRANCH  24  31
ATOM      4  O   UNL     1     -16.092  -8.625  17.834  0.00  0.00    -0.274 OA
ATOM     10  N   UNL     1     -14.427  -8.909  16.279  0.00  0.00    -0.328 N 
ATOM     31  C   UNL     1     -14.954  -8.990  17.551  0.00  0.00    +0.231 C 
ATOM     42  H   UNL     1     -14.970  -8.520  15.514  0.00  0.00    +0.145 HD
ATOM     43  H   UNL     1     -13.492  -9.232  16.052  0.00  0.00    +0.145 HD
ENDBRANCH  24  31
BRANCH  24  18
ATOM     18  C   UNL     1     -14.373  -9.315  20.006  0.00  0.00    +0.035 C 
BRANCH  18  12
ATOM     12  C   UNL     1     -14.897 -10.524  20.777  0.00  0.00    -0.009 C 
ATOM     16  C   UNL     1     -16.005 -10.105  21.753  0.00  0.00    +0.003 C 
ATOM     17  C   UNL     1     -13.755 -11.232  21.519  0.00  0.00    +0.003 C 
ATOM     21  C   UNL     1     -16.510 -11.289  22.575  0.00  0.00    +0.000 C 
ATOM     22  C   UNL     1     -14.264 -12.413  22.340  0.00  0.00    +0.000 C 
ATOM     23  C   UNL     1     -15.371 -11.994  23.303  0.00  0.00    +0.000 C 
ENDBRANCH  18  12
ENDBRANCH  24  18
ENDBRANCH   7  24
ENDBRANCH  13  27
TORSDOF 8
ENDMDL
