MODEL 1
REMARK VINA RESULT:      -7.7      0.000      0.000
REMARK  Name = 26743734
REMARK  7 active torsions:
REMARK  status: ('A' for Active; 'I' for Inactive)
REMARK    1  A    between atoms: O_4  and  C_13
REMARK    2  A    between atoms: O_6  and  C_28
REMARK    3  A    between atoms: O_6  and  C_29
REMARK    4  A    between atoms: N_7  and  C_15
REMARK    5  A    between atoms: C_11  and  C_16
REMARK    6  A    between atoms: C_15  and  C_17
REMARK    7  A    between atoms: C_18  and  C_21
REMARK                            x       y       z     vdW  Elec       q    Type
REMARK                         _______ _______ _______ _____ _____    ______ ____
ROOT
ATOM      5  O   UNL     1      14.415   6.754  19.535  0.00  0.00    -0.336 OA
ATOM      8  N   UNL     1      15.662   7.556  21.215  0.00  0.00    -0.190 NA
ATOM      9  N   UNL     1      15.701   6.230  19.351  0.00  0.00    -0.056 NA
ATOM     16  C   UNL     1      14.481   7.524  20.653  0.00  0.00    +0.245 A 
ATOM     18  C   UNL     1      16.378   6.748  20.381  0.00  0.00    +0.202 A 
ENDROOT
BRANCH  18  21
ATOM     21  C   UNL     1      17.769   6.478  20.603  0.00  0.00    +0.023 A 
ATOM     24  C   UNL     1      18.423   5.510  19.839  0.00  0.00    +0.015 A 
ATOM     25  C   UNL     1      18.468   7.182  21.583  0.00  0.00    +0.015 A 
ATOM     26  C   UNL     1      19.775   5.247  20.056  0.00  0.00    +0.046 A 
ATOM     27  C   UNL     1      19.821   6.919  21.800  0.00  0.00    +0.046 A 
ATOM     28  C   UNL     1      20.475   5.952  21.037  0.00  0.00    +0.130 A 
BRANCH  28   6
ATOM      6  O   UNL     1      21.794   5.696  21.249  0.00  0.00    -0.406 OA
BRANCH   6  29
ATOM      1  F   UNL     1      21.821   5.224  23.455  0.00  0.00    -0.133 F 
ATOM      2  F   UNL     1      21.460   3.582  22.058  0.00  0.00    -0.133 F 
ATOM      3  F   UNL     1      23.470   4.485  22.227  0.00  0.00    -0.133 F 
ATOM     29  C   UNL     1      22.144   4.733  22.237  0.00  0.00    +0.575 C 
ENDBRANCH   6  29
ENDBRANCH  28   6
ENDBRANCH  18  21
BRANCH  16  11
ATOM      7  N   UNL     1      12.412   8.701  19.922  0.00  0.00    -0.285 NA
ATOM     11  C   UNL     1      13.198   8.213  21.073  0.00  0.00    +0.149 C 
ATOM     12  C   UNL     1      12.242   7.277  21.835  0.00  0.00    +0.061 C 
ATOM     13  C   UNL     1      10.930   7.339  21.063  0.00  0.00    +0.130 C 
ATOM     14  C   UNL     1      11.010   8.668  20.335  0.00  0.00    +0.116 C 
BRANCH  13   4
ATOM      4  O   UNL     1       9.826   7.290  21.945  0.00  0.00    -0.390 OA
ATOM     30  H   UNL     1       9.192   6.648  21.581  0.00  0.00    +0.210 HD
ENDBRANCH  13   4
BRANCH   7  15
ATOM     15  C   UNL     1      12.819  10.024  19.468  0.00  0.00    +0.120 C 
BRANCH  15  17
ATOM     10  N   UNL     1      13.711  10.076  15.261  0.00  0.00    -0.263 NA
ATOM     17  C   UNL     1      13.131  10.041  17.995  0.00  0.00    -0.030 A 
ATOM     19  C   UNL     1      12.354   9.307  17.108  0.00  0.00    +0.024 A 
ATOM     20  C   UNL     1      14.199  10.794  17.517  0.00  0.00    +0.024 A 
ATOM     22  C   UNL     1      12.681   9.357  15.763  0.00  0.00    +0.111 A 
ATOM     23  C   UNL     1      14.445  10.777  16.154  0.00  0.00    +0.111 A 
ENDBRANCH  15  17
ENDBRANCH   7  15
ENDBRANCH  16  11
TORSDOF 7
ENDMDL
MODEL 2
REMARK VINA RESULT:      -7.2     26.422     29.513
REMARK  Name = 26743734
REMARK  7 active torsions:
REMARK  status: ('A' for Active; 'I' for Inactive)
REMARK    1  A    between atoms: O_4  and  C_13
REMARK    2  A    between atoms: O_6  and  C_28
REMARK    3  A    between atoms: O_6  and  C_29
REMARK    4  A    between atoms: N_7  and  C_15
REMARK    5  A    between atoms: C_11  and  C_16
REMARK    6  A    between atoms: C_15  and  C_17
REMARK    7  A    between atoms: C_18  and  C_21
REMARK                            x       y       z     vdW  Elec       q    Type
REMARK                         _______ _______ _______ _____ _____    ______ ____
ROOT
ATOM      5  O   UNL     1      -5.369 -12.183  16.275  0.00  0.00    -0.336 OA
ATOM      8  N   UNL     1      -5.622 -10.197  15.271  0.00  0.00    -0.190 NA
ATOM      9  N   UNL     1      -6.680 -11.773  16.549  0.00  0.00    -0.056 NA
ATOM     16  C   UNL     1      -4.817 -11.197  15.519  0.00  0.00    +0.245 A 
ATOM     18  C   UNL     1      -6.754 -10.594  15.923  0.00  0.00    +0.202 A 
ENDROOT
BRANCH  18  21
ATOM     21  C   UNL     1      -7.941  -9.789  15.932  0.00  0.00    +0.023 A 
ATOM     24  C   UNL     1      -8.732  -9.700  14.786  0.00  0.00    +0.015 A 
ATOM     25  C   UNL     1      -8.304  -9.095  17.086  0.00  0.00    +0.015 A 
ATOM     26  C   UNL     1      -9.886  -8.917  14.794  0.00  0.00    +0.046 A 
ATOM     27  C   UNL     1      -9.458  -8.311  17.095  0.00  0.00    +0.046 A 
ATOM     28  C   UNL     1     -10.248  -8.221  15.949  0.00  0.00    +0.130 A 
BRANCH  28   6
ATOM      6  O   UNL     1     -11.374  -7.457  15.958  0.00  0.00    -0.406 OA
BRANCH   6  29
ATOM      1  F   UNL     1     -12.240  -5.552  15.113  0.00  0.00    -0.133 F 
ATOM      2  F   UNL     1     -11.302  -5.468  17.085  0.00  0.00    -0.133 F 
ATOM      3  F   UNL     1     -10.067  -5.712  15.269  0.00  0.00    -0.133 F 
ATOM     29  C   UNL     1     -11.230  -6.044  15.865  0.00  0.00    +0.575 C 
ENDBRANCH   6  29
ENDBRANCH  28   6
ENDBRANCH  18  21
BRANCH  16  11
ATOM      7  N   UNL     1      -3.017 -10.584  13.911  0.00  0.00    -0.285 NA
ATOM     11  C   UNL     1      -3.380 -11.405  15.085  0.00  0.00    +0.149 C 
ATOM     12  C   UNL     1      -2.366 -11.007  16.173  0.00  0.00    +0.061 C 
ATOM     13  C   UNL     1      -1.447  -9.993  15.504  0.00  0.00    +0.130 C 
ATOM     14  C   UNL     1      -1.587 -10.309  14.026  0.00  0.00    +0.116 C 
BRANCH  13   4
ATOM      4  O   UNL     1      -0.114 -10.152  15.950  0.00  0.00    -0.390 OA
ATOM     30  H   UNL     1      -0.139 -10.227  16.919  0.00  0.00    +0.210 HD
ENDBRANCH  13   4
BRANCH   7  15
ATOM     15  C   UNL     1      -3.354 -11.216  12.643  0.00  0.00    +0.120 C 
BRANCH  15  17
ATOM     10  N   UNL     1      -4.902  -8.383   9.800  0.00  0.00    -0.263 NA
ATOM     17  C   UNL     1      -3.895 -10.224  11.647  0.00  0.00    -0.030 A 
ATOM     19  C   UNL     1      -3.146  -9.877  10.529  0.00  0.00    +0.024 A 
ATOM     20  C   UNL     1      -5.148  -9.652  11.843  0.00  0.00    +0.024 A 
ATOM     22  C   UNL     1      -3.689  -8.961   9.643  0.00  0.00    +0.111 A 
ATOM     23  C   UNL     1      -5.601  -8.745  10.899  0.00  0.00    +0.111 A 
ENDBRANCH  15  17
ENDBRANCH   7  15
ENDBRANCH  16  11
TORSDOF 7
ENDMDL
MODEL 3
REMARK VINA RESULT:      -6.6     16.335     19.942
REMARK  Name = 26743734
REMARK  7 active torsions:
REMARK  status: ('A' for Active; 'I' for Inactive)
REMARK    1  A    between atoms: O_4  and  C_13
REMARK    2  A    between atoms: O_6  and  C_28
REMARK    3  A    between atoms: O_6  and  C_29
REMARK    4  A    between atoms: N_7  and  C_15
REMARK    5  A    between atoms: C_11  and  C_16
REMARK    6  A    between atoms: C_15  and  C_17
REMARK    7  A    between atoms: C_18  and  C_21
REMARK                            x       y       z     vdW  Elec       q    Type
REMARK                         _______ _______ _______ _____ _____    ______ ____
ROOT
ATOM      5  O   UNL     1      12.564   6.098   0.934  0.00  0.00    -0.336 OA
ATOM      8  N   UNL     1      12.467   4.469   2.469  0.00  0.00    -0.190 NA
ATOM      9  N   UNL     1      11.798   6.605   1.993  0.00  0.00    -0.056 NA
ATOM     16  C   UNL     1      12.916   4.837   1.296  0.00  0.00    +0.245 A 
ATOM     18  C   UNL     1      11.786   5.586   2.858  0.00  0.00    +0.202 A 
ENDROOT
BRANCH  18  21
ATOM     21  C   UNL     1      11.104   5.652   4.118  0.00  0.00    +0.023 A 
ATOM     24  C   UNL     1       9.998   4.834   4.356  0.00  0.00    +0.015 A 
ATOM     25  C   UNL     1      11.543   6.535   5.103  0.00  0.00    +0.015 A 
ATOM     26  C   UNL     1       9.334   4.899   5.580  0.00  0.00    +0.046 A 
ATOM     27  C   UNL     1      10.878   6.601   6.328  0.00  0.00    +0.046 A 
ATOM     28  C   UNL     1       9.774   5.784   6.567  0.00  0.00    +0.130 A 
BRANCH  28   6
ATOM      6  O   UNL     1       9.126   5.847   7.762  0.00  0.00    -0.406 OA
BRANCH   6  29
ATOM      1  F   UNL     1       8.667   5.011   9.807  0.00  0.00    -0.133 F 
ATOM      2  F   UNL     1       9.813   3.768   8.422  0.00  0.00    -0.133 F 
ATOM      3  F   UNL     1      10.737   5.545   9.356  0.00  0.00    -0.133 F 
ATOM     29  C   UNL     1       9.603   5.038   8.831  0.00  0.00    +0.575 C 
ENDBRANCH   6  29
ENDBRANCH  28   6
ENDBRANCH  18  21
BRANCH  16  11
ATOM      7  N   UNL     1      13.166   4.028  -1.046  0.00  0.00    -0.285 NA
ATOM     11  C   UNL     1      13.762   4.063   0.305  0.00  0.00    +0.149 C 
ATOM     12  C   UNL     1      15.158   4.681   0.105  0.00  0.00    +0.061 C 
ATOM     13  C   UNL     1      15.273   4.917  -1.396  0.00  0.00    +0.130 C 
ATOM     14  C   UNL     1      14.281   3.934  -1.987  0.00  0.00    +0.116 C 
BRANCH  13   4
ATOM      4  O   UNL     1      16.591   4.666  -1.844  0.00  0.00    -0.390 OA
ATOM     30  H   UNL     1      16.955   3.954  -1.291  0.00  0.00    +0.210 HD
ENDBRANCH  13   4
BRANCH   7  15
ATOM     15  C   UNL     1      12.206   2.947  -1.223  0.00  0.00    +0.120 C 
BRANCH  15  17
ATOM     10  N   UNL     1       8.961   4.090  -3.805  0.00  0.00    -0.263 NA
ATOM     17  C   UNL     1      11.071   3.347  -2.127  0.00  0.00    -0.030 A 
ATOM     19  C   UNL     1      10.603   2.464  -3.093  0.00  0.00    +0.024 A 
ATOM     20  C   UNL     1      10.484   4.601  -1.998  0.00  0.00    +0.024 A 
ATOM     22  C   UNL     1       9.556   2.879  -3.900  0.00  0.00    +0.111 A 
ATOM     23  C   UNL     1       9.443   4.921  -2.854  0.00  0.00    +0.111 A 
ENDBRANCH  15  17
ENDBRANCH   7  15
ENDBRANCH  16  11
TORSDOF 7
ENDMDL
MODEL 4
REMARK VINA RESULT:      -6.6     16.164     19.953
REMARK  Name = 26743734
REMARK  7 active torsions:
REMARK  status: ('A' for Active; 'I' for Inactive)
REMARK    1  A    between atoms: O_4  and  C_13
REMARK    2  A    between atoms: O_6  and  C_28
REMARK    3  A    between atoms: O_6  and  C_29
REMARK    4  A    between atoms: N_7  and  C_15
REMARK    5  A    between atoms: C_11  and  C_16
REMARK    6  A    between atoms: C_15  and  C_17
REMARK    7  A    between atoms: C_18  and  C_21
REMARK                            x       y       z     vdW  Elec       q    Type
REMARK                         _______ _______ _______ _____ _____    ______ ____
ROOT
ATOM      5  O   UNL     1      10.054   7.955   0.291  0.00  0.00    -0.336 OA
ATOM      8  N   UNL     1      10.125   5.856   1.071  0.00  0.00    -0.190 NA
ATOM      9  N   UNL     1       9.816   8.043   1.668  0.00  0.00    -0.056 NA
ATOM     16  C   UNL     1      10.224   6.634   0.023  0.00  0.00    +0.245 A 
ATOM     18  C   UNL     1       9.874   6.766   2.057  0.00  0.00    +0.202 A 
ENDROOT
BRANCH  18  21
ATOM     21  C   UNL     1       9.684   6.366   3.421  0.00  0.00    +0.023 A 
ATOM     24  C   UNL     1      10.415   5.298   3.944  0.00  0.00    +0.015 A 
ATOM     25  C   UNL     1       8.767   7.042   4.225  0.00  0.00    +0.015 A 
ATOM     26  C   UNL     1      10.230   4.908   5.269  0.00  0.00    +0.046 A 
ATOM     27  C   UNL     1       8.581   6.652   5.552  0.00  0.00    +0.046 A 
ATOM     28  C   UNL     1       9.312   5.585   6.074  0.00  0.00    +0.130 A 
BRANCH  28   6
ATOM      6  O   UNL     1       9.130   5.205   7.368  0.00  0.00    -0.406 OA
BRANCH   6  29
ATOM      1  F   UNL     1       9.788   5.379   9.520  0.00  0.00    -0.133 F 
ATOM      2  F   UNL     1      10.698   6.723   8.056  0.00  0.00    -0.133 F 
ATOM      3  F   UNL     1       8.595   7.003   8.676  0.00  0.00    -0.133 F 
ATOM     29  C   UNL     1       9.552   6.094   8.397  0.00  0.00    +0.575 C 
ENDBRANCH   6  29
ENDBRANCH  28   6
ENDBRANCH  18  21
BRANCH  16  11
ATOM      7  N   UNL     1      11.340   5.060  -1.552  0.00  0.00    -0.285 NA
ATOM     11  C   UNL     1      10.500   6.268  -1.422  0.00  0.00    +0.149 C 
ATOM     12  C   UNL     1       9.217   5.943  -2.209  0.00  0.00    +0.061 C 
ATOM     13  C   UNL     1       9.448   4.550  -2.782  0.00  0.00    +0.130 C 
ATOM     14  C   UNL     1      10.960   4.426  -2.812  0.00  0.00    +0.116 C 
BRANCH  13   4
ATOM      4  O   UNL     1       8.887   4.440  -4.075  0.00  0.00    -0.390 OA
ATOM     30  H   UNL     1       8.511   5.307  -4.304  0.00  0.00    +0.210 HD
ENDBRANCH  13   4
BRANCH   7  15
ATOM     15  C   UNL     1      12.767   5.344  -1.488  0.00  0.00    +0.120 C 
BRANCH  15  17
ATOM     10  N   UNL     1      14.693   3.190   1.699  0.00  0.00    -0.263 NA
ATOM     17  C   UNL     1      13.441   4.590  -0.372  0.00  0.00    -0.030 A 
ATOM     19  C   UNL     1      12.682   3.862   0.536  0.00  0.00    +0.024 A 
ATOM     20  C   UNL     1      14.826   4.619  -0.247  0.00  0.00    +0.024 A 
ATOM     22  C   UNL     1      13.349   3.185   1.544  0.00  0.00    +0.111 A 
ATOM     23  C   UNL     1      15.397   3.909   0.797  0.00  0.00    +0.111 A 
ENDBRANCH  15  17
ENDBRANCH   7  15
ENDBRANCH  16  11
TORSDOF 7
ENDMDL
MODEL 5
REMARK VINA RESULT:      -6.6      2.173      3.400
REMARK  Name = 26743734
REMARK  7 active torsions:
REMARK  status: ('A' for Active; 'I' for Inactive)
REMARK    1  A    between atoms: O_4  and  C_13
REMARK    2  A    between atoms: O_6  and  C_28
REMARK    3  A    between atoms: O_6  and  C_29
REMARK    4  A    between atoms: N_7  and  C_15
REMARK    5  A    between atoms: C_11  and  C_16
REMARK    6  A    between atoms: C_15  and  C_17
REMARK    7  A    between atoms: C_18  and  C_21
REMARK                            x       y       z     vdW  Elec       q    Type
REMARK                         _______ _______ _______ _____ _____    ______ ____
ROOT
ATOM      5  O   UNL     1      14.349   6.951  19.695  0.00  0.00    -0.336 OA
ATOM      8  N   UNL     1      15.599   7.579  21.444  0.00  0.00    -0.190 NA
ATOM      9  N   UNL     1      15.644   6.483  19.436  0.00  0.00    -0.056 NA
ATOM     16  C   UNL     1      14.411   7.585  20.895  0.00  0.00    +0.245 A 
ATOM     18  C   UNL     1      16.322   6.893  20.513  0.00  0.00    +0.202 A 
ENDROOT
BRANCH  18  21
ATOM     21  C   UNL     1      17.722   6.633  20.686  0.00  0.00    +0.023 A 
ATOM     24  C   UNL     1      18.351   5.656  19.914  0.00  0.00    +0.015 A 
ATOM     25  C   UNL     1      18.453   7.356  21.628  0.00  0.00    +0.015 A 
ATOM     26  C   UNL     1      19.712   5.402  20.084  0.00  0.00    +0.046 A 
ATOM     27  C   UNL     1      19.815   7.102  21.798  0.00  0.00    +0.046 A 
ATOM     28  C   UNL     1      20.444   6.125  21.027  0.00  0.00    +0.130 A 
BRANCH  28   6
ATOM      6  O   UNL     1      21.772   5.879  21.193  0.00  0.00    -0.406 OA
BRANCH   6  29
ATOM      1  F   UNL     1      23.830   6.284  20.360  0.00  0.00    -0.133 F 
ATOM      2  F   UNL     1      22.205   7.626  19.781  0.00  0.00    -0.133 F 
ATOM      3  F   UNL     1      23.024   7.682  21.833  0.00  0.00    -0.133 F 
ATOM     29  C   UNL     1      22.699   6.884  20.795  0.00  0.00    +0.575 C 
ENDBRANCH   6  29
ENDBRANCH  28   6
ENDBRANCH  18  21
BRANCH  16  11
ATOM      7  N   UNL     1      12.375   8.914  20.358  0.00  0.00    -0.285 NA
ATOM     11  C   UNL     1      13.119   8.188  21.407  0.00  0.00    +0.149 C 
ATOM     12  C   UNL     1      12.132   7.127  21.928  0.00  0.00    +0.061 C 
ATOM     13  C   UNL     1      10.848   7.364  21.144  0.00  0.00    +0.130 C 
ATOM     14  C   UNL     1      10.960   8.813  20.709  0.00  0.00    +0.116 C 
BRANCH  13   4
ATOM      4  O   UNL     1       9.714   7.147  21.960  0.00  0.00    -0.390 OA
ATOM     30  H   UNL     1       9.040   7.799  21.700  0.00  0.00    +0.210 HD
ENDBRANCH  13   4
BRANCH   7  15
ATOM     15  C   UNL     1      12.804  10.297  20.201  0.00  0.00    +0.120 C 
BRANCH  15  17
ATOM     10  N   UNL     1      12.233  12.575  23.804  0.00  0.00    -0.263 NA
ATOM     17  C   UNL     1      12.605  11.094  21.463  0.00  0.00    -0.030 A 
ATOM     19  C   UNL     1      13.575  11.082  22.457  0.00  0.00    +0.024 A 
ATOM     20  C   UNL     1      11.448  11.847  21.637  0.00  0.00    +0.024 A 
ATOM     22  C   UNL     1      13.344  11.832  23.598  0.00  0.00    +0.111 A 
ATOM     23  C   UNL     1      11.311  12.562  22.814  0.00  0.00    +0.111 A 
ENDBRANCH  15  17
ENDBRANCH   7  15
ENDBRANCH  16  11
TORSDOF 7
ENDMDL
MODEL 6
REMARK VINA RESULT:      -6.5     14.808     18.431
REMARK  Name = 26743734
REMARK  7 active torsions:
REMARK  status: ('A' for Active; 'I' for Inactive)
REMARK    1  A    between atoms: O_4  and  C_13
REMARK    2  A    between atoms: O_6  and  C_28
REMARK    3  A    between atoms: O_6  and  C_29
REMARK    4  A    between atoms: N_7  and  C_15
REMARK    5  A    between atoms: C_11  and  C_16
REMARK    6  A    between atoms: C_15  and  C_17
REMARK    7  A    between atoms: C_18  and  C_21
REMARK                            x       y       z     vdW  Elec       q    Type
REMARK                         _______ _______ _______ _____ _____    ______ ____
ROOT
ATOM      5  O   UNL     1      12.643   7.170   2.592  0.00  0.00    -0.336 OA
ATOM      8  N   UNL     1      11.539   5.377   3.355  0.00  0.00    -0.190 NA
ATOM      9  N   UNL     1      12.166   7.518   3.863  0.00  0.00    -0.056 NA
ATOM     16  C   UNL     1      12.228   5.895   2.371  0.00  0.00    +0.245 A 
ATOM     18  C   UNL     1      11.526   6.409   4.248  0.00  0.00    +0.202 A 
ENDROOT
BRANCH  18  21
ATOM     21  C   UNL     1      10.863   6.302   5.515  0.00  0.00    +0.023 A 
ATOM     24  C   UNL     1       9.474   6.176   5.568  0.00  0.00    +0.015 A 
ATOM     25  C   UNL     1      11.607   6.324   6.694  0.00  0.00    +0.015 A 
ATOM     26  C   UNL     1       8.830   6.073   6.800  0.00  0.00    +0.046 A 
ATOM     27  C   UNL     1      10.962   6.221   7.928  0.00  0.00    +0.046 A 
ATOM     28  C   UNL     1       9.574   6.096   7.981  0.00  0.00    +0.130 A 
BRANCH  28   6
ATOM      6  O   UNL     1       8.946   5.995   9.184  0.00  0.00    -0.406 OA
BRANCH   6  29
ATOM      1  F   UNL     1      10.149   4.791  10.666  0.00  0.00    -0.133 F 
ATOM      2  F   UNL     1       7.973   4.586  10.701  0.00  0.00    -0.133 F 
ATOM      3  F   UNL     1       9.151   3.722   9.042  0.00  0.00    -0.133 F 
ATOM     29  C   UNL     1       9.040   4.764   9.892  0.00  0.00    +0.575 C 
ENDBRANCH   6  29
ENDBRANCH  28   6
ENDBRANCH  18  21
BRANCH  16  11
ATOM      7  N   UNL     1      13.095   3.886   1.184  0.00  0.00    -0.285 NA
ATOM     11  C   UNL     1      12.623   5.278   1.045  0.00  0.00    +0.149 C 
ATOM     12  C   UNL     1      11.448   5.199   0.052  0.00  0.00    +0.061 C 
ATOM     13  C   UNL     1      11.365   3.731  -0.345  0.00  0.00    +0.130 C 
ATOM     14  C   UNL     1      12.763   3.210  -0.069  0.00  0.00    +0.116 C 
BRANCH  13   4
ATOM      4  O   UNL     1      11.017   3.599  -1.710  0.00  0.00    -0.390 OA
ATOM     30  H   UNL     1      11.353   4.385  -2.173  0.00  0.00    +0.210 HD
ENDBRANCH  13   4
BRANCH   7  15
ATOM     15  C   UNL     1      14.513   3.789   1.501  0.00  0.00    +0.120 C 
BRANCH  15  17
ATOM     10  N   UNL     1      16.917   6.159  -1.165  0.00  0.00    -0.263 NA
ATOM     17  C   UNL     1      15.355   4.617   0.568  0.00  0.00    -0.030 A 
ATOM     19  C   UNL     1      15.921   4.039  -0.562  0.00  0.00    +0.024 A 
ATOM     20  C   UNL     1      15.568   5.966   0.832  0.00  0.00    +0.024 A 
ATOM     22  C   UNL     1      16.686   4.845  -1.390  0.00  0.00    +0.111 A 
ATOM     23  C   UNL     1      16.350   6.686  -0.057  0.00  0.00    +0.111 A 
ENDBRANCH  15  17
ENDBRANCH   7  15
ENDBRANCH  16  11
TORSDOF 7
ENDMDL
MODEL 7
REMARK VINA RESULT:      -6.4     27.087     30.109
REMARK  Name = 26743734
REMARK  7 active torsions:
REMARK  status: ('A' for Active; 'I' for Inactive)
REMARK    1  A    between atoms: O_4  and  C_13
REMARK    2  A    between atoms: O_6  and  C_28
REMARK    3  A    between atoms: O_6  and  C_29
REMARK    4  A    between atoms: N_7  and  C_15
REMARK    5  A    between atoms: C_11  and  C_16
REMARK    6  A    between atoms: C_15  and  C_17
REMARK    7  A    between atoms: C_18  and  C_21
REMARK                            x       y       z     vdW  Elec       q    Type
REMARK                         _______ _______ _______ _____ _____    ______ ____
ROOT
ATOM      5  O   UNL     1      -5.352  -9.686  15.694  0.00  0.00    -0.336 OA
ATOM      8  N   UNL     1      -5.557 -11.504  16.987  0.00  0.00    -0.190 NA
ATOM      9  N   UNL     1      -6.567  -9.543  16.377  0.00  0.00    -0.056 NA
ATOM     16  C   UNL     1      -4.824 -10.867  16.110  0.00  0.00    +0.245 A 
ATOM     18  C   UNL     1      -6.618 -10.654  17.119  0.00  0.00    +0.202 A 
ENDROOT
BRANCH  18  21
ATOM     21  C   UNL     1      -7.711 -10.944  18.000  0.00  0.00    +0.023 A 
ATOM     24  C   UNL     1      -8.854 -10.142  17.981  0.00  0.00    +0.015 A 
ATOM     25  C   UNL     1      -7.633 -12.026  18.876  0.00  0.00    +0.015 A 
ATOM     26  C   UNL     1      -9.917 -10.424  18.838  0.00  0.00    +0.046 A 
ATOM     27  C   UNL     1      -8.697 -12.308  19.734  0.00  0.00    +0.046 A 
ATOM     28  C   UNL     1      -9.838 -11.506  19.715  0.00  0.00    +0.130 A 
BRANCH  28   6
ATOM      6  O   UNL     1     -10.876 -11.782  20.552  0.00  0.00    -0.406 OA
BRANCH   6  29
ATOM      1  F   UNL     1     -12.574 -13.215  20.944  0.00  0.00    -0.133 F 
ATOM      2  F   UNL     1     -12.965 -11.484  19.668  0.00  0.00    -0.133 F 
ATOM      3  F   UNL     1     -11.722 -13.157  18.933  0.00  0.00    -0.133 F 
ATOM     29  C   UNL     1     -12.035 -12.403  20.007  0.00  0.00    +0.575 C 
ENDBRANCH   6  29
ENDBRANCH  28   6
ENDBRANCH  18  21
BRANCH  16  11
ATOM      7  N   UNL     1      -3.211 -10.559  14.238  0.00  0.00    -0.285 NA
ATOM     11  C   UNL     1      -3.488 -11.257  15.510  0.00  0.00    +0.149 C 
ATOM     12  C   UNL     1      -2.300 -10.901  16.422  0.00  0.00    +0.061 C 
ATOM     13  C   UNL     1      -1.386 -10.038  15.561  0.00  0.00    +0.130 C 
ATOM     14  C   UNL     1      -1.758 -10.433  14.144  0.00  0.00    +0.116 C 
BRANCH  13   4
ATOM      4  O   UNL     1      -0.027 -10.311  15.841  0.00  0.00    -0.390 OA
ATOM     30  H   UNL     1       0.096 -11.274  15.777  0.00  0.00    +0.210 HD
ENDBRANCH  13   4
BRANCH   7  15
ATOM     15  C   UNL     1      -3.780 -11.233  13.079  0.00  0.00    +0.120 C 
BRANCH  15  17
ATOM     10  N   UNL     1      -4.716  -8.470   9.917  0.00  0.00    -0.263 NA
ATOM     17  C   UNL     1      -4.107 -10.265  11.972  0.00  0.00    -0.030 A 
ATOM     19  C   UNL     1      -3.215 -10.077  10.923  0.00  0.00    +0.024 A 
ATOM     20  C   UNL     1      -5.304  -9.557  11.995  0.00  0.00    +0.024 A 
ATOM     22  C   UNL     1      -3.563  -9.177   9.929  0.00  0.00    +0.111 A 
ATOM     23  C   UNL     1      -5.558  -8.680  10.954  0.00  0.00    +0.111 A 
ENDBRANCH  15  17
ENDBRANCH   7  15
ENDBRANCH  16  11
TORSDOF 7
ENDMDL
MODEL 8
REMARK VINA RESULT:      -6.4     16.234     19.930
REMARK  Name = 26743734
REMARK  7 active torsions:
REMARK  status: ('A' for Active; 'I' for Inactive)
REMARK    1  A    between atoms: O_4  and  C_13
REMARK    2  A    between atoms: O_6  and  C_28
REMARK    3  A    between atoms: O_6  and  C_29
REMARK    4  A    between atoms: N_7  and  C_15
REMARK    5  A    between atoms: C_11  and  C_16
REMARK    6  A    between atoms: C_15  and  C_17
REMARK    7  A    between atoms: C_18  and  C_21
REMARK                            x       y       z     vdW  Elec       q    Type
REMARK                         _______ _______ _______ _____ _____    ______ ____
ROOT
ATOM      5  O   UNL     1      11.882   2.762   1.970  0.00  0.00    -0.336 OA
ATOM      8  N   UNL     1      12.423   4.892   2.405  0.00  0.00    -0.190 NA
ATOM      9  N   UNL     1      10.926   3.228   2.882  0.00  0.00    -0.056 NA
ATOM     16  C   UNL     1      12.725   3.803   1.745  0.00  0.00    +0.245 A 
ATOM     18  C   UNL     1      11.313   4.491   3.090  0.00  0.00    +0.202 A 
ENDROOT
BRANCH  18  21
ATOM     21  C   UNL     1      10.613   5.376   3.975  0.00  0.00    +0.023 A 
ATOM     24  C   UNL     1       9.985   4.870   5.115  0.00  0.00    +0.015 A 
ATOM     25  C   UNL     1      10.558   6.741   3.697  0.00  0.00    +0.015 A 
ATOM     26  C   UNL     1       9.303   5.731   5.975  0.00  0.00    +0.046 A 
ATOM     27  C   UNL     1       9.876   7.602   4.557  0.00  0.00    +0.046 A 
ATOM     28  C   UNL     1       9.248   7.097   5.695  0.00  0.00    +0.130 A 
BRANCH  28   6
ATOM      6  O   UNL     1       8.583   7.937   6.535  0.00  0.00    -0.406 OA
BRANCH   6  29
ATOM      1  F   UNL     1       8.552   7.390   8.724  0.00  0.00    -0.133 F 
ATOM      2  F   UNL     1      10.471   7.928   7.827  0.00  0.00    -0.133 F 
ATOM      3  F   UNL     1       8.935   9.474   8.191  0.00  0.00    -0.133 F 
ATOM     29  C   UNL     1       9.147   8.196   7.816  0.00  0.00    +0.575 C 
ENDBRANCH   6  29
ENDBRANCH  28   6
ENDBRANCH  18  21
BRANCH  16  11
ATOM      7  N   UNL     1      13.566   4.028  -0.588  0.00  0.00    -0.285 NA
ATOM     11  C   UNL     1      13.864   3.551   0.778  0.00  0.00    +0.149 C 
ATOM     12  C   UNL     1      15.157   4.285   1.178  0.00  0.00    +0.061 C 
ATOM     13  C   UNL     1      15.534   5.114  -0.043  0.00  0.00    +0.130 C 
ATOM     14  C   UNL     1      14.848   4.393  -1.188  0.00  0.00    +0.116 C 
BRANCH  13   4
ATOM      4  O   UNL     1      16.938   5.150  -0.213  0.00  0.00    -0.390 OA
ATOM     30  H   UNL     1      17.339   5.085   0.671  0.00  0.00    +0.210 HD
ENDBRANCH  13   4
BRANCH   7  15
ATOM     15  C   UNL     1      12.842   3.052  -1.392  0.00  0.00    +0.120 C 
BRANCH  15  17
ATOM     10  N   UNL     1       9.113   4.622  -2.850  0.00  0.00    -0.263 NA
ATOM     17  C   UNL     1      11.536   3.601  -1.901  0.00  0.00    -0.030 A 
ATOM     19  C   UNL     1      10.913   4.650  -1.236  0.00  0.00    +0.024 A 
ATOM     20  C   UNL     1      10.950   3.062  -3.042  0.00  0.00    +0.024 A 
ATOM     22  C   UNL     1       9.714   5.120  -1.746  0.00  0.00    +0.111 A 
ATOM     23  C   UNL     1       9.749   3.603  -3.470  0.00  0.00    +0.111 A 
ENDBRANCH  15  17
ENDBRANCH   7  15
ENDBRANCH  16  11
TORSDOF 7
ENDMDL
MODEL 9
REMARK VINA RESULT:      -6.3     27.180     30.012
REMARK  Name = 26743734
REMARK  7 active torsions:
REMARK  status: ('A' for Active; 'I' for Inactive)
REMARK    1  A    between atoms: O_4  and  C_13
REMARK    2  A    between atoms: O_6  and  C_28
REMARK    3  A    between atoms: O_6  and  C_29
REMARK    4  A    between atoms: N_7  and  C_15
REMARK    5  A    between atoms: C_11  and  C_16
REMARK    6  A    between atoms: C_15  and  C_17
REMARK    7  A    between atoms: C_18  and  C_21
REMARK                            x       y       z     vdW  Elec       q    Type
REMARK                         _______ _______ _______ _____ _____    ______ ____
ROOT
ATOM      5  O   UNL     1      -7.211 -10.700  20.067  0.00  0.00    -0.336 OA
ATOM      8  N   UNL     1      -7.404 -11.863  18.162  0.00  0.00    -0.190 NA
ATOM      9  N   UNL     1      -5.998 -10.536  19.386  0.00  0.00    -0.056 NA
ATOM     16  C   UNL     1      -7.980 -11.495  19.277  0.00  0.00    +0.245 A 
ATOM     18  C   UNL     1      -6.189 -11.251  18.272  0.00  0.00    +0.202 A 
ENDROOT
BRANCH  18  21
ATOM     21  C   UNL     1      -5.187 -11.374  17.254  0.00  0.00    +0.023 A 
ATOM     24  C   UNL     1      -4.053 -10.560  17.288  0.00  0.00    +0.015 A 
ATOM     25  C   UNL     1      -5.346 -12.306  16.229  0.00  0.00    +0.015 A 
ATOM     26  C   UNL     1      -3.080 -10.679  16.297  0.00  0.00    +0.046 A 
ATOM     27  C   UNL     1      -4.372 -12.425  15.237  0.00  0.00    +0.046 A 
ATOM     28  C   UNL     1      -3.239 -11.612  15.271  0.00  0.00    +0.130 A 
BRANCH  28   6
ATOM      6  O   UNL     1      -2.289 -11.728  14.304  0.00  0.00    -0.406 OA
BRANCH   6  29
ATOM      1  F   UNL     1      -1.383  -9.735  13.758  0.00  0.00    -0.133 F 
ATOM      2  F   UNL     1      -1.694 -11.192  12.160  0.00  0.00    -0.133 F 
ATOM      3  F   UNL     1      -3.417 -10.158  13.081  0.00  0.00    -0.133 F 
ATOM     29  C   UNL     1      -2.207 -10.709  13.313  0.00  0.00    +0.575 C 
ENDBRANCH   6  29
ENDBRANCH  28   6
ENDBRANCH  18  21
BRANCH  16  11
ATOM      7  N   UNL     1     -10.438 -11.323  18.917  0.00  0.00    -0.285 NA
ATOM     11  C   UNL     1      -9.364 -11.826  19.798  0.00  0.00    +0.149 C 
ATOM     12  C   UNL     1      -9.615 -13.342  19.900  0.00  0.00    +0.061 C 
ATOM     13  C   UNL     1     -10.876 -13.589  19.081  0.00  0.00    +0.130 C 
ATOM     14  C   UNL     1     -11.566 -12.238  19.078  0.00  0.00    +0.116 C 
BRANCH  13   4
ATOM      4  O   UNL     1     -11.678 -14.586  19.683  0.00  0.00    -0.390 OA
ATOM     30  H   UNL     1     -12.577 -14.493  19.323  0.00  0.00    +0.210 HD
ENDBRANCH  13   4
BRANCH   7  15
ATOM     15  C   UNL     1     -10.808  -9.942  19.194  0.00  0.00    +0.120 C 
BRANCH  15  17
ATOM     10  N   UNL     1     -10.885  -7.557  15.615  0.00  0.00    -0.263 NA
ATOM     17  C   UNL     1     -10.834  -9.106  17.942  0.00  0.00    -0.030 A 
ATOM     19  C   UNL     1      -9.655  -8.581  17.427  0.00  0.00    +0.024 A 
ATOM     20  C   UNL     1     -12.040  -8.858  17.293  0.00  0.00    +0.024 A 
ATOM     22  C   UNL     1      -9.733  -7.820  16.272  0.00  0.00    +0.111 A 
ATOM     23  C   UNL     1     -12.012  -8.084  16.145  0.00  0.00    +0.111 A 
ENDBRANCH  15  17
ENDBRANCH   7  15
ENDBRANCH  16  11
TORSDOF 7
ENDMDL
MODEL 10
REMARK VINA RESULT:      -6.2     28.110     31.222
REMARK  Name = 26743734
REMARK  7 active torsions:
REMARK  status: ('A' for Active; 'I' for Inactive)
REMARK    1  A    between atoms: O_4  and  C_13
REMARK    2  A    between atoms: O_6  and  C_28
REMARK    3  A    between atoms: O_6  and  C_29
REMARK    4  A    between atoms: N_7  and  C_15
REMARK    5  A    between atoms: C_11  and  C_16
REMARK    6  A    between atoms: C_15  and  C_17
REMARK    7  A    between atoms: C_18  and  C_21
REMARK                            x       y       z     vdW  Elec       q    Type
REMARK                         _______ _______ _______ _____ _____    ______ ____
ROOT
ATOM      5  O   UNL     1      -8.912 -11.020  20.277  0.00  0.00    -0.336 OA
ATOM      8  N   UNL     1      -8.667 -11.080  18.051  0.00  0.00    -0.190 NA
ATOM      9  N   UNL     1      -7.541 -10.870  20.032  0.00  0.00    -0.056 NA
ATOM     16  C   UNL     1      -9.500 -11.139  19.057  0.00  0.00    +0.245 A 
ATOM     18  C   UNL     1      -7.476 -10.915  18.697  0.00  0.00    +0.202 A 
ENDROOT
BRANCH  18  21
ATOM     21  C   UNL     1      -6.238 -10.800  17.981  0.00  0.00    +0.023 A 
ATOM     24  C   UNL     1      -6.178 -10.046  16.809  0.00  0.00    +0.015 A 
ATOM     25  C   UNL     1      -5.096 -11.444  18.456  0.00  0.00    +0.015 A 
ATOM     26  C   UNL     1      -4.976  -9.935  16.112  0.00  0.00    +0.046 A 
ATOM     27  C   UNL     1      -3.892 -11.333  17.758  0.00  0.00    +0.046 A 
ATOM     28  C   UNL     1      -3.832 -10.579  16.586  0.00  0.00    +0.130 A 
BRANCH  28   6
ATOM      6  O   UNL     1      -2.658 -10.471  15.907  0.00  0.00    -0.406 OA
BRANCH   6  29
ATOM      1  F   UNL     1      -1.219 -11.871  14.875  0.00  0.00    -0.133 F 
ATOM      2  F   UNL     1      -3.354 -12.322  14.755  0.00  0.00    -0.133 F 
ATOM      3  F   UNL     1      -2.507 -10.619  13.629  0.00  0.00    -0.133 F 
ATOM     29  C   UNL     1      -2.450 -11.319  14.782  0.00  0.00    +0.575 C 
ENDBRANCH   6  29
ENDBRANCH  28   6
ENDBRANCH  18  21
BRANCH  16  11
ATOM      7  N   UNL     1     -11.503 -12.011  20.253  0.00  0.00    -0.285 NA
ATOM     11  C   UNL     1     -11.005 -11.314  19.049  0.00  0.00    +0.149 C 
ATOM     12  C   UNL     1     -11.760  -9.973  19.029  0.00  0.00    +0.061 C 
ATOM     13  C   UNL     1     -12.691 -10.026  20.234  0.00  0.00    +0.130 C 
ATOM     14  C   UNL     1     -12.856 -11.513  20.489  0.00  0.00    +0.116 C 
BRANCH  13   4
ATOM      4  O   UNL     1     -13.927  -9.404  19.941  0.00  0.00    -0.390 OA
ATOM     30  H   UNL     1     -14.550 -10.104  19.678  0.00  0.00    +0.210 HD
ENDBRANCH  13   4
BRANCH   7  15
ATOM     15  C   UNL     1     -11.465 -13.462  20.134  0.00  0.00    +0.120 C 
BRANCH  15  17
ATOM     10  N   UNL     1      -9.452 -15.291  23.466  0.00  0.00    -0.263 NA
ATOM     17  C   UNL     1     -10.760 -14.103  21.300  0.00  0.00    -0.030 A 
ATOM     19  C   UNL     1      -9.442 -14.525  21.173  0.00  0.00    +0.024 A 
ATOM     20  C   UNL     1     -11.425 -14.274  22.509  0.00  0.00    +0.024 A 
ATOM     22  C   UNL     1      -8.838 -15.107  22.275  0.00  0.00    +0.111 A 
ATOM     23  C   UNL     1     -10.733 -14.868  23.551  0.00  0.00    +0.111 A 
ENDBRANCH  15  17
ENDBRANCH   7  15
ENDBRANCH  16  11
TORSDOF 7
ENDMDL
