MODEL 1
REMARK VINA RESULT:      -7.7      0.000      0.000
REMARK  Name = 45360669
REMARK  8 active torsions:
REMARK  status: ('A' for Active; 'I' for Inactive)
REMARK    1  A    between atoms: N_5  and  C_8
REMARK    2  A    between atoms: N_5  and  C_16
REMARK    3  A    between atoms: N_6  and  C_21
REMARK    4  A    between atoms: C_9  and  C_14
REMARK    5  A    between atoms: C_14  and  C_15
REMARK    6  A    between atoms: C_15  and  C_17
REMARK    7  A    between atoms: C_16  and  C_18
REMARK    8  A    between atoms: C_21  and  C_25
REMARK                            x       y       z     vdW  Elec       q    Type
REMARK                         _______ _______ _______ _____ _____    ______ ____
ROOT
ATOM      1  O   UNL     1      11.498   7.708  17.377  0.00  0.00    -0.274 OA
ATOM      3  N   UNL     1      13.396   7.191  20.452  0.00  0.00    -0.286 NA
ATOM      4  N   UNL     1      13.744   7.537  17.689  0.00  0.00    -0.313 N 
ATOM      7  C   UNL     1      12.200   7.139  19.601  0.00  0.00    +0.145 C 
ATOM      8  C   UNL     1      11.992   8.716  21.436  0.00  0.00    +0.070 C 
ATOM      9  C   UNL     1      14.605   6.678  19.820  0.00  0.00    +0.075 C 
ATOM     10  C   UNL     1      11.222   8.130  20.252  0.00  0.00    +0.048 C 
ATOM     11  C   UNL     1      13.449   8.528  21.041  0.00  0.00    +0.104 C 
ATOM     12  C   UNL     1      14.910   7.437  18.538  0.00  0.00    +0.123 C 
ATOM     13  C   UNL     1      12.447   7.508  18.142  0.00  0.00    +0.230 C 
ATOM     31  H   UNL     1      13.894   7.762  16.711  0.00  0.00    +0.149 HD
ENDROOT
BRANCH   8   5
ATOM      5  N   UNL     1      11.641  10.099  21.715  0.00  0.00    -0.308 NA
ATOM     32  H   UNL     1      12.422  10.701  21.452  0.00  0.00    +0.123 HD
BRANCH   5  16
ATOM     16  C   UNL     1      11.354  10.292  23.130  0.00  0.00    +0.116 C 
BRANCH  16  18
ATOM     18  C   UNL     1      10.995  11.717  23.442  0.00  0.00    -0.034 A 
ATOM     19  C   UNL     1      10.812  12.115  24.767  0.00  0.00    +0.005 A 
ATOM     20  C   UNL     1      10.845  12.641  22.409  0.00  0.00    +0.005 A 
ATOM     22  C   UNL     1      10.478  13.438  25.057  0.00  0.00    +0.000 A 
ATOM     23  C   UNL     1      10.512  13.964  22.699  0.00  0.00    +0.000 A 
ATOM     24  C   UNL     1      10.329  14.363  24.023  0.00  0.00    +0.000 A 
ENDBRANCH  16  18
ENDBRANCH   5  16
ENDBRANCH   8   5
BRANCH   9  14
ATOM     14  C   UNL     1      15.813   6.680  20.758  0.00  0.00    +0.029 C 
BRANCH  14  15
ATOM     15  C   UNL     1      17.092   6.325  20.010  0.00  0.00    +0.097 C 
BRANCH  15  17
ATOM      2  O   UNL     1      18.284   7.681  21.624  0.00  0.00    -0.276 OA
ATOM      6  N   UNL     1      19.492   6.333  20.169  0.00  0.00    -0.311 N 
ATOM     17  C   UNL     1      18.328   6.868  20.704  0.00  0.00    +0.213 C 
ATOM     33  H   UNL     1      19.440   5.686  19.388  0.00  0.00    +0.149 HD
BRANCH   6  21
ATOM     21  C   UNL     1      20.801   6.692  20.659  0.00  0.00    +0.139 C 
BRANCH  21  25
ATOM     25  C   UNL     1      21.407   5.605  21.497  0.00  0.00    -0.030 A 
ATOM     26  C   UNL     1      21.929   5.903  22.756  0.00  0.00    +0.005 A 
ATOM     27  C   UNL     1      21.446   4.295  21.019  0.00  0.00    +0.005 A 
ATOM     28  C   UNL     1      22.491   4.893  23.535  0.00  0.00    +0.000 A 
ATOM     29  C   UNL     1      22.009   3.284  21.798  0.00  0.00    +0.000 A 
ATOM     30  C   UNL     1      22.531   3.583  23.057  0.00  0.00    +0.000 A 
ENDBRANCH  21  25
ENDBRANCH   6  21
ENDBRANCH  15  17
ENDBRANCH  14  15
ENDBRANCH   9  14
TORSDOF 8
ENDMDL
MODEL 2
REMARK VINA RESULT:      -7.6     28.220     31.955
REMARK  Name = 45360669
REMARK  8 active torsions:
REMARK  status: ('A' for Active; 'I' for Inactive)
REMARK    1  A    between atoms: N_5  and  C_8
REMARK    2  A    between atoms: N_5  and  C_16
REMARK    3  A    between atoms: N_6  and  C_21
REMARK    4  A    between atoms: C_9  and  C_14
REMARK    5  A    between atoms: C_14  and  C_15
REMARK    6  A    between atoms: C_15  and  C_17
REMARK    7  A    between atoms: C_16  and  C_18
REMARK    8  A    between atoms: C_21  and  C_25
REMARK                            x       y       z     vdW  Elec       q    Type
REMARK                         _______ _______ _______ _____ _____    ______ ____
ROOT
ATOM      1  O   UNL     1     -17.905   2.045  21.913  0.00  0.00    -0.274 OA
ATOM      3  N   UNL     1     -16.848   3.408  25.130  0.00  0.00    -0.286 NA
ATOM      4  N   UNL     1     -17.568   0.990  23.900  0.00  0.00    -0.313 N 
ATOM      7  C   UNL     1     -17.427   3.473  23.782  0.00  0.00    +0.145 C 
ATOM      8  C   UNL     1     -15.311   4.651  23.965  0.00  0.00    +0.070 C 
ATOM      9  C   UNL     1     -17.363   2.319  25.952  0.00  0.00    +0.075 C 
ATOM     10  C   UNL     1     -16.435   4.329  22.979  0.00  0.00    +0.048 C 
ATOM     11  C   UNL     1     -15.399   3.524  24.984  0.00  0.00    +0.104 C 
ATOM     12  C   UNL     1     -17.133   0.976  25.278  0.00  0.00    +0.123 C 
ATOM     13  C   UNL     1     -17.629   2.116  23.115  0.00  0.00    +0.230 C 
ATOM     31  H   UNL     1     -17.726   0.095  23.448  0.00  0.00    +0.149 HD
ENDROOT
BRANCH   8   5
ATOM      5  N   UNL     1     -14.008   4.758  23.329  0.00  0.00    -0.308 NA
ATOM     32  H   UNL     1     -13.495   5.534  23.749  0.00  0.00    +0.123 HD
BRANCH   5  16
ATOM     16  C   UNL     1     -14.141   5.001  21.898  0.00  0.00    +0.116 C 
BRANCH  16  18
ATOM     18  C   UNL     1     -13.468   6.276  21.479  0.00  0.00    -0.034 A 
ATOM     19  C   UNL     1     -14.177   7.477  21.499  0.00  0.00    +0.005 A 
ATOM     20  C   UNL     1     -12.135   6.259  21.070  0.00  0.00    +0.005 A 
ATOM     22  C   UNL     1     -13.552   8.662  21.109  0.00  0.00    +0.000 A 
ATOM     23  C   UNL     1     -11.509   7.444  20.680  0.00  0.00    +0.000 A 
ATOM     24  C   UNL     1     -12.218   8.645  20.700  0.00  0.00    +0.000 A 
ENDBRANCH  16  18
ENDBRANCH   5  16
ENDBRANCH   8   5
BRANCH   9  14
ATOM     14  C   UNL     1     -16.793   2.325  27.371  0.00  0.00    +0.029 C 
BRANCH  14  15
ATOM     15  C   UNL     1     -16.805   0.927  27.976  0.00  0.00    +0.097 C 
BRANCH  15  17
ATOM      2  O   UNL     1     -15.988  -0.049  30.035  0.00  0.00    -0.276 OA
ATOM      6  N   UNL     1     -14.891   1.794  29.146  0.00  0.00    -0.311 N 
ATOM     17  C   UNL     1     -15.873   0.812  29.167  0.00  0.00    +0.213 C 
ATOM     33  H   UNL     1     -14.884   2.488  28.405  0.00  0.00    +0.149 HD
BRANCH   6  21
ATOM     21  C   UNL     1     -13.882   1.898  30.173  0.00  0.00    +0.139 C 
BRANCH  21  25
ATOM     25  C   UNL     1     -14.337   2.747  31.324  0.00  0.00    -0.030 A 
ATOM     26  C   UNL     1     -14.246   2.261  32.628  0.00  0.00    +0.005 A 
ATOM     27  C   UNL     1     -14.849   4.024  31.090  0.00  0.00    +0.005 A 
ATOM     28  C   UNL     1     -14.668   3.051  33.698  0.00  0.00    +0.000 A 
ATOM     29  C   UNL     1     -15.271   4.814  32.159  0.00  0.00    +0.000 A 
ATOM     30  C   UNL     1     -15.180   4.327  33.463  0.00  0.00    +0.000 A 
ENDBRANCH  21  25
ENDBRANCH   6  21
ENDBRANCH  15  17
ENDBRANCH  14  15
ENDBRANCH   9  14
TORSDOF 8
ENDMDL
MODEL 3
REMARK VINA RESULT:      -7.5     26.940     29.291
REMARK  Name = 45360669
REMARK  8 active torsions:
REMARK  status: ('A' for Active; 'I' for Inactive)
REMARK    1  A    between atoms: N_5  and  C_8
REMARK    2  A    between atoms: N_5  and  C_16
REMARK    3  A    between atoms: N_6  and  C_21
REMARK    4  A    between atoms: C_9  and  C_14
REMARK    5  A    between atoms: C_14  and  C_15
REMARK    6  A    between atoms: C_15  and  C_17
REMARK    7  A    between atoms: C_16  and  C_18
REMARK    8  A    between atoms: C_21  and  C_25
REMARK                            x       y       z     vdW  Elec       q    Type
REMARK                         _______ _______ _______ _____ _____    ______ ____
ROOT
ATOM      1  O   UNL     1      -7.631 -12.050  19.904  0.00  0.00    -0.274 OA
ATOM      3  N   UNL     1      -5.395 -10.742  17.332  0.00  0.00    -0.286 NA
ATOM      4  N   UNL     1      -6.287 -13.160  18.442  0.00  0.00    -0.313 N 
ATOM      7  C   UNL     1      -6.187 -10.676  18.567  0.00  0.00    +0.145 C 
ATOM      8  C   UNL     1      -7.066  -9.262  16.799  0.00  0.00    +0.070 C 
ATOM      9  C   UNL     1      -4.552 -11.926  17.222  0.00  0.00    +0.075 C 
ATOM     10  C   UNL     1      -7.302  -9.665  18.255  0.00  0.00    +0.048 C 
ATOM     11  C   UNL     1      -6.299 -10.445  16.223  0.00  0.00    +0.104 C 
ATOM     12  C   UNL     1      -5.386 -13.195  17.313  0.00  0.00    +0.123 C 
ATOM     13  C   UNL     1      -6.778 -12.010  19.010  0.00  0.00    +0.230 C 
ATOM     31  H   UNL     1      -6.673 -14.043  18.762  0.00  0.00    +0.149 HD
ENDROOT
BRANCH   8   5
ATOM      5  N   UNL     1      -8.297  -8.966  16.083  0.00  0.00    -0.308 NA
ATOM     32  H   UNL     1      -8.297  -7.981  15.814  0.00  0.00    +0.123 HD
BRANCH   5  16
ATOM     16  C   UNL     1      -9.463  -9.226  16.917  0.00  0.00    +0.116 C 
BRANCH  16  18
ATOM     18  C   UNL     1     -10.611  -8.319  16.577  0.00  0.00    -0.034 A 
ATOM     19  C   UNL     1     -11.921  -8.789  16.670  0.00  0.00    +0.005 A 
ATOM     20  C   UNL     1     -10.367  -7.008  16.169  0.00  0.00    +0.005 A 
ATOM     22  C   UNL     1     -12.987  -7.947  16.354  0.00  0.00    +0.000 A 
ATOM     23  C   UNL     1     -11.433  -6.166  15.854  0.00  0.00    +0.000 A 
ATOM     24  C   UNL     1     -12.744  -6.635  15.947  0.00  0.00    +0.000 A 
ENDBRANCH  16  18
ENDBRANCH   5  16
ENDBRANCH   8   5
BRANCH   9  14
ATOM     14  C   UNL     1      -3.688 -11.927  15.960  0.00  0.00    +0.029 C 
BRANCH  14  15
ATOM     15  C   UNL     1      -2.590 -10.875  16.044  0.00  0.00    +0.097 C 
BRANCH  15  17
ATOM      2  O   UNL     1      -1.120  -9.718  14.506  0.00  0.00    -0.276 OA
ATOM      6  N   UNL     1      -2.716 -11.178  13.661  0.00  0.00    -0.311 N 
ATOM     17  C   UNL     1      -2.044 -10.510  14.675  0.00  0.00    +0.213 C 
ATOM     33  H   UNL     1      -3.489 -11.796  13.886  0.00  0.00    +0.149 HD
BRANCH   6  21
ATOM     21  C   UNL     1      -2.383 -10.999  12.268  0.00  0.00    +0.139 C 
BRANCH  21  25
ATOM     25  C   UNL     1      -3.406 -10.172  11.546  0.00  0.00    -0.030 A 
ATOM     26  C   UNL     1      -4.666  -9.974  12.110  0.00  0.00    +0.005 A 
ATOM     27  C   UNL     1      -3.097  -9.599  10.312  0.00  0.00    +0.005 A 
ATOM     28  C   UNL     1      -5.617  -9.204  11.440  0.00  0.00    +0.000 A 
ATOM     29  C   UNL     1      -4.047  -8.830   9.641  0.00  0.00    +0.000 A 
ATOM     30  C   UNL     1      -5.308  -8.632  10.206  0.00  0.00    +0.000 A 
ENDBRANCH  21  25
ENDBRANCH   6  21
ENDBRANCH  15  17
ENDBRANCH  14  15
ENDBRANCH   9  14
TORSDOF 8
ENDMDL
MODEL 4
REMARK VINA RESULT:      -7.2     15.561     19.792
REMARK  Name = 45360669
REMARK  8 active torsions:
REMARK  status: ('A' for Active; 'I' for Inactive)
REMARK    1  A    between atoms: N_5  and  C_8
REMARK    2  A    between atoms: N_5  and  C_16
REMARK    3  A    between atoms: N_6  and  C_21
REMARK    4  A    between atoms: C_9  and  C_14
REMARK    5  A    between atoms: C_14  and  C_15
REMARK    6  A    between atoms: C_15  and  C_17
REMARK    7  A    between atoms: C_16  and  C_18
REMARK    8  A    between atoms: C_21  and  C_25
REMARK                            x       y       z     vdW  Elec       q    Type
REMARK                         _______ _______ _______ _____ _____    ______ ____
ROOT
ATOM      1  O   UNL     1      15.525  11.142   5.646  0.00  0.00    -0.274 OA
ATOM      3  N   UNL     1      14.685   7.619   6.097  0.00  0.00    -0.286 NA
ATOM      4  N   UNL     1      13.576  10.187   6.329  0.00  0.00    -0.313 N 
ATOM      7  C   UNL     1      15.593   8.767   5.987  0.00  0.00    +0.145 C 
ATOM      8  C   UNL     1      15.780   7.226   4.119  0.00  0.00    +0.070 C 
ATOM      9  C   UNL     1      13.561   7.827   7.002  0.00  0.00    +0.075 C 
ATOM     10  C   UNL     1      16.369   8.520   4.683  0.00  0.00    +0.048 C 
ATOM     11  C   UNL     1      14.391   7.169   4.738  0.00  0.00    +0.104 C 
ATOM     12  C   UNL     1      12.740   9.034   6.576  0.00  0.00    +0.123 C 
ATOM     13  C   UNL     1      14.895  10.123   5.949  0.00  0.00    +0.230 C 
ATOM     31  H   UNL     1      13.130  11.098   6.320  0.00  0.00    +0.149 HD
ENDROOT
BRANCH   8   5
ATOM      5  N   UNL     1      15.769   7.191   2.665  0.00  0.00    -0.308 NA
ATOM     32  H   UNL     1      16.227   8.031   2.309  0.00  0.00    +0.123 HD
BRANCH   5  16
ATOM     16  C   UNL     1      14.406   7.145   2.152  0.00  0.00    +0.116 C 
BRANCH  16  18
ATOM     18  C   UNL     1      14.163   5.926   1.310  0.00  0.00    -0.034 A 
ATOM     19  C   UNL     1      14.147   4.663   1.901  0.00  0.00    +0.005 A 
ATOM     20  C   UNL     1      13.954   6.057  -0.063  0.00  0.00    +0.005 A 
ATOM     22  C   UNL     1      13.922   3.530   1.119  0.00  0.00    +0.000 A 
ATOM     23  C   UNL     1      13.728   4.924  -0.845  0.00  0.00    +0.000 A 
ATOM     24  C   UNL     1      13.712   3.661  -0.254  0.00  0.00    +0.000 A 
ENDBRANCH  16  18
ENDBRANCH   5  16
ENDBRANCH   8   5
BRANCH   9  14
ATOM     14  C   UNL     1      12.677   6.587   7.148  0.00  0.00    +0.029 C 
BRANCH  14  15
ATOM     15  C   UNL     1      11.210   6.926   6.918  0.00  0.00    +0.097 C 
BRANCH  15  17
ATOM      2  O   UNL     1       9.444   5.330   6.475  0.00  0.00    -0.276 OA
ATOM      6  N   UNL     1      11.177   5.551   4.945  0.00  0.00    -0.311 N 
ATOM     17  C   UNL     1      10.496   5.854   6.116  0.00  0.00    +0.213 C 
ATOM     33  H   UNL     1      12.058   6.012   4.737  0.00  0.00    +0.149 HD
BRANCH   6  21
ATOM     21  C   UNL     1      10.700   4.560   4.010  0.00  0.00    +0.139 C 
BRANCH  21  25
ATOM     25  C   UNL     1      10.546   5.120   2.627  0.00  0.00    -0.030 A 
ATOM     26  C   UNL     1      10.623   6.497   2.419  0.00  0.00    +0.005 A 
ATOM     27  C   UNL     1      10.326   4.263   1.548  0.00  0.00    +0.005 A 
ATOM     28  C   UNL     1      10.481   7.018   1.133  0.00  0.00    +0.000 A 
ATOM     29  C   UNL     1      10.183   4.784   0.261  0.00  0.00    +0.000 A 
ATOM     30  C   UNL     1      10.261   6.161   0.054  0.00  0.00    +0.000 A 
ENDBRANCH  21  25
ENDBRANCH   6  21
ENDBRANCH  15  17
ENDBRANCH  14  15
ENDBRANCH   9  14
TORSDOF 8
ENDMDL
MODEL 5
REMARK VINA RESULT:      -7.2     15.186     19.348
REMARK  Name = 45360669
REMARK  8 active torsions:
REMARK  status: ('A' for Active; 'I' for Inactive)
REMARK    1  A    between atoms: N_5  and  C_8
REMARK    2  A    between atoms: N_5  and  C_16
REMARK    3  A    between atoms: N_6  and  C_21
REMARK    4  A    between atoms: C_9  and  C_14
REMARK    5  A    between atoms: C_14  and  C_15
REMARK    6  A    between atoms: C_15  and  C_17
REMARK    7  A    between atoms: C_16  and  C_18
REMARK    8  A    between atoms: C_21  and  C_25
REMARK                            x       y       z     vdW  Elec       q    Type
REMARK                         _______ _______ _______ _____ _____    ______ ____
ROOT
ATOM      1  O   UNL     1       7.840   7.353   7.023  0.00  0.00    -0.274 OA
ATOM      3  N   UNL     1      11.250   7.394   5.723  0.00  0.00    -0.286 NA
ATOM      4  N   UNL     1       9.772   6.634   7.985  0.00  0.00    -0.313 N 
ATOM      7  C   UNL     1       9.850   7.830   5.802  0.00  0.00    +0.145 C 
ATOM      8  C   UNL     1      10.371   6.685   3.725  0.00  0.00    +0.070 C 
ATOM      9  C   UNL     1      11.924   7.301   7.012  0.00  0.00    +0.075 C 
ATOM     10  C   UNL     1       9.236   7.398   4.461  0.00  0.00    +0.048 C 
ATOM     11  C   UNL     1      11.288   6.223   4.849  0.00  0.00    +0.104 C 
ATOM     12  C   UNL     1      11.188   6.348   7.941  0.00  0.00    +0.123 C 
ATOM     13  C   UNL     1       9.068   7.235   6.969  0.00  0.00    +0.230 C 
ATOM     31  H   UNL     1       9.242   6.262   8.766  0.00  0.00    +0.149 HD
ENDROOT
BRANCH   8   5
ATOM      5  N   UNL     1       9.906   5.601   2.874  0.00  0.00    -0.308 NA
ATOM     32  H   UNL     1       8.952   5.355   3.140  0.00  0.00    +0.123 HD
BRANCH   5  16
ATOM     16  C   UNL     1      10.752   4.423   3.015  0.00  0.00    +0.116 C 
BRANCH  16  18
ATOM     18  C   UNL     1      11.494   4.109   1.748  0.00  0.00    -0.034 A 
ATOM     19  C   UNL     1      12.798   3.617   1.808  0.00  0.00    +0.005 A 
ATOM     20  C   UNL     1      10.880   4.310   0.512  0.00  0.00    +0.005 A 
ATOM     22  C   UNL     1      13.488   3.325   0.631  0.00  0.00    +0.000 A 
ATOM     23  C   UNL     1      11.570   4.018  -0.665  0.00  0.00    +0.000 A 
ATOM     24  C   UNL     1      12.874   3.525  -0.606  0.00  0.00    +0.000 A 
ENDBRANCH  16  18
ENDBRANCH   5  16
ENDBRANCH   8   5
BRANCH   9  14
ATOM     14  C   UNL     1      13.399   6.914   6.886  0.00  0.00    +0.029 C 
BRANCH  14  15
ATOM     15  C   UNL     1      14.256   8.121   6.530  0.00  0.00    +0.097 C 
BRANCH  15  17
ATOM      2  O   UNL     1      16.412   8.225   5.432  0.00  0.00    -0.276 OA
ATOM      6  N   UNL     1      14.700   7.002   4.449  0.00  0.00    -0.311 N 
ATOM     17  C   UNL     1      15.256   7.807   5.433  0.00  0.00    +0.213 C 
ATOM     33  H   UNL     1      13.726   6.724   4.511  0.00  0.00    +0.149 HD
BRANCH   6  21
ATOM     21  C   UNL     1      15.451   6.564   3.295  0.00  0.00    +0.139 C 
BRANCH  21  25
ATOM     25  C   UNL     1      14.712   6.818   2.014  0.00  0.00    -0.030 A 
ATOM     26  C   UNL     1      15.322   6.543   0.790  0.00  0.00    +0.005 A 
ATOM     27  C   UNL     1      13.414   7.328   2.047  0.00  0.00    +0.005 A 
ATOM     28  C   UNL     1      14.635   6.778  -0.401  0.00  0.00    +0.000 A 
ATOM     29  C   UNL     1      12.726   7.564   0.856  0.00  0.00    +0.000 A 
ATOM     30  C   UNL     1      13.337   7.288  -0.368  0.00  0.00    +0.000 A 
ENDBRANCH  21  25
ENDBRANCH   6  21
ENDBRANCH  15  17
ENDBRANCH  14  15
ENDBRANCH   9  14
TORSDOF 8
ENDMDL
MODEL 6
REMARK VINA RESULT:      -7.0     27.053     30.186
REMARK  Name = 45360669
REMARK  8 active torsions:
REMARK  status: ('A' for Active; 'I' for Inactive)
REMARK    1  A    between atoms: N_5  and  C_8
REMARK    2  A    between atoms: N_5  and  C_16
REMARK    3  A    between atoms: N_6  and  C_21
REMARK    4  A    between atoms: C_9  and  C_14
REMARK    5  A    between atoms: C_14  and  C_15
REMARK    6  A    between atoms: C_15  and  C_17
REMARK    7  A    between atoms: C_16  and  C_18
REMARK    8  A    between atoms: C_21  and  C_25
REMARK                            x       y       z     vdW  Elec       q    Type
REMARK                         _______ _______ _______ _____ _____    ______ ____
ROOT
ATOM      1  O   UNL     1      -8.101  -9.543  11.844  0.00  0.00    -0.274 OA
ATOM      3  N   UNL     1      -4.512  -9.429  11.189  0.00  0.00    -0.286 NA
ATOM      4  N   UNL     1      -6.454 -10.962  12.513  0.00  0.00    -0.313 N 
ATOM      7  C   UNL     1      -5.862  -8.863  11.313  0.00  0.00    +0.145 C 
ATOM      8  C   UNL     1      -5.044  -8.876   9.026  0.00  0.00    +0.070 C 
ATOM      9  C   UNL     1      -4.109 -10.270  12.309  0.00  0.00    +0.075 C 
ATOM     10  C   UNL     1      -6.239  -8.451   9.881  0.00  0.00    +0.048 C 
ATOM     11  C   UNL     1      -4.400  -9.987   9.843  0.00  0.00    +0.104 C 
ATOM     12  C   UNL     1      -5.084 -11.421  12.500  0.00  0.00    +0.123 C 
ATOM     13  C   UNL     1      -6.899  -9.823  11.887  0.00  0.00    +0.230 C 
ATOM     31  H   UNL     1      -7.153 -11.581  12.911  0.00  0.00    +0.149 HD
ENDROOT
BRANCH   8   5
ATOM      5  N   UNL     1      -5.421  -9.287   7.684  0.00  0.00    -0.308 NA
ATOM     32  H   UNL     1      -6.440  -9.324   7.621  0.00  0.00    +0.123 HD
BRANCH   5  16
ATOM     16  C   UNL     1      -4.883 -10.604   7.367  0.00  0.00    +0.116 C 
BRANCH  16  18
ATOM     18  C   UNL     1      -5.287 -11.063   5.996  0.00  0.00    -0.034 A 
ATOM     19  C   UNL     1      -6.478 -10.605   5.432  0.00  0.00    +0.005 A 
ATOM     20  C   UNL     1      -4.473 -11.945   5.287  0.00  0.00    +0.005 A 
ATOM     22  C   UNL     1      -6.854 -11.032   4.158  0.00  0.00    +0.000 A 
ATOM     23  C   UNL     1      -4.849 -12.371   4.013  0.00  0.00    +0.000 A 
ATOM     24  C   UNL     1      -6.039 -11.914   3.448  0.00  0.00    +0.000 A 
ENDBRANCH  16  18
ENDBRANCH   5  16
ENDBRANCH   8   5
BRANCH   9  14
ATOM     14  C   UNL     1      -2.674 -10.783  12.181  0.00  0.00    +0.029 C 
BRANCH  14  15
ATOM     15  C   UNL     1      -1.828 -10.356  13.374  0.00  0.00    +0.097 C 
BRANCH  15  17
ATOM      2  O   UNL     1      -1.938 -12.351  14.742  0.00  0.00    -0.276 OA
ATOM      6  N   UNL     1      -2.745 -10.348  15.597  0.00  0.00    -0.311 N 
ATOM     17  C   UNL     1      -2.162 -11.148  14.624  0.00  0.00    +0.213 C 
ATOM     33  H   UNL     1      -2.922  -9.366  15.407  0.00  0.00    +0.149 HD
BRANCH   6  21
ATOM     21  C   UNL     1      -3.156 -10.869  16.879  0.00  0.00    +0.139 C 
BRANCH  21  25
ATOM     25  C   UNL     1      -4.582 -10.525  17.196  0.00  0.00    -0.030 A 
ATOM     26  C   UNL     1      -5.116 -10.843  18.445  0.00  0.00    +0.005 A 
ATOM     27  C   UNL     1      -5.374  -9.887  16.241  0.00  0.00    +0.005 A 
ATOM     28  C   UNL     1      -6.441 -10.522  18.739  0.00  0.00    +0.000 A 
ATOM     29  C   UNL     1      -6.700  -9.567  16.535  0.00  0.00    +0.000 A 
ATOM     30  C   UNL     1      -7.233  -9.884  17.784  0.00  0.00    +0.000 A 
ENDBRANCH  21  25
ENDBRANCH   6  21
ENDBRANCH  15  17
ENDBRANCH  14  15
ENDBRANCH   9  14
TORSDOF 8
ENDMDL
MODEL 7
REMARK VINA RESULT:      -6.9     27.015     30.901
REMARK  Name = 45360669
REMARK  8 active torsions:
REMARK  status: ('A' for Active; 'I' for Inactive)
REMARK    1  A    between atoms: N_5  and  C_8
REMARK    2  A    between atoms: N_5  and  C_16
REMARK    3  A    between atoms: N_6  and  C_21
REMARK    4  A    between atoms: C_9  and  C_14
REMARK    5  A    between atoms: C_14  and  C_15
REMARK    6  A    between atoms: C_15  and  C_17
REMARK    7  A    between atoms: C_16  and  C_18
REMARK    8  A    between atoms: C_21  and  C_25
REMARK                            x       y       z     vdW  Elec       q    Type
REMARK                         _______ _______ _______ _____ _____    ______ ____
ROOT
ATOM      1  O   UNL     1     -16.971   9.403  22.286  0.00  0.00    -0.274 OA
ATOM      3  N   UNL     1     -15.367   6.224  23.089  0.00  0.00    -0.286 NA
ATOM      4  N   UNL     1     -17.847   7.304  22.341  0.00  0.00    -0.313 N 
ATOM      7  C   UNL     1     -15.509   7.686  23.106  0.00  0.00    +0.145 C 
ATOM      8  C   UNL     1     -13.593   6.932  21.816  0.00  0.00    +0.070 C 
ATOM      9  C   UNL     1     -16.586   5.499  23.424  0.00  0.00    +0.075 C 
ATOM     10  C   UNL     1     -14.314   8.198  22.285  0.00  0.00    +0.048 C 
ATOM     11  C   UNL     1     -14.684   5.871  21.846  0.00  0.00    +0.104 C 
ATOM     12  C   UNL     1     -17.715   5.872  22.476  0.00  0.00    +0.123 C 
ATOM     13  C   UNL     1     -16.821   8.200  22.523  0.00  0.00    +0.230 C 
ATOM     31  H   UNL     1     -18.722   7.663  21.973  0.00  0.00    +0.149 HD
ENDROOT
BRANCH   8   5
ATOM      5  N   UNL     1     -12.967   7.084  20.513  0.00  0.00    -0.308 NA
ATOM     32  H   UNL     1     -13.001   6.190  20.021  0.00  0.00    +0.123 HD
BRANCH   5  16
ATOM     16  C   UNL     1     -11.576   7.496  20.644  0.00  0.00    +0.116 C 
BRANCH  16  18
ATOM     18  C   UNL     1     -11.073   8.181  19.405  0.00  0.00    -0.034 A 
ATOM     19  C   UNL     1     -11.182   7.547  18.167  0.00  0.00    +0.005 A 
ATOM     20  C   UNL     1     -10.497   9.448  19.493  0.00  0.00    +0.005 A 
ATOM     22  C   UNL     1     -10.714   8.183  17.016  0.00  0.00    +0.000 A 
ATOM     23  C   UNL     1     -10.030  10.083  18.343  0.00  0.00    +0.000 A 
ATOM     24  C   UNL     1     -10.139   9.451  17.104  0.00  0.00    +0.000 A 
ENDBRANCH  16  18
ENDBRANCH   5  16
ENDBRANCH   8   5
BRANCH   9  14
ATOM     14  C   UNL     1     -16.384   3.984  23.467  0.00  0.00    +0.029 C 
BRANCH  14  15
ATOM     15  C   UNL     1     -15.400   3.591  24.560  0.00  0.00    +0.097 C 
BRANCH  15  17
ATOM      2  O   UNL     1     -16.539   1.748  25.642  0.00  0.00    -0.276 OA
ATOM      6  N   UNL     1     -16.125   3.686  26.852  0.00  0.00    -0.311 N 
ATOM     17  C   UNL     1     -16.083   2.886  25.718  0.00  0.00    +0.213 C 
ATOM     33  H   UNL     1     -15.750   4.629  26.821  0.00  0.00    +0.149 HD
BRANCH   6  21
ATOM     21  C   UNL     1     -16.726   3.242  28.087  0.00  0.00    +0.139 C 
BRANCH  21  25
ATOM     25  C   UNL     1     -15.744   2.521  28.963  0.00  0.00    -0.030 A 
ATOM     26  C   UNL     1     -14.720   3.229  29.592  0.00  0.00    +0.005 A 
ATOM     27  C   UNL     1     -15.856   1.143  29.150  0.00  0.00    +0.005 A 
ATOM     28  C   UNL     1     -13.807   2.559  30.407  0.00  0.00    +0.000 A 
ATOM     29  C   UNL     1     -14.943   0.473  29.964  0.00  0.00    +0.000 A 
ATOM     30  C   UNL     1     -13.919   1.181  30.594  0.00  0.00    +0.000 A 
ENDBRANCH  21  25
ENDBRANCH   6  21
ENDBRANCH  15  17
ENDBRANCH  14  15
ENDBRANCH   9  14
TORSDOF 8
ENDMDL
MODEL 8
REMARK VINA RESULT:      -6.8     27.584     30.138
REMARK  Name = 45360669
REMARK  8 active torsions:
REMARK  status: ('A' for Active; 'I' for Inactive)
REMARK    1  A    between atoms: N_5  and  C_8
REMARK    2  A    between atoms: N_5  and  C_16
REMARK    3  A    between atoms: N_6  and  C_21
REMARK    4  A    between atoms: C_9  and  C_14
REMARK    5  A    between atoms: C_14  and  C_15
REMARK    6  A    between atoms: C_15  and  C_17
REMARK    7  A    between atoms: C_16  and  C_18
REMARK    8  A    between atoms: C_21  and  C_25
REMARK                            x       y       z     vdW  Elec       q    Type
REMARK                         _______ _______ _______ _____ _____    ______ ____
ROOT
ATOM      1  O   UNL     1      -3.300 -14.887  12.429  0.00  0.00    -0.274 OA
ATOM      3  N   UNL     1      -2.260 -11.389  12.337  0.00  0.00    -0.286 NA
ATOM      4  N   UNL     1      -4.199 -13.131  11.296  0.00  0.00    -0.313 N 
ATOM      7  C   UNL     1      -2.070 -12.830  12.551  0.00  0.00    +0.145 C 
ATOM      8  C   UNL     1      -1.960 -11.541  14.607  0.00  0.00    +0.070 C 
ATOM      9  C   UNL     1      -2.916 -11.051  11.080  0.00  0.00    +0.075 C 
ATOM     10  C   UNL     1      -1.834 -12.965  14.064  0.00  0.00    +0.048 C 
ATOM     11  C   UNL     1      -2.825 -10.840  13.568  0.00  0.00    +0.104 C 
ATOM     12  C   UNL     1      -4.277 -11.723  10.980  0.00  0.00    +0.123 C 
ATOM     13  C   UNL     1      -3.247 -13.694  12.111  0.00  0.00    +0.230 C 
ATOM     31  H   UNL     1      -4.965 -13.724  10.992  0.00  0.00    +0.149 HD
ENDROOT
BRANCH   8   5
ATOM      5  N   UNL     1      -2.514 -11.491  15.951  0.00  0.00    -0.308 NA
ATOM     32  H   UNL     1      -2.731 -12.441  16.257  0.00  0.00    +0.123 HD
BRANCH   5  16
ATOM     16  C   UNL     1      -3.733 -10.694  15.987  0.00  0.00    +0.116 C 
BRANCH  16  18
ATOM     18  C   UNL     1      -4.494 -10.887  17.267  0.00  0.00    -0.034 A 
ATOM     19  C   UNL     1      -5.745 -10.291  17.430  0.00  0.00    +0.005 A 
ATOM     20  C   UNL     1      -3.950 -11.661  18.292  0.00  0.00    +0.005 A 
ATOM     22  C   UNL     1      -6.452 -10.470  18.620  0.00  0.00    +0.000 A 
ATOM     23  C   UNL     1      -4.657 -11.840  19.481  0.00  0.00    +0.000 A 
ATOM     24  C   UNL     1      -5.908 -11.245  19.645  0.00  0.00    +0.000 A 
ENDBRANCH  16  18
ENDBRANCH   5  16
ENDBRANCH   8   5
BRANCH   9  14
ATOM     14  C   UNL     1      -3.033  -9.542  10.857  0.00  0.00    +0.029 C 
BRANCH  14  15
ATOM     15  C   UNL     1      -3.781  -9.232   9.567  0.00  0.00    +0.097 C 
BRANCH  15  17
ATOM      2  O   UNL     1      -5.559  -8.348  10.953  0.00  0.00    -0.276 OA
ATOM      6  N   UNL     1      -5.884  -8.500   8.659  0.00  0.00    -0.311 N 
ATOM     17  C   UNL     1      -5.156  -8.647   9.832  0.00  0.00    +0.213 C 
ATOM     33  H   UNL     1      -5.486  -8.799   7.774  0.00  0.00    +0.149 HD
BRANCH   6  21
ATOM     21  C   UNL     1      -7.225  -7.964   8.646  0.00  0.00    +0.139 C 
BRANCH  21  25
ATOM     25  C   UNL     1      -7.805  -7.933   7.262  0.00  0.00    -0.030 A 
ATOM     26  C   UNL     1      -8.929  -7.152   6.994  0.00  0.00    +0.005 A 
ATOM     27  C   UNL     1      -7.219  -8.685   6.243  0.00  0.00    +0.005 A 
ATOM     28  C   UNL     1      -9.468  -7.123   5.708  0.00  0.00    +0.000 A 
ATOM     29  C   UNL     1      -7.757  -8.657   4.956  0.00  0.00    +0.000 A 
ATOM     30  C   UNL     1      -8.882  -7.875   4.689  0.00  0.00    +0.000 A 
ENDBRANCH  21  25
ENDBRANCH   6  21
ENDBRANCH  15  17
ENDBRANCH  14  15
ENDBRANCH   9  14
TORSDOF 8
ENDMDL
MODEL 9
REMARK VINA RESULT:      -6.8     27.116     29.790
REMARK  Name = 45360669
REMARK  8 active torsions:
REMARK  status: ('A' for Active; 'I' for Inactive)
REMARK    1  A    between atoms: N_5  and  C_8
REMARK    2  A    between atoms: N_5  and  C_16
REMARK    3  A    between atoms: N_6  and  C_21
REMARK    4  A    between atoms: C_9  and  C_14
REMARK    5  A    between atoms: C_14  and  C_15
REMARK    6  A    between atoms: C_15  and  C_17
REMARK    7  A    between atoms: C_16  and  C_18
REMARK    8  A    between atoms: C_21  and  C_25
REMARK                            x       y       z     vdW  Elec       q    Type
REMARK                         _______ _______ _______ _____ _____    ______ ____
ROOT
ATOM      1  O   UNL     1      -1.665 -14.531  13.930  0.00  0.00    -0.274 OA
ATOM      3  N   UNL     1      -2.354 -11.168  12.689  0.00  0.00    -0.286 NA
ATOM      4  N   UNL     1      -3.130 -13.841  12.333  0.00  0.00    -0.313 N 
ATOM      7  C   UNL     1      -1.547 -12.207  13.343  0.00  0.00    +0.145 C 
ATOM      8  C   UNL     1      -2.290 -10.476  14.876  0.00  0.00    +0.070 C 
ATOM      9  C   UNL     1      -2.937 -11.574  11.416  0.00  0.00    +0.075 C 
ATOM     10  C   UNL     1      -1.457 -11.757  14.810  0.00  0.00    +0.048 C 
ATOM     11  C   UNL     1      -3.250 -10.615  13.703  0.00  0.00    +0.104 C 
ATOM     12  C   UNL     1      -3.811 -12.806  11.589  0.00  0.00    +0.123 C 
ATOM     13  C   UNL     1      -2.130 -13.613  13.247  0.00  0.00    +0.230 C 
ATOM     31  H   UNL     1      -3.494 -14.786  12.263  0.00  0.00    +0.149 HD
ENDROOT
BRANCH   8   5
ATOM      5  N   UNL     1      -2.959 -10.297  16.155  0.00  0.00    -0.308 NA
ATOM     32  H   UNL     1      -2.265 -10.055  16.863  0.00  0.00    +0.123 HD
BRANCH   5  16
ATOM     16  C   UNL     1      -3.643 -11.517  16.563  0.00  0.00    +0.116 C 
BRANCH  16  18
ATOM     18  C   UNL     1      -4.755 -11.240  17.534  0.00  0.00    -0.034 A 
ATOM     19  C   UNL     1      -4.913 -12.047  18.661  0.00  0.00    +0.005 A 
ATOM     20  C   UNL     1      -5.629 -10.178  17.308  0.00  0.00    +0.005 A 
ATOM     22  C   UNL     1      -5.946 -11.791  19.562  0.00  0.00    +0.000 A 
ATOM     23  C   UNL     1      -6.663  -9.921  18.210  0.00  0.00    +0.000 A 
ATOM     24  C   UNL     1      -6.821 -10.727  19.337  0.00  0.00    +0.000 A 
ENDBRANCH  16  18
ENDBRANCH   5  16
ENDBRANCH   8   5
BRANCH   9  14
ATOM     14  C   UNL     1      -3.709 -10.446  10.729  0.00  0.00    +0.029 C 
BRANCH  14  15
ATOM     15  C   UNL     1      -5.172 -10.819  10.535  0.00  0.00    +0.097 C 
BRANCH  15  17
ATOM      2  O   UNL     1      -6.320  -8.800  11.217  0.00  0.00    -0.276 OA
ATOM      6  N   UNL     1      -6.636 -10.747  12.442  0.00  0.00    -0.311 N 
ATOM     17  C   UNL     1      -6.094  -9.991  11.411  0.00  0.00    +0.213 C 
ATOM     33  H   UNL     1      -6.374 -11.722  12.548  0.00  0.00    +0.149 HD
BRANCH   6  21
ATOM     21  C   UNL     1      -7.545 -10.186  13.414  0.00  0.00    +0.139 C 
BRANCH  21  25
ATOM     25  C   UNL     1      -7.833 -11.144  14.533  0.00  0.00    -0.030 A 
ATOM     26  C   UNL     1      -7.044 -12.282  14.698  0.00  0.00    +0.005 A 
ATOM     27  C   UNL     1      -8.890 -10.895  15.408  0.00  0.00    +0.005 A 
ATOM     28  C   UNL     1      -7.312 -13.172  15.738  0.00  0.00    +0.000 A 
ATOM     29  C   UNL     1      -9.159 -11.785  16.448  0.00  0.00    +0.000 A 
ATOM     30  C   UNL     1      -8.369 -12.923  16.614  0.00  0.00    +0.000 A 
ENDBRANCH  21  25
ENDBRANCH   6  21
ENDBRANCH  15  17
ENDBRANCH  14  15
ENDBRANCH   9  14
TORSDOF 8
ENDMDL
MODEL 10
REMARK VINA RESULT:      -6.7     18.149     22.470
REMARK  Name = 45360669
REMARK  8 active torsions:
REMARK  status: ('A' for Active; 'I' for Inactive)
REMARK    1  A    between atoms: N_5  and  C_8
REMARK    2  A    between atoms: N_5  and  C_16
REMARK    3  A    between atoms: N_6  and  C_21
REMARK    4  A    between atoms: C_9  and  C_14
REMARK    5  A    between atoms: C_14  and  C_15
REMARK    6  A    between atoms: C_15  and  C_17
REMARK    7  A    between atoms: C_16  and  C_18
REMARK    8  A    between atoms: C_21  and  C_25
REMARK                            x       y       z     vdW  Elec       q    Type
REMARK                         _______ _______ _______ _____ _____    ______ ____
ROOT
ATOM      1  O   UNL     1      11.427   8.319   0.882  0.00  0.00    -0.274 OA
ATOM      3  N   UNL     1      11.135   4.691   0.613  0.00  0.00    -0.286 NA
ATOM      4  N   UNL     1      12.779   6.825  -0.174  0.00  0.00    -0.313 N 
ATOM      7  C   UNL     1      10.635   6.054   0.829  0.00  0.00    +0.145 C 
ATOM      8  C   UNL     1      10.571   4.689   2.837  0.00  0.00    +0.070 C 
ATOM      9  C   UNL     1      11.976   4.540  -0.569  0.00  0.00    +0.075 C 
ATOM     10  C   UNL     1      10.217   6.080   2.308  0.00  0.00    +0.048 C 
ATOM     11  C   UNL     1      11.665   4.217   1.890  0.00  0.00    +0.104 C 
ATOM     12  C   UNL     1      13.174   5.474  -0.503  0.00  0.00    +0.123 C 
ATOM     13  C   UNL     1      11.651   7.153   0.539  0.00  0.00    +0.230 C 
ATOM     31  H   UNL     1      13.437   7.570  -0.380  0.00  0.00    +0.149 HD
ENDROOT
BRANCH   8   5
ATOM      5  N   UNL     1      10.977   4.698   4.234  0.00  0.00    -0.308 NA
ATOM     32  H   UNL     1      11.764   4.059   4.356  0.00  0.00    +0.123 HD
BRANCH   5  16
ATOM     16  C   UNL     1       9.886   4.271   5.100  0.00  0.00    +0.116 C 
BRANCH  16  18
ATOM     18  C   UNL     1       9.500   5.336   6.085  0.00  0.00    -0.034 A 
ATOM     19  C   UNL     1       8.683   6.393   5.684  0.00  0.00    +0.005 A 
ATOM     20  C   UNL     1       9.960   5.269   7.400  0.00  0.00    +0.005 A 
ATOM     22  C   UNL     1       8.325   7.383   6.600  0.00  0.00    +0.000 A 
ATOM     23  C   UNL     1       9.602   6.259   8.316  0.00  0.00    +0.000 A 
ATOM     24  C   UNL     1       8.783   7.316   7.916  0.00  0.00    +0.000 A 
ENDBRANCH  16  18
ENDBRANCH   5  16
ENDBRANCH   8   5
BRANCH   9  14
ATOM     14  C   UNL     1      12.419   3.095  -0.803  0.00  0.00    +0.029 C 
BRANCH  14  15
ATOM     15  C   UNL     1      12.428   2.756  -2.288  0.00  0.00    +0.097 C 
BRANCH  15  17
ATOM      2  O   UNL     1      10.241   1.752  -2.563  0.00  0.00    -0.276 OA
ATOM      6  N   UNL     1      10.752   3.688  -3.740  0.00  0.00    -0.311 N 
ATOM     17  C   UNL     1      11.025   2.651  -2.858  0.00  0.00    +0.213 C 
ATOM     33  H   UNL     1      11.468   4.376  -3.951  0.00  0.00    +0.149 HD
BRANCH   6  21
ATOM     21  C   UNL     1       9.482   3.810  -4.416  0.00  0.00    +0.139 C 
BRANCH  21  25
ATOM     25  C   UNL     1       8.666   4.949  -3.878  0.00  0.00    -0.030 A 
ATOM     26  C   UNL     1       9.117   5.669  -2.772  0.00  0.00    +0.005 A 
ATOM     27  C   UNL     1       7.457   5.289  -4.486  0.00  0.00    +0.005 A 
ATOM     28  C   UNL     1       8.359   6.728  -2.273  0.00  0.00    +0.000 A 
ATOM     29  C   UNL     1       6.699   6.348  -3.987  0.00  0.00    +0.000 A 
ATOM     30  C   UNL     1       7.150   7.068  -2.880  0.00  0.00    +0.000 A 
ENDBRANCH  21  25
ENDBRANCH   6  21
ENDBRANCH  15  17
ENDBRANCH  14  15
ENDBRANCH   9  14
TORSDOF 8
ENDMDL
