MODEL 1
REMARK VINA RESULT:      -7.1      0.000      0.000
REMARK  Name = 7673881
REMARK  5 active torsions:
REMARK  status: ('A' for Active; 'I' for Inactive)
REMARK    1  A    between atoms: S_1  and  N_7
REMARK    2  A    between atoms: S_1  and  C_22
REMARK    3  A    between atoms: N_9  and  C_20
REMARK    4  A    between atoms: C_26  and  C_27
REMARK    5  A    between atoms: C_32  and  C_33
REMARK                            x       y       z     vdW  Elec       q    Type
REMARK                         _______ _______ _______ _____ _____    ______ ____
ROOT
ATOM      5  O   UNL     1      17.166   9.616  20.545  0.00  0.00    -0.266 OA
ATOM      7  N   UNL     1      12.250  10.388  20.781  0.00  0.00    -0.175 NA
ATOM      8  N   UNL     1      14.990   9.109  19.860  0.00  0.00    -0.310 N 
ATOM     11  C   UNL     1      13.489  10.796  18.651  0.00  0.00    +0.025 C 
ATOM     12  C   UNL     1      12.638   8.547  19.155  0.00  0.00    +0.052 C 
ATOM     13  C   UNL     1      12.842   9.563  18.034  0.00  0.00    +0.017 C 
ATOM     14  C   UNL     1      12.578  11.398  19.735  0.00  0.00    +0.114 C 
ATOM     15  C   UNL     1      11.681   9.130  20.211  0.00  0.00    +0.119 C 
ATOM     16  C   UNL     1      14.871  10.413  19.195  0.00  0.00    +0.130 C 
ATOM     17  C   UNL     1      13.961   8.166  19.794  0.00  0.00    +0.026 A 
ATOM     18  C   UNL     1      14.135   6.938  20.312  0.00  0.00    +0.024 A 
ATOM     19  C   UNL     1      16.226   8.824  20.477  0.00  0.00    +0.273 A 
ATOM     20  C   UNL     1      16.372   7.453  21.060  0.00  0.00    +0.099 A 
ATOM     21  C   UNL     1      15.365   6.578  20.958  0.00  0.00    +0.030 A 
ENDROOT
BRANCH  20   9
ATOM      6  O   UNL     1      18.629   6.197  19.845  0.00  0.00    -0.270 OA
ATOM      9  N   UNL     1      17.548   7.141  21.677  0.00  0.00    -0.277 N 
ATOM     26  C   UNL     1      18.612   6.529  21.028  0.00  0.00    +0.248 C 
ATOM     34  H   UNL     1      17.548   7.251  22.684  0.00  0.00    +0.155 HD
BRANCH  26  27
ATOM     27  C   UNL     1      19.821   6.289  21.859  0.00  0.00    +0.037 A 
ATOM     28  C   UNL     1      20.756   5.373  21.425  0.00  0.00    +0.014 A 
ATOM     29  C   UNL     1      19.966   6.990  23.039  0.00  0.00    +0.014 A 
ATOM     30  C   UNL     1      21.890   5.148  22.206  0.00  0.00    +0.019 A 
ATOM     31  C   UNL     1      21.101   6.764  23.820  0.00  0.00    +0.019 A 
ATOM     32  C   UNL     1      22.062   5.843  23.403  0.00  0.00    +0.052 A 
BRANCH  32  33
ATOM     10  N   UNL     1      24.167   5.424  24.855  0.00  0.00    -0.191 NA
ATOM     33  C   UNL     1      23.223   5.611  24.204  0.00  0.00    +0.099 C 
ENDBRANCH  32  33
ENDBRANCH  26  27
ENDBRANCH  20   9
BRANCH   7   1
ATOM      1  S   UNL     1      11.457  10.994  22.171  0.00  0.00    +0.067 S 
ATOM      3  O   UNL     1      10.640   9.947  22.746  0.00  0.00    -0.152 OA
ATOM      4  O   UNL     1      10.896  12.294  21.865  0.00  0.00    -0.152 OA
BRANCH   1  22
ATOM      2  S   UNL     1      12.459  11.897  24.766  0.00  0.00    -0.077 S 
ATOM     22  C   UNL     1      12.844  11.240  23.235  0.00  0.00    +0.143 A 
ATOM     23  C   UNL     1      14.190  11.011  23.088  0.00  0.00    +0.036 A 
ATOM     24  C   UNL     1      14.922  11.381  24.252  0.00  0.00    +0.010 A 
ATOM     25  C   UNL     1      14.103  11.877  25.242  0.00  0.00    +0.047 A 
ENDBRANCH   1  22
ENDBRANCH   7   1
TORSDOF 5
ENDMDL
MODEL 2
REMARK VINA RESULT:      -6.9     28.592     31.492
REMARK  Name = 7673881
REMARK  5 active torsions:
REMARK  status: ('A' for Active; 'I' for Inactive)
REMARK    1  A    between atoms: S_1  and  N_7
REMARK    2  A    between atoms: S_1  and  C_22
REMARK    3  A    between atoms: N_9  and  C_20
REMARK    4  A    between atoms: C_26  and  C_27
REMARK    5  A    between atoms: C_32  and  C_33
REMARK                            x       y       z     vdW  Elec       q    Type
REMARK                         _______ _______ _______ _____ _____    ______ ____
ROOT
ATOM      5  O   UNL     1      -6.660 -10.321  14.319  0.00  0.00    -0.266 OA
ATOM      7  N   UNL     1      -2.650 -13.090  13.283  0.00  0.00    -0.175 NA
ATOM      8  N   UNL     1      -4.342 -10.611  14.274  0.00  0.00    -0.310 N 
ATOM     11  C   UNL     1      -3.025 -10.924  12.100  0.00  0.00    +0.025 C 
ATOM     12  C   UNL     1      -1.845 -10.947  14.254  0.00  0.00    +0.052 C 
ATOM     13  C   UNL     1      -1.873 -10.296  12.874  0.00  0.00    +0.017 C 
ATOM     14  C   UNL     1      -2.814 -12.440  11.952  0.00  0.00    +0.114 C 
ATOM     15  C   UNL     1      -1.578 -12.456  14.107  0.00  0.00    +0.119 C 
ATOM     16  C   UNL     1      -4.344 -10.582  12.806  0.00  0.00    +0.130 C 
ATOM     17  C   UNL     1      -3.148 -10.711  14.995  0.00  0.00    +0.026 A 
ATOM     18  C   UNL     1      -3.160 -10.621  16.336  0.00  0.00    +0.024 A 
ATOM     19  C   UNL     1      -5.587 -10.431  14.912  0.00  0.00    +0.273 A 
ATOM     20  C   UNL     1      -5.558 -10.358  16.407  0.00  0.00    +0.099 A 
ATOM     21  C   UNL     1      -4.390 -10.442  17.053  0.00  0.00    +0.030 A 
ENDROOT
BRANCH  20   9
ATOM      6  O   UNL     1      -7.131 -12.431  17.580  0.00  0.00    -0.270 OA
ATOM      9  N   UNL     1      -6.744 -10.196  17.063  0.00  0.00    -0.277 N 
ATOM     26  C   UNL     1      -7.462 -11.249  17.613  0.00  0.00    +0.248 C 
ATOM     34  H   UNL     1      -7.148  -9.270  16.997  0.00  0.00    +0.155 HD
BRANCH  26  27
ATOM     27  C   UNL     1      -8.721 -10.874  18.310  0.00  0.00    +0.037 A 
ATOM     28  C   UNL     1      -9.083 -11.566  19.447  0.00  0.00    +0.014 A 
ATOM     29  C   UNL     1      -9.486  -9.849  17.795  0.00  0.00    +0.014 A 
ATOM     30  C   UNL     1     -10.264 -11.215  20.100  0.00  0.00    +0.019 A 
ATOM     31  C   UNL     1     -10.668  -9.498  18.449  0.00  0.00    +0.019 A 
ATOM     32  C   UNL     1     -11.057 -10.181  19.601  0.00  0.00    +0.052 A 
BRANCH  32  33
ATOM     10  N   UNL     1     -13.252  -9.530  20.812  0.00  0.00    -0.191 NA
ATOM     33  C   UNL     1     -12.268  -9.823  20.269  0.00  0.00    +0.099 C 
ENDBRANCH  32  33
ENDBRANCH  26  27
ENDBRANCH  20   9
BRANCH   7   1
ATOM      1  S   UNL     1      -2.663 -14.801  13.277  0.00  0.00    +0.067 S 
ATOM      3  O   UNL     1      -1.306 -15.287  13.406  0.00  0.00    -0.152 OA
ATOM      4  O   UNL     1      -3.520 -15.263  12.204  0.00  0.00    -0.152 OA
BRANCH   1  22
ATOM      2  S   UNL     1      -3.064 -16.581  15.562  0.00  0.00    -0.077 S 
ATOM     22  C   UNL     1      -3.493 -15.110  14.804  0.00  0.00    +0.143 A 
ATOM     23  C   UNL     1      -4.427 -14.404  15.521  0.00  0.00    +0.036 A 
ATOM     24  C   UNL     1      -4.801 -15.081  16.718  0.00  0.00    +0.010 A 
ATOM     25  C   UNL     1      -4.134 -16.278  16.864  0.00  0.00    +0.047 A 
ENDBRANCH   1  22
ENDBRANCH   7   1
TORSDOF 5
ENDMDL
MODEL 3
REMARK VINA RESULT:      -6.7     28.440     31.697
REMARK  Name = 7673881
REMARK  5 active torsions:
REMARK  status: ('A' for Active; 'I' for Inactive)
REMARK    1  A    between atoms: S_1  and  N_7
REMARK    2  A    between atoms: S_1  and  C_22
REMARK    3  A    between atoms: N_9  and  C_20
REMARK    4  A    between atoms: C_26  and  C_27
REMARK    5  A    between atoms: C_32  and  C_33
REMARK                            x       y       z     vdW  Elec       q    Type
REMARK                         _______ _______ _______ _____ _____    ______ ____
ROOT
ATOM      5  O   UNL     1      -7.429  -8.787  16.915  0.00  0.00    -0.266 OA
ATOM      7  N   UNL     1      -3.520 -11.684  15.839  0.00  0.00    -0.175 NA
ATOM      8  N   UNL     1      -6.485 -10.903  16.611  0.00  0.00    -0.310 N 
ATOM     11  C   UNL     1      -4.597 -11.804  18.089  0.00  0.00    +0.025 C 
ATOM     12  C   UNL     1      -5.466 -13.178  16.247  0.00  0.00    +0.052 C 
ATOM     13  C   UNL     1      -5.173 -13.172  17.745  0.00  0.00    +0.017 C 
ATOM     14  C   UNL     1      -3.296 -11.553  17.307  0.00  0.00    +0.114 C 
ATOM     15  C   UNL     1      -4.154 -12.983  15.465  0.00  0.00    +0.119 C 
ATOM     16  C   UNL     1      -5.661 -10.733  17.815  0.00  0.00    +0.130 C 
ATOM     17  C   UNL     1      -6.465 -12.095  15.882  0.00  0.00    +0.026 A 
ATOM     18  C   UNL     1      -7.310 -12.271  14.852  0.00  0.00    +0.024 A 
ATOM     19  C   UNL     1      -7.364  -9.847  16.293  0.00  0.00    +0.273 A 
ATOM     20  C   UNL     1      -8.273 -10.075  15.125  0.00  0.00    +0.099 A 
ATOM     21  C   UNL     1      -8.229 -11.238  14.468  0.00  0.00    +0.030 A 
ENDROOT
BRANCH  20   9
ATOM      6  O   UNL     1     -10.987  -9.810  15.969  0.00  0.00    -0.270 OA
ATOM      9  N   UNL     1      -9.130  -9.072  14.776  0.00  0.00    -0.277 N 
ATOM     26  C   UNL     1     -10.443  -9.000  15.222  0.00  0.00    +0.248 C 
ATOM     34  H   UNL     1      -8.795  -8.454  14.047  0.00  0.00    +0.155 HD
BRANCH  26  27
ATOM     27  C   UNL     1     -11.218  -7.821  14.754  0.00  0.00    +0.037 A 
ATOM     28  C   UNL     1     -11.243  -6.687  15.539  0.00  0.00    +0.014 A 
ATOM     29  C   UNL     1     -11.887  -7.900  13.550  0.00  0.00    +0.014 A 
ATOM     30  C   UNL     1     -11.971  -5.581  15.100  0.00  0.00    +0.019 A 
ATOM     31  C   UNL     1     -12.615  -6.793  13.112  0.00  0.00    +0.019 A 
ATOM     32  C   UNL     1     -12.656  -5.634  13.886  0.00  0.00    +0.052 A 
BRANCH  32  33
ATOM     10  N   UNL     1     -14.010  -3.581  13.071  0.00  0.00    -0.191 NA
ATOM     33  C   UNL     1     -13.404  -4.501  13.437  0.00  0.00    +0.099 C 
ENDBRANCH  32  33
ENDBRANCH  26  27
ENDBRANCH  20   9
BRANCH   7   1
ATOM      1  S   UNL     1      -2.221 -11.181  14.845  0.00  0.00    +0.067 S 
ATOM      3  O   UNL     1      -1.438 -12.338  14.467  0.00  0.00    -0.152 OA
ATOM      4  O   UNL     1      -1.594 -10.020  15.441  0.00  0.00    -0.152 OA
BRANCH   1  22
ATOM      2  S   UNL     1      -2.157 -10.459  12.013  0.00  0.00    -0.077 S 
ATOM     22  C   UNL     1      -3.112 -10.645  13.419  0.00  0.00    +0.143 A 
ATOM     23  C   UNL     1      -4.432 -10.340  13.200  0.00  0.00    +0.036 A 
ATOM     24  C   UNL     1      -4.669  -9.945  11.852  0.00  0.00    +0.010 A 
ATOM     25  C   UNL     1      -3.517  -9.966  11.096  0.00  0.00    +0.047 A 
ENDBRANCH   1  22
ENDBRANCH   7   1
TORSDOF 5
ENDMDL
MODEL 4
REMARK VINA RESULT:      -6.7     29.035     31.908
REMARK  Name = 7673881
REMARK  5 active torsions:
REMARK  status: ('A' for Active; 'I' for Inactive)
REMARK    1  A    between atoms: S_1  and  N_7
REMARK    2  A    between atoms: S_1  and  C_22
REMARK    3  A    between atoms: N_9  and  C_20
REMARK    4  A    between atoms: C_26  and  C_27
REMARK    5  A    between atoms: C_32  and  C_33
REMARK                            x       y       z     vdW  Elec       q    Type
REMARK                         _______ _______ _______ _____ _____    ______ ____
ROOT
ATOM      5  O   UNL     1      -4.902 -12.558   8.830  0.00  0.00    -0.266 OA
ATOM      7  N   UNL     1      -4.517 -11.513  13.687  0.00  0.00    -0.175 NA
ATOM      8  N   UNL     1      -3.687 -11.723  10.644  0.00  0.00    -0.310 N 
ATOM     11  C   UNL     1      -2.984 -13.178  12.631  0.00  0.00    +0.025 C 
ATOM     12  C   UNL     1      -2.400 -10.792  12.599  0.00  0.00    +0.052 C 
ATOM     13  C   UNL     1      -1.825 -12.197  12.757  0.00  0.00    +0.017 C 
ATOM     14  C   UNL     1      -4.030 -12.922  13.729  0.00  0.00    +0.114 C 
ATOM     15  C   UNL     1      -3.405 -10.517  13.732  0.00  0.00    +0.119 C 
ATOM     16  C   UNL     1      -3.578 -13.069  11.220  0.00  0.00    +0.130 C 
ATOM     17  C   UNL     1      -3.069 -10.624  11.247  0.00  0.00    +0.026 A 
ATOM     18  C   UNL     1      -3.086  -9.424  10.643  0.00  0.00    +0.024 A 
ATOM     19  C   UNL     1      -4.357 -11.617   9.407  0.00  0.00    +0.273 A 
ATOM     20  C   UNL     1      -4.372 -10.258   8.779  0.00  0.00    +0.099 A 
ATOM     21  C   UNL     1      -3.753  -9.240   9.385  0.00  0.00    +0.030 A 
ENDROOT
BRANCH  20   9
ATOM      6  O   UNL     1      -7.036  -9.297   8.419  0.00  0.00    -0.270 OA
ATOM      9  N   UNL     1      -5.021 -10.111   7.588  0.00  0.00    -0.277 N 
ATOM     26  C   UNL     1      -6.321  -9.636   7.480  0.00  0.00    +0.248 C 
ATOM     34  H   UNL     1      -4.546 -10.510   6.787  0.00  0.00    +0.155 HD
BRANCH  26  27
ATOM     27  C   UNL     1      -6.852  -9.523   6.095  0.00  0.00    +0.037 A 
ATOM     28  C   UNL     1      -6.705 -10.593   5.237  0.00  0.00    +0.014 A 
ATOM     29  C   UNL     1      -7.471  -8.351   5.714  0.00  0.00    +0.014 A 
ATOM     30  C   UNL     1      -7.202 -10.486   3.938  0.00  0.00    +0.019 A 
ATOM     31  C   UNL     1      -7.967  -8.244   4.414  0.00  0.00    +0.019 A 
ATOM     32  C   UNL     1      -7.833  -9.312   3.527  0.00  0.00    +0.052 A 
BRANCH  32  33
ATOM     10  N   UNL     1      -8.752  -9.112   1.112  0.00  0.00    -0.191 NA
ATOM     33  C   UNL     1      -8.341  -9.201   2.195  0.00  0.00    +0.099 C 
ENDBRANCH  32  33
ENDBRANCH  26  27
ENDBRANCH  20   9
BRANCH   7   1
ATOM      1  S   UNL     1      -5.862 -11.166  14.685  0.00  0.00    +0.067 S 
ATOM      3  O   UNL     1      -6.918 -12.117  14.407  0.00  0.00    -0.152 OA
ATOM      4  O   UNL     1      -6.117  -9.740  14.654  0.00  0.00    -0.152 OA
BRANCH   1  22
ATOM      2  S   UNL     1      -5.815 -12.982  16.976  0.00  0.00    -0.077 S 
ATOM     22  C   UNL     1      -5.185 -11.560  16.267  0.00  0.00    +0.143 A 
ATOM     23  C   UNL     1      -4.243 -10.953  17.059  0.00  0.00    +0.036 A 
ATOM     24  C   UNL     1      -4.031 -11.666  18.274  0.00  0.00    +0.010 A 
ATOM     25  C   UNL     1      -4.822 -12.791  18.357  0.00  0.00    +0.047 A 
ENDBRANCH   1  22
ENDBRANCH   7   1
TORSDOF 5
ENDMDL
MODEL 5
REMARK VINA RESULT:      -6.6     18.098     21.428
REMARK  Name = 7673881
REMARK  5 active torsions:
REMARK  status: ('A' for Active; 'I' for Inactive)
REMARK    1  A    between atoms: S_1  and  N_7
REMARK    2  A    between atoms: S_1  and  C_22
REMARK    3  A    between atoms: N_9  and  C_20
REMARK    4  A    between atoms: C_26  and  C_27
REMARK    5  A    between atoms: C_32  and  C_33
REMARK                            x       y       z     vdW  Elec       q    Type
REMARK                         _______ _______ _______ _____ _____    ______ ____
ROOT
ATOM      5  O   UNL     1      12.249   3.186   2.014  0.00  0.00    -0.266 OA
ATOM      7  N   UNL     1      13.879   5.776  -1.918  0.00  0.00    -0.175 NA
ATOM      8  N   UNL     1      11.882   4.152  -0.082  0.00  0.00    -0.310 N 
ATOM     11  C   UNL     1      13.133   3.409  -2.190  0.00  0.00    +0.025 C 
ATOM     12  C   UNL     1      11.488   5.229  -2.326  0.00  0.00    +0.052 C 
ATOM     13  C   UNL     1      11.885   3.882  -2.926  0.00  0.00    +0.017 C 
ATOM     14  C   UNL     1      14.282   4.414  -2.373  0.00  0.00    +0.114 C 
ATOM     15  C   UNL     1      12.616   6.249  -2.559  0.00  0.00    +0.119 C 
ATOM     16  C   UNL     1      12.784   3.180  -0.714  0.00  0.00    +0.130 C 
ATOM     17  C   UNL     1      11.191   5.100  -0.843  0.00  0.00    +0.026 A 
ATOM     18  C   UNL     1      10.286   5.904  -0.260  0.00  0.00    +0.024 A 
ATOM     19  C   UNL     1      11.675   4.014   1.306  0.00  0.00    +0.273 A 
ATOM     20  C   UNL     1      10.676   4.944   1.920  0.00  0.00    +0.099 A 
ATOM     21  C   UNL     1      10.026   5.823   1.149  0.00  0.00    +0.030 A 
ENDROOT
BRANCH  20   9
ATOM      6  O   UNL     1      11.771   6.651   3.929  0.00  0.00    -0.270 OA
ATOM      9  N   UNL     1      10.456   4.851   3.263  0.00  0.00    -0.277 N 
ATOM     26  C   UNL     1      11.020   5.715   4.192  0.00  0.00    +0.248 C 
ATOM     34  H   UNL     1       9.968   4.015   3.562  0.00  0.00    +0.155 HD
BRANCH  26  27
ATOM     27  C   UNL     1      10.645   5.471   5.609  0.00  0.00    +0.037 A 
ATOM     28  C   UNL     1       9.964   4.314   5.928  0.00  0.00    +0.014 A 
ATOM     29  C   UNL     1      10.989   6.409   6.560  0.00  0.00    +0.014 A 
ATOM     30  C   UNL     1       9.612   4.085   7.258  0.00  0.00    +0.019 A 
ATOM     31  C   UNL     1      10.635   6.180   7.890  0.00  0.00    +0.019 A 
ATOM     32  C   UNL     1       9.948   5.018   8.239  0.00  0.00    +0.052 A 
BRANCH  32  33
ATOM     10  N   UNL     1       9.292   4.595  10.709  0.00  0.00    -0.191 NA
ATOM     33  C   UNL     1       9.585   4.784   9.601  0.00  0.00    +0.099 C 
ENDBRANCH  32  33
ENDBRANCH  26  27
ENDBRANCH  20   9
BRANCH   7   1
ATOM      1  S   UNL     1      15.141   6.929  -1.829  0.00  0.00    +0.067 S 
ATOM      3  O   UNL     1      14.715   8.150  -2.479  0.00  0.00    -0.152 OA
ATOM      4  O   UNL     1      16.390   6.290  -2.188  0.00  0.00    -0.152 OA
BRANCH   1  22
ATOM      2  S   UNL     1      16.701   7.636   0.541  0.00  0.00    -0.077 S 
ATOM     22  C   UNL     1      15.166   7.226  -0.089  0.00  0.00    +0.143 A 
ATOM     23  C   UNL     1      14.193   7.196   0.880  0.00  0.00    +0.036 A 
ATOM     24  C   UNL     1      14.716   7.515   2.167  0.00  0.00    +0.010 A 
ATOM     25  C   UNL     1      16.068   7.776   2.125  0.00  0.00    +0.047 A 
ENDBRANCH   1  22
ENDBRANCH   7   1
TORSDOF 5
ENDMDL
MODEL 6
REMARK VINA RESULT:      -6.5     29.588     32.558
REMARK  Name = 7673881
REMARK  5 active torsions:
REMARK  status: ('A' for Active; 'I' for Inactive)
REMARK    1  A    between atoms: S_1  and  N_7
REMARK    2  A    between atoms: S_1  and  C_22
REMARK    3  A    between atoms: N_9  and  C_20
REMARK    4  A    between atoms: C_26  and  C_27
REMARK    5  A    between atoms: C_32  and  C_33
REMARK                            x       y       z     vdW  Elec       q    Type
REMARK                         _______ _______ _______ _____ _____    ______ ____
ROOT
ATOM      5  O   UNL     1     -10.715  -9.305  14.096  0.00  0.00    -0.266 OA
ATOM      7  N   UNL     1     -13.138  -5.294  12.402  0.00  0.00    -0.175 NA
ATOM      8  N   UNL     1     -12.465  -7.765  14.256  0.00  0.00    -0.310 N 
ATOM     11  C   UNL     1     -14.267  -7.520  12.452  0.00  0.00    +0.025 C 
ATOM     12  C   UNL     1     -14.328  -6.078  14.439  0.00  0.00    +0.052 C 
ATOM     13  C   UNL     1     -15.152  -7.051  13.599  0.00  0.00    +0.017 C 
ATOM     14  C   UNL     1     -13.831  -6.329  11.583  0.00  0.00    +0.114 C 
ATOM     15  C   UNL     1     -13.941  -4.859  13.583  0.00  0.00    +0.119 C 
ATOM     16  C   UNL     1     -13.073  -8.293  13.027  0.00  0.00    +0.130 C 
ATOM     17  C   UNL     1     -13.085  -6.751  14.993  0.00  0.00    +0.026 A 
ATOM     18  C   UNL     1     -12.572  -6.363  16.172  0.00  0.00    +0.024 A 
ATOM     19  C   UNL     1     -11.287  -8.398  14.702  0.00  0.00    +0.273 A 
ATOM     20  C   UNL     1     -10.735  -7.921  16.009  0.00  0.00    +0.099 A 
ATOM     21  C   UNL     1     -11.372  -6.960  16.687  0.00  0.00    +0.030 A 
ENDROOT
BRANCH  20   9
ATOM      6  O   UNL     1     -10.565 -10.025  17.931  0.00  0.00    -0.270 OA
ATOM      9  N   UNL     1      -9.589  -8.500  16.469  0.00  0.00    -0.277 N 
ATOM     26  C   UNL     1      -9.573  -9.523  17.408  0.00  0.00    +0.248 C 
ATOM     34  H   UNL     1      -8.731  -8.036  16.193  0.00  0.00    +0.155 HD
BRANCH  26  27
ATOM     27  C   UNL     1      -8.229 -10.043  17.770  0.00  0.00    +0.037 A 
ATOM     28  C   UNL     1      -7.153  -9.723  16.967  0.00  0.00    +0.014 A 
ATOM     29  C   UNL     1      -8.101 -10.831  18.895  0.00  0.00    +0.014 A 
ATOM     30  C   UNL     1      -5.891 -10.212  17.307  0.00  0.00    +0.019 A 
ATOM     31  C   UNL     1      -6.839 -11.320  19.234  0.00  0.00    +0.019 A 
ATOM     32  C   UNL     1      -5.734 -11.010  18.440  0.00  0.00    +0.052 A 
BRANCH  32  33
ATOM     10  N   UNL     1      -3.392 -11.923  19.069  0.00  0.00    -0.191 NA
ATOM     33  C   UNL     1      -4.442 -11.513  18.787  0.00  0.00    +0.099 C 
ENDBRANCH  32  33
ENDBRANCH  26  27
ENDBRANCH  20   9
BRANCH   7   1
ATOM      1  S   UNL     1     -12.380  -4.038  11.520  0.00  0.00    +0.067 S 
ATOM      3  O   UNL     1     -11.463  -4.618  10.562  0.00  0.00    -0.152 OA
ATOM      4  O   UNL     1     -11.941  -3.012  12.443  0.00  0.00    -0.152 OA
BRANCH   1  22
ATOM      2  S   UNL     1     -13.633  -3.535   8.927  0.00  0.00    -0.077 S 
ATOM     22  C   UNL     1     -13.765  -3.407  10.627  0.00  0.00    +0.143 A 
ATOM     23  C   UNL     1     -14.945  -2.826  11.018  0.00  0.00    +0.036 A 
ATOM     24  C   UNL     1     -15.760  -2.476   9.904  0.00  0.00    +0.010 A 
ATOM     25  C   UNL     1     -15.167  -2.807   8.705  0.00  0.00    +0.047 A 
ENDBRANCH   1  22
ENDBRANCH   7   1
TORSDOF 5
ENDMDL
MODEL 7
REMARK VINA RESULT:      -6.4     28.487     31.365
REMARK  Name = 7673881
REMARK  5 active torsions:
REMARK  status: ('A' for Active; 'I' for Inactive)
REMARK    1  A    between atoms: S_1  and  N_7
REMARK    2  A    between atoms: S_1  and  C_22
REMARK    3  A    between atoms: N_9  and  C_20
REMARK    4  A    between atoms: C_26  and  C_27
REMARK    5  A    between atoms: C_32  and  C_33
REMARK                            x       y       z     vdW  Elec       q    Type
REMARK                         _______ _______ _______ _____ _____    ______ ____
ROOT
ATOM      5  O   UNL     1      -5.212 -12.497  10.263  0.00  0.00    -0.266 OA
ATOM      7  N   UNL     1      -3.530 -12.073  14.934  0.00  0.00    -0.175 NA
ATOM      8  N   UNL     1      -3.450 -12.254  11.779  0.00  0.00    -0.310 N 
ATOM     11  C   UNL     1      -2.873 -14.031  13.531  0.00  0.00    +0.025 C 
ATOM     12  C   UNL     1      -1.561 -11.957  13.420  0.00  0.00    +0.052 C 
ATOM     13  C   UNL     1      -1.457 -13.480  13.417  0.00  0.00    +0.017 C 
ATOM     14  C   UNL     1      -3.532 -13.561  14.838  0.00  0.00    +0.114 C 
ATOM     15  C   UNL     1      -2.170 -11.485  14.753  0.00  0.00    +0.119 C 
ATOM     16  C   UNL     1      -3.671 -13.614  12.289  0.00  0.00    +0.130 C 
ATOM     17  C   UNL     1      -2.398 -11.465  12.253  0.00  0.00    +0.026 A 
ATOM     18  C   UNL     1      -2.144 -10.271  11.693  0.00  0.00    +0.024 A 
ATOM     19  C   UNL     1      -4.285 -11.831  10.724  0.00  0.00    +0.273 A 
ATOM     20  C   UNL     1      -3.983 -10.485  10.143  0.00  0.00    +0.099 A 
ATOM     21  C   UNL     1      -2.955  -9.773  10.618  0.00  0.00    +0.030 A 
ENDROOT
BRANCH  20   9
ATOM      6  O   UNL     1      -6.345  -8.906  10.425  0.00  0.00    -0.270 OA
ATOM      9  N   UNL     1      -4.775 -10.033   9.129  0.00  0.00    -0.277 N 
ATOM     26  C   UNL     1      -5.915  -9.266   9.332  0.00  0.00    +0.248 C 
ATOM     34  H   UNL     1      -4.564 -10.416   8.215  0.00  0.00    +0.155 HD
BRANCH  26  27
ATOM     27  C   UNL     1      -6.637  -8.848   8.102  0.00  0.00    +0.037 A 
ATOM     28  C   UNL     1      -7.530  -7.799   8.179  0.00  0.00    +0.014 A 
ATOM     29  C   UNL     1      -6.391  -9.522   6.925  0.00  0.00    +0.014 A 
ATOM     30  C   UNL     1      -8.208  -7.407   7.025  0.00  0.00    +0.019 A 
ATOM     31  C   UNL     1      -7.071  -9.130   5.770  0.00  0.00    +0.019 A 
ATOM     32  C   UNL     1      -7.978  -8.072   5.821  0.00  0.00    +0.052 A 
BRANCH  32  33
ATOM     10  N   UNL     1      -9.241  -7.345   3.679  0.00  0.00    -0.191 NA
ATOM     33  C   UNL     1      -8.675  -7.672   4.639  0.00  0.00    +0.099 C 
ENDBRANCH  32  33
ENDBRANCH  26  27
ENDBRANCH  20   9
BRANCH   7   1
ATOM      1  S   UNL     1      -4.456 -11.413  16.213  0.00  0.00    +0.067 S 
ATOM      3  O   UNL     1      -3.740 -10.297  16.791  0.00  0.00    -0.152 OA
ATOM      4  O   UNL     1      -4.950 -12.492  17.043  0.00  0.00    -0.152 OA
BRANCH   1  22
ATOM      2  S   UNL     1      -7.235 -10.502  16.228  0.00  0.00    -0.077 S 
ATOM     22  C   UNL     1      -5.822 -10.763  15.302  0.00  0.00    +0.143 A 
ATOM     23  C   UNL     1      -5.989 -10.418  13.983  0.00  0.00    +0.036 A 
ATOM     24  C   UNL     1      -7.301  -9.930  13.724  0.00  0.00    +0.010 A 
ATOM     25  C   UNL     1      -8.083  -9.922  14.859  0.00  0.00    +0.047 A 
ENDBRANCH   1  22
ENDBRANCH   7   1
TORSDOF 5
ENDMDL
MODEL 8
REMARK VINA RESULT:      -6.4     28.456     31.414
REMARK  Name = 7673881
REMARK  5 active torsions:
REMARK  status: ('A' for Active; 'I' for Inactive)
REMARK    1  A    between atoms: S_1  and  N_7
REMARK    2  A    between atoms: S_1  and  C_22
REMARK    3  A    between atoms: N_9  and  C_20
REMARK    4  A    between atoms: C_26  and  C_27
REMARK    5  A    between atoms: C_32  and  C_33
REMARK                            x       y       z     vdW  Elec       q    Type
REMARK                         _______ _______ _______ _____ _____    ______ ____
ROOT
ATOM      5  O   UNL     1     -14.932   8.105  22.574  0.00  0.00    -0.266 OA
ATOM      7  N   UNL     1     -13.249   9.465  18.086  0.00  0.00    -0.175 NA
ATOM      8  N   UNL     1     -13.166   8.584  21.121  0.00  0.00    -0.310 N 
ATOM     11  C   UNL     1     -12.812  10.899  20.083  0.00  0.00    +0.025 C 
ATOM     12  C   UNL     1     -11.268   9.069  19.536  0.00  0.00    +0.052 C 
ATOM     13  C   UNL     1     -11.341  10.504  20.051  0.00  0.00    +0.017 C 
ATOM     14  C   UNL     1     -13.423  10.824  18.674  0.00  0.00    +0.114 C 
ATOM     15  C   UNL     1     -11.828   9.006  18.103  0.00  0.00    +0.119 C 
ATOM     16  C   UNL     1     -13.547  10.002  21.088  0.00  0.00    +0.130 C 
ATOM     17  C   UNL     1     -12.032   8.123  20.444  0.00  0.00    +0.026 A 
ATOM     18  C   UNL     1     -11.638   6.846  20.580  0.00  0.00    +0.024 A 
ATOM     19  C   UNL     1     -13.937   7.740  21.946  0.00  0.00    +0.273 A 
ATOM     20  C   UNL     1     -13.476   6.320  22.053  0.00  0.00    +0.099 A 
ATOM     21  C   UNL     1     -12.377   5.929  21.400  0.00  0.00    +0.030 A 
ENDROOT
BRANCH  20   9
ATOM      6  O   UNL     1     -15.745   4.799  21.225  0.00  0.00    -0.270 OA
ATOM      9  N   UNL     1     -14.203   5.468  22.833  0.00  0.00    -0.277 N 
ATOM     26  C   UNL     1     -15.300   4.755  22.369  0.00  0.00    +0.248 C 
ATOM     34  H   UNL     1     -13.983   5.497  23.822  0.00  0.00    +0.155 HD
BRANCH  26  27
ATOM     27  C   UNL     1     -15.951   3.859  23.360  0.00  0.00    +0.037 A 
ATOM     28  C   UNL     1     -15.414   3.768  24.628  0.00  0.00    +0.014 A 
ATOM     29  C   UNL     1     -17.068   3.146  22.979  0.00  0.00    +0.014 A 
ATOM     30  C   UNL     1     -16.025   2.926  25.557  0.00  0.00    +0.019 A 
ATOM     31  C   UNL     1     -17.678   2.303  23.909  0.00  0.00    +0.019 A 
ATOM     32  C   UNL     1     -17.157   2.194  25.198  0.00  0.00    +0.052 A 
BRANCH  32  33
ATOM     10  N   UNL     1     -18.290   0.627  26.923  0.00  0.00    -0.191 NA
ATOM     33  C   UNL     1     -17.781   1.330  26.150  0.00  0.00    +0.099 C 
ENDBRANCH  32  33
ENDBRANCH  26  27
ENDBRANCH  20   9
BRANCH   7   1
ATOM      1  S   UNL     1     -14.103   9.173  16.632  0.00  0.00    +0.067 S 
ATOM      3  O   UNL     1     -13.265   8.405  15.736  0.00  0.00    -0.152 OA
ATOM      4  O   UNL     1     -14.726  10.406  16.195  0.00  0.00    -0.152 OA
BRANCH   1  22
ATOM      2  S   UNL     1     -16.435   7.519  16.023  0.00  0.00    -0.077 S 
ATOM     22  C   UNL     1     -15.375   8.105  17.229  0.00  0.00    +0.143 A 
ATOM     23  C   UNL     1     -15.696   7.640  18.480  0.00  0.00    +0.036 A 
ATOM     24  C   UNL     1     -16.835   6.785  18.452  0.00  0.00    +0.010 A 
ATOM     25  C   UNL     1     -17.336   6.632  17.178  0.00  0.00    +0.047 A 
ENDBRANCH   1  22
ENDBRANCH   7   1
TORSDOF 5
ENDMDL
MODEL 9
REMARK VINA RESULT:      -6.3     17.851     21.127
REMARK  Name = 7673881
REMARK  5 active torsions:
REMARK  status: ('A' for Active; 'I' for Inactive)
REMARK    1  A    between atoms: S_1  and  N_7
REMARK    2  A    between atoms: S_1  and  C_22
REMARK    3  A    between atoms: N_9  and  C_20
REMARK    4  A    between atoms: C_26  and  C_27
REMARK    5  A    between atoms: C_32  and  C_33
REMARK                            x       y       z     vdW  Elec       q    Type
REMARK                         _______ _______ _______ _____ _____    ______ ____
ROOT
ATOM      5  O   UNL     1       9.822   6.780   1.008  0.00  0.00    -0.266 OA
ATOM      7  N   UNL     1      11.193   7.823   5.683  0.00  0.00    -0.175 NA
ATOM      8  N   UNL     1       9.732   6.344   3.302  0.00  0.00    -0.310 N 
ATOM     11  C   UNL     1       8.801   8.023   4.997  0.00  0.00    +0.025 C 
ATOM     12  C   UNL     1       9.669   5.860   5.774  0.00  0.00    +0.052 C 
ATOM     13  C   UNL     1       8.457   6.788   5.819  0.00  0.00    +0.017 C 
ATOM     14  C   UNL     1      10.024   8.743   5.589  0.00  0.00    +0.114 C 
ATOM     15  C   UNL     1      10.878   6.562   6.418  0.00  0.00    +0.119 C 
ATOM     16  C   UNL     1       9.017   7.606   3.537  0.00  0.00    +0.130 C 
ATOM     17  C   UNL     1       9.992   5.453   4.348  0.00  0.00    +0.026 A 
ATOM     18  C   UNL     1      10.544   4.256   4.093  0.00  0.00    +0.024 A 
ATOM     19  C   UNL     1      10.047   6.035   1.962  0.00  0.00    +0.273 A 
ATOM     20  C   UNL     1      10.681   4.701   1.724  0.00  0.00    +0.099 A 
ATOM     21  C   UNL     1      10.896   3.875   2.754  0.00  0.00    +0.030 A 
ENDROOT
BRANCH  20   9
ATOM      6  O   UNL     1      13.315   4.660   0.622  0.00  0.00    -0.270 OA
ATOM      9  N   UNL     1      11.013   4.369   0.443  0.00  0.00    -0.277 N 
ATOM     26  C   UNL     1      12.317   4.369  -0.033  0.00  0.00    +0.248 C 
ATOM     34  H   UNL     1      10.229   4.263  -0.190  0.00  0.00    +0.155 HD
BRANCH  26  27
ATOM     27  C   UNL     1      12.484   3.956  -1.451  0.00  0.00    +0.037 A 
ATOM     28  C   UNL     1      13.307   4.703  -2.269  0.00  0.00    +0.014 A 
ATOM     29  C   UNL     1      11.810   2.841  -1.904  0.00  0.00    +0.014 A 
ATOM     30  C   UNL     1      13.463   4.316  -3.600  0.00  0.00    +0.019 A 
ATOM     31  C   UNL     1      11.966   2.455  -3.236  0.00  0.00    +0.019 A 
ATOM     32  C   UNL     1      12.793   3.192  -4.083  0.00  0.00    +0.052 A 
BRANCH  32  33
ATOM     10  N   UNL     1      13.079   2.474  -6.556  0.00  0.00    -0.191 NA
ATOM     33  C   UNL     1      12.951   2.797  -5.448  0.00  0.00    +0.099 C 
ENDBRANCH  32  33
ENDBRANCH  26  27
ENDBRANCH  20   9
BRANCH   7   1
ATOM      1  S   UNL     1      12.684   8.561   6.085  0.00  0.00    +0.067 S 
ATOM      3  O   UNL     1      13.160   8.017   7.339  0.00  0.00    -0.152 OA
ATOM      4  O   UNL     1      12.570   9.991   5.889  0.00  0.00    -0.152 OA
BRANCH   1  22
ATOM      2  S   UNL     1      15.382   8.157   5.030  0.00  0.00    -0.077 S 
ATOM     22  C   UNL     1      13.705   7.917   4.796  0.00  0.00    +0.143 A 
ATOM     23  C   UNL     1      13.429   7.253   3.627  0.00  0.00    +0.036 A 
ATOM     24  C   UNL     1      14.615   6.934   2.905  0.00  0.00    +0.010 A 
ATOM     25  C   UNL     1      15.749   7.368   3.556  0.00  0.00    +0.047 A 
ENDBRANCH   1  22
ENDBRANCH   7   1
TORSDOF 5
ENDMDL
MODEL 10
REMARK VINA RESULT:      -6.2     17.218     20.741
REMARK  Name = 7673881
REMARK  5 active torsions:
REMARK  status: ('A' for Active; 'I' for Inactive)
REMARK    1  A    between atoms: S_1  and  N_7
REMARK    2  A    between atoms: S_1  and  C_22
REMARK    3  A    between atoms: N_9  and  C_20
REMARK    4  A    between atoms: C_26  and  C_27
REMARK    5  A    between atoms: C_32  and  C_33
REMARK                            x       y       z     vdW  Elec       q    Type
REMARK                         _______ _______ _______ _____ _____    ______ ____
ROOT
ATOM      5  O   UNL     1      10.179   4.918   3.293  0.00  0.00    -0.266 OA
ATOM      7  N   UNL     1      10.858   8.802   6.338  0.00  0.00    -0.175 NA
ATOM      8  N   UNL     1      11.552   6.200   4.682  0.00  0.00    -0.310 N 
ATOM     11  C   UNL     1      11.120   6.471   7.192  0.00  0.00    +0.025 C 
ATOM     12  C   UNL     1      13.033   7.610   6.154  0.00  0.00    +0.052 C 
ATOM     13  C   UNL     1      12.628   6.670   7.286  0.00  0.00    +0.017 C 
ATOM     14  C   UNL     1      10.387   7.814   7.349  0.00  0.00    +0.114 C 
ATOM     15  C   UNL     1      12.342   8.973   6.344  0.00  0.00    +0.119 C 
ATOM     16  C   UNL     1      10.791   5.776   5.865  0.00  0.00    +0.130 C 
ATOM     17  C   UNL     1      12.677   7.022   4.801  0.00  0.00    +0.026 A 
ATOM     18  C   UNL     1      13.425   7.304   3.721  0.00  0.00    +0.024 A 
ATOM     19  C   UNL     1      11.152   5.658   3.444  0.00  0.00    +0.273 A 
ATOM     20  C   UNL     1      11.998   6.015   2.262  0.00  0.00    +0.099 A 
ATOM     21  C   UNL     1      13.074   6.791   2.427  0.00  0.00    +0.030 A 
ENDROOT
BRANCH  20   9
ATOM      6  O   UNL     1      12.974   3.616   1.061  0.00  0.00    -0.270 OA
ATOM      9  N   UNL     1      11.637   5.520   1.043  0.00  0.00    -0.277 N 
ATOM     26  C   UNL     1      12.150   4.343   0.513  0.00  0.00    +0.248 C 
ATOM     34  H   UNL     1      11.075   6.143   0.475  0.00  0.00    +0.155 HD
BRANCH  26  27
ATOM     27  C   UNL     1      11.618   3.952  -0.819  0.00  0.00    +0.037 A 
ATOM     28  C   UNL     1      10.585   4.686  -1.365  0.00  0.00    +0.014 A 
ATOM     29  C   UNL     1      12.175   2.868  -1.464  0.00  0.00    +0.014 A 
ATOM     30  C   UNL     1      10.087   4.318  -2.615  0.00  0.00    +0.019 A 
ATOM     31  C   UNL     1      11.675   2.500  -2.715  0.00  0.00    +0.019 A 
ATOM     32  C   UNL     1      10.631   3.226  -3.289  0.00  0.00    +0.052 A 
BRANCH  32  33
ATOM     10  N   UNL     1       9.702   2.542  -5.609  0.00  0.00    -0.191 NA
ATOM     33  C   UNL     1      10.119   2.847  -4.569  0.00  0.00    +0.099 C 
ENDBRANCH  32  33
ENDBRANCH  26  27
ENDBRANCH  20   9
BRANCH   7   1
ATOM      1  S   UNL     1       9.948  10.248   6.237  0.00  0.00    +0.067 S 
ATOM      3  O   UNL     1      10.794  11.307   5.728  0.00  0.00    -0.152 OA
ATOM      4  O   UNL     1       9.197  10.419   7.464  0.00  0.00    -0.152 OA
BRANCH   1  22
ATOM      2  S   UNL     1       9.522   9.066   3.597  0.00  0.00    -0.077 S 
ATOM     22  C   UNL     1       8.809   9.809   4.962  0.00  0.00    +0.143 A 
ATOM     23  C   UNL     1       7.449   9.942   4.835  0.00  0.00    +0.036 A 
ATOM     24  C   UNL     1       6.978   9.426   3.594  0.00  0.00    +0.010 A 
ATOM     25  C   UNL     1       8.001   8.918   2.824  0.00  0.00    +0.047 A 
ENDBRANCH   1  22
ENDBRANCH   7   1
TORSDOF 5
ENDMDL
