MODEL 1
REMARK VINA RESULT:      -8.5      0.000      0.000
REMARK  Name = 40533398
REMARK  4 active torsions:
REMARK  status: ('A' for Active; 'I' for Inactive)
REMARK    1  A    between atoms: N_2  and  C_13
REMARK    2  A    between atoms: N_4  and  C_25
REMARK    3  A    between atoms: C_13  and  C_16
REMARK    4  A    between atoms: C_17  and  C_22
REMARK                            x       y       z     vdW  Elec       q    Type
REMARK                         _______ _______ _______ _____ _____    ______ ____
ROOT
ATOM      1  O   UNL     1      10.645   9.646  22.230  0.00  0.00    -0.267 OA
ATOM      2  N   UNL     1      14.188   7.770  19.214  0.00  0.00    -0.297 NA
ATOM      3  N   UNL     1      11.891   9.722  20.261  0.00  0.00    -0.311 N 
ATOM      6  C   UNL     1      11.791   7.874  18.487  0.00  0.00    +0.024 C 
ATOM      7  C   UNL     1      13.241   9.817  18.137  0.00  0.00    +0.050 C 
ATOM      8  C   UNL     1      12.115   8.998  17.511  0.00  0.00    +0.017 C 
ATOM      9  C   UNL     1      13.040   7.000  18.720  0.00  0.00    +0.090 C 
ATOM     10  C   UNL     1      14.482   8.917  18.342  0.00  0.00    +0.094 C 
ATOM     11  C   UNL     1      11.249   8.488  19.785  0.00  0.00    +0.130 C 
ATOM     12  C   UNL     1      12.799  10.418  19.458  0.00  0.00    +0.026 A 
ATOM     14  C   UNL     1      13.287  11.600  19.864  0.00  0.00    +0.022 A 
ATOM     15  C   UNL     1      11.469  10.215  21.511  0.00  0.00    +0.259 A 
ATOM     17  C   UNL     1      12.060  11.525  21.955  0.00  0.00    +0.048 A 
ATOM     18  C   UNL     1      12.914  12.155  21.135  0.00  0.00    +0.015 A 
ENDROOT
BRANCH  17  22
ATOM      5  N   UNL     1      12.221  12.321  25.621  0.00  0.00    -0.263 NA
ATOM     22  C   UNL     1      11.724  12.110  23.265  0.00  0.00    +0.005 A 
ATOM     26  C   UNL     1      10.644  12.975  23.408  0.00  0.00    +0.011 A 
ATOM     27  C   UNL     1      12.475  11.819  24.392  0.00  0.00    +0.119 A 
ATOM     30  C   UNL     1      10.351  13.512  24.656  0.00  0.00    +0.020 A 
ATOM     31  C   UNL     1      11.162  13.156  25.721  0.00  0.00    +0.111 A 
ENDBRANCH  17  22
BRANCH   2  13
ATOM     13  C   UNL     1      15.364   6.919  19.372  0.00  0.00    +0.121 C 
BRANCH  13  16
ATOM      4  N   UNL     1      17.534   9.089  21.402  0.00  0.00    -0.349 N 
ATOM     16  C   UNL     1      16.446   7.598  20.168  0.00  0.00    -0.008 A 
ATOM     19  C   UNL     1      17.753   7.096  20.424  0.00  0.00    +0.004 A 
ATOM     20  C   UNL     1      16.341   8.825  20.783  0.00  0.00    +0.091 A 
ATOM     21  C   UNL     1      18.415   8.050  21.198  0.00  0.00    +0.049 A 
ATOM     23  C   UNL     1      18.438   5.917  20.067  0.00  0.00    +0.010 A 
ATOM     24  C   UNL     1      19.733   7.884  21.637  0.00  0.00    +0.026 A 
ATOM     25  C   UNL     1      17.813  10.293  22.154  0.00  0.00    +0.149 C 
ATOM     28  C   UNL     1      19.757   5.737  20.500  0.00  0.00    +0.001 A 
ATOM     29  C   UNL     1      20.393   6.707  21.273  0.00  0.00    +0.002 A 
ENDBRANCH  13  16
ENDBRANCH   2  13
TORSDOF 3
ENDMDL
MODEL 2
REMARK VINA RESULT:      -8.3     27.308     29.669
REMARK  Name = 40533398
REMARK  4 active torsions:
REMARK  status: ('A' for Active; 'I' for Inactive)
REMARK    1  A    between atoms: N_2  and  C_13
REMARK    2  A    between atoms: N_4  and  C_25
REMARK    3  A    between atoms: C_13  and  C_16
REMARK    4  A    between atoms: C_17  and  C_22
REMARK                            x       y       z     vdW  Elec       q    Type
REMARK                         _______ _______ _______ _____ _____    ______ ____
ROOT
ATOM      1  O   UNL     1      -5.969 -11.790  10.565  0.00  0.00    -0.267 OA
ATOM      2  N   UNL     1      -3.269 -10.964  14.711  0.00  0.00    -0.297 NA
ATOM      3  N   UNL     1      -3.915 -11.559  11.643  0.00  0.00    -0.311 N 
ATOM      6  C   UNL     1      -3.136 -13.152  13.495  0.00  0.00    +0.024 C 
ATOM      7  C   UNL     1      -1.693 -11.299  12.800  0.00  0.00    +0.050 C 
ATOM      8  C   UNL     1      -1.738 -12.812  12.995  0.00  0.00    +0.017 C 
ATOM      9  C   UNL     1      -3.415 -12.420  14.823  0.00  0.00    +0.090 C 
ATOM     10  C   UNL     1      -1.959 -10.597  14.152  0.00  0.00    +0.094 C 
ATOM     11  C   UNL     1      -4.152 -12.797  12.401  0.00  0.00    +0.130 C 
ATOM     12  C   UNL     1      -2.712 -10.859  11.765  0.00  0.00    +0.026 A 
ATOM     14  C   UNL     1      -2.470  -9.796  10.982  0.00  0.00    +0.022 A 
ATOM     15  C   UNL     1      -4.911 -11.178  10.723  0.00  0.00    +0.259 A 
ATOM     17  C   UNL     1      -4.626  -9.961   9.885  0.00  0.00    +0.048 A 
ATOM     18  C   UNL     1      -3.447  -9.340  10.035  0.00  0.00    +0.015 A 
ENDROOT
BRANCH  17  22
ATOM      5  N   UNL     1      -7.470  -7.965   8.460  0.00  0.00    -0.263 NA
ATOM     22  C   UNL     1      -5.617  -9.448   8.923  0.00  0.00    +0.005 A 
ATOM     26  C   UNL     1      -5.657  -9.918   7.615  0.00  0.00    +0.011 A 
ATOM     27  C   UNL     1      -6.536  -8.479   9.292  0.00  0.00    +0.119 A 
ATOM     30  C   UNL     1      -6.603  -9.414   6.729  0.00  0.00    +0.020 A 
ATOM     31  C   UNL     1      -7.478  -8.448   7.197  0.00  0.00    +0.111 A 
ENDBRANCH  17  22
BRANCH   2  13
ATOM     13  C   UNL     1      -3.488 -10.312  15.999  0.00  0.00    +0.121 C 
BRANCH  13  16
ATOM      4  N   UNL     1      -7.137  -9.879  16.195  0.00  0.00    -0.349 N 
ATOM     16  C   UNL     1      -4.951 -10.234  16.347  0.00  0.00    -0.008 A 
ATOM     19  C   UNL     1      -5.548 -10.595  17.587  0.00  0.00    +0.004 A 
ATOM     20  C   UNL     1      -5.953  -9.798  15.511  0.00  0.00    +0.091 A 
ATOM     21  C   UNL     1      -6.919 -10.362  17.466  0.00  0.00    +0.049 A 
ATOM     23  C   UNL     1      -5.051 -11.099  18.806  0.00  0.00    +0.010 A 
ATOM     24  C   UNL     1      -7.822 -10.609  18.505  0.00  0.00    +0.026 A 
ATOM     25  C   UNL     1      -8.422  -9.503  15.647  0.00  0.00    +0.149 C 
ATOM     28  C   UNL     1      -5.943 -11.352  19.854  0.00  0.00    +0.001 A 
ATOM     29  C   UNL     1      -7.307 -11.110  19.705  0.00  0.00    +0.002 A 
ENDBRANCH  13  16
ENDBRANCH   2  13
TORSDOF 3
ENDMDL
MODEL 3
REMARK VINA RESULT:      -7.8     23.782     25.586
REMARK  Name = 40533398
REMARK  4 active torsions:
REMARK  status: ('A' for Active; 'I' for Inactive)
REMARK    1  A    between atoms: N_2  and  C_13
REMARK    2  A    between atoms: N_4  and  C_25
REMARK    3  A    between atoms: C_13  and  C_16
REMARK    4  A    between atoms: C_17  and  C_22
REMARK                            x       y       z     vdW  Elec       q    Type
REMARK                         _______ _______ _______ _____ _____    ______ ____
ROOT
ATOM      1  O   UNL     1       9.074 -12.023  31.799  0.00  0.00    -0.267 OA
ATOM      2  N   UNL     1       7.243  -8.657  35.037  0.00  0.00    -0.297 NA
ATOM      3  N   UNL     1       8.506  -9.830  32.351  0.00  0.00    -0.311 N 
ATOM      6  C   UNL     1       9.627  -8.551  34.269  0.00  0.00    +0.024 C 
ATOM      7  C   UNL     1       7.884  -7.461  32.938  0.00  0.00    +0.050 C 
ATOM      8  C   UNL     1       9.322  -7.318  33.428  0.00  0.00    +0.017 C 
ATOM      9  C   UNL     1       8.648  -8.634  35.459  0.00  0.00    +0.090 C 
ATOM     10  C   UNL     1       6.929  -7.525  34.152  0.00  0.00    +0.094 C 
ATOM     11  C   UNL     1       9.568  -9.791  33.368  0.00  0.00    +0.130 C 
ATOM     12  C   UNL     1       7.730  -8.701  32.077  0.00  0.00    +0.026 A 
ATOM     14  C   UNL     1       6.843  -8.723  31.069  0.00  0.00    +0.022 A 
ATOM     15  C   UNL     1       8.383 -11.020  31.608  0.00  0.00    +0.259 A 
ATOM     17  C   UNL     1       7.357 -11.026  30.508  0.00  0.00    +0.048 A 
ATOM     18  C   UNL     1       6.653  -9.907  30.280  0.00  0.00    +0.015 A 
ENDROOT
BRANCH  17  22
ATOM      5  N   UNL     1       7.776 -13.646  27.851  0.00  0.00    -0.263 NA
ATOM     22  C   UNL     1       7.114 -12.231  29.696  0.00  0.00    +0.005 A 
ATOM     26  C   UNL     1       6.047 -13.079  29.972  0.00  0.00    +0.011 A 
ATOM     27  C   UNL     1       7.943 -12.557  28.634  0.00  0.00    +0.119 A 
ATOM     30  C   UNL     1       5.843 -14.209  29.189  0.00  0.00    +0.020 A 
ATOM     31  C   UNL     1       6.728 -14.446  28.150  0.00  0.00    +0.111 A 
ENDBRANCH  17  22
BRANCH   2  13
ATOM     13  C   UNL     1       6.348  -8.682  36.191  0.00  0.00    +0.121 C 
BRANCH  13  16
ATOM      4  N   UNL     1       2.996 -10.182  35.957  0.00  0.00    -0.349 N 
ATOM     16  C   UNL     1       5.102  -9.483  35.917  0.00  0.00    -0.008 A 
ATOM     19  C   UNL     1       4.995 -10.622  35.071  0.00  0.00    +0.004 A 
ATOM     20  C   UNL     1       3.856  -9.237  36.447  0.00  0.00    +0.091 A 
ATOM     21  C   UNL     1       3.664 -11.041  35.114  0.00  0.00    +0.049 A 
ATOM     23  C   UNL     1       5.907 -11.339  34.270  0.00  0.00    +0.010 A 
ATOM     24  C   UNL     1       3.197 -12.146  34.393  0.00  0.00    +0.026 A 
ATOM     25  C   UNL     1       1.590 -10.255  36.289  0.00  0.00    +0.149 C 
ATOM     28  C   UNL     1       5.454 -12.445  33.543  0.00  0.00    +0.001 A 
ATOM     29  C   UNL     1       4.119 -12.841  33.605  0.00  0.00    +0.002 A 
ENDBRANCH  13  16
ENDBRANCH   2  13
TORSDOF 3
ENDMDL
MODEL 4
REMARK VINA RESULT:      -7.7     27.392     29.945
REMARK  Name = 40533398
REMARK  4 active torsions:
REMARK  status: ('A' for Active; 'I' for Inactive)
REMARK    1  A    between atoms: N_2  and  C_13
REMARK    2  A    between atoms: N_4  and  C_25
REMARK    3  A    between atoms: C_13  and  C_16
REMARK    4  A    between atoms: C_17  and  C_22
REMARK                            x       y       z     vdW  Elec       q    Type
REMARK                         _______ _______ _______ _____ _____    ______ ____
ROOT
ATOM      1  O   UNL     1      -5.640 -12.191  10.448  0.00  0.00    -0.267 OA
ATOM      2  N   UNL     1      -3.445 -11.089  14.822  0.00  0.00    -0.297 NA
ATOM      3  N   UNL     1      -3.731 -11.762  11.716  0.00  0.00    -0.311 N 
ATOM      6  C   UNL     1      -2.994 -13.263  13.659  0.00  0.00    +0.024 C 
ATOM      7  C   UNL     1      -1.667 -11.289  13.078  0.00  0.00    +0.050 C 
ATOM      8  C   UNL     1      -1.591 -12.798  13.292  0.00  0.00    +0.017 C 
ATOM      9  C   UNL     1      -3.467 -12.551  14.943  0.00  0.00    +0.090 C 
ATOM     10  C   UNL     1      -2.127 -10.605  14.387  0.00  0.00    +0.094 C 
ATOM     11  C   UNL     1      -3.926 -13.012  12.467  0.00  0.00    +0.130 C 
ATOM     12  C   UNL     1      -2.616 -10.953  11.943  0.00  0.00    +0.026 A 
ATOM     14  C   UNL     1      -2.397  -9.877  11.170  0.00  0.00    +0.022 A 
ATOM     15  C   UNL     1      -4.664 -11.482  10.699  0.00  0.00    +0.259 A 
ATOM     17  C   UNL     1      -4.411 -10.250   9.872  0.00  0.00    +0.048 A 
ATOM     18  C   UNL     1      -3.314  -9.520  10.126  0.00  0.00    +0.015 A 
ENDROOT
BRANCH  17  22
ATOM      5  N   UNL     1      -5.995  -9.921   6.483  0.00  0.00    -0.263 NA
ATOM     22  C   UNL     1      -5.346  -9.837   8.811  0.00  0.00    +0.005 A 
ATOM     26  C   UNL     1      -6.428  -9.010   9.090  0.00  0.00    +0.011 A 
ATOM     27  C   UNL     1      -5.175 -10.262   7.503  0.00  0.00    +0.119 A 
ATOM     30  C   UNL     1      -7.294  -8.637   8.067  0.00  0.00    +0.020 A 
ATOM     31  C   UNL     1      -7.035  -9.116   6.793  0.00  0.00    +0.111 A 
ENDBRANCH  17  22
BRANCH   2  13
ATOM     13  C   UNL     1      -3.849 -10.452  16.073  0.00  0.00    +0.121 C 
BRANCH  13  16
ATOM      4  N   UNL     1      -7.402 -10.144  16.979  0.00  0.00    -0.349 N 
ATOM     16  C   UNL     1      -5.342 -10.286  16.162  0.00  0.00    -0.008 A 
ATOM     19  C   UNL     1      -6.235 -10.044  15.081  0.00  0.00    +0.004 A 
ATOM     20  C   UNL     1      -6.090 -10.342  17.317  0.00  0.00    +0.091 A 
ATOM     21  C   UNL     1      -7.520  -9.960  15.620  0.00  0.00    +0.049 A 
ATOM     23  C   UNL     1      -6.071  -9.890  13.689  0.00  0.00    +0.010 A 
ATOM     24  C   UNL     1      -8.654  -9.727  14.835  0.00  0.00    +0.026 A 
ATOM     25  C   UNL     1      -8.495 -10.135  17.927  0.00  0.00    +0.149 C 
ATOM     28  C   UNL     1      -7.197  -9.655  12.892  0.00  0.00    +0.001 A 
ATOM     29  C   UNL     1      -8.468  -9.576  13.458  0.00  0.00    +0.002 A 
ENDBRANCH  13  16
ENDBRANCH   2  13
TORSDOF 3
ENDMDL
MODEL 5
REMARK VINA RESULT:      -7.5     18.418     22.035
REMARK  Name = 40533398
REMARK  4 active torsions:
REMARK  status: ('A' for Active; 'I' for Inactive)
REMARK    1  A    between atoms: N_2  and  C_13
REMARK    2  A    between atoms: N_4  and  C_25
REMARK    3  A    between atoms: C_13  and  C_16
REMARK    4  A    between atoms: C_17  and  C_22
REMARK                            x       y       z     vdW  Elec       q    Type
REMARK                         _______ _______ _______ _____ _____    ______ ____
ROOT
ATOM      1  O   UNL     1      12.149   7.790   2.494  0.00  0.00    -0.267 OA
ATOM      2  N   UNL     1      13.718   4.393  -0.847  0.00  0.00    -0.297 NA
ATOM      3  N   UNL     1      12.693   5.595   1.925  0.00  0.00    -0.311 N 
ATOM      6  C   UNL     1      15.054   4.894   1.214  0.00  0.00    +0.024 C 
ATOM      7  C   UNL     1      13.268   3.221   1.314  0.00  0.00    +0.050 C 
ATOM      8  C   UNL     1      14.674   3.546   1.812  0.00  0.00    +0.017 C 
ATOM      9  C   UNL     1      15.023   4.816  -0.326  0.00  0.00    +0.090 C 
ATOM     10  C   UNL     1      13.276   3.134  -0.230  0.00  0.00    +0.094 C 
ATOM     11  C   UNL     1      14.108   5.966   1.770  0.00  0.00    +0.130 C 
ATOM     12  C   UNL     1      12.276   4.270   1.781  0.00  0.00    +0.026 A 
ATOM     14  C   UNL     1      11.002   3.934   2.037  0.00  0.00    +0.022 A 
ATOM     15  C   UNL     1      11.810   6.617   2.324  0.00  0.00    +0.259 A 
ATOM     17  C   UNL     1      10.380   6.217   2.569  0.00  0.00    +0.048 A 
ATOM     18  C   UNL     1      10.042   4.926   2.430  0.00  0.00    +0.015 A 
ENDROOT
BRANCH  17  22
ATOM      5  N   UNL     1       7.942   8.169   4.654  0.00  0.00    -0.263 NA
ATOM     22  C   UNL     1       9.362   7.212   2.946  0.00  0.00    +0.005 A 
ATOM     26  C   UNL     1       8.860   8.114   2.014  0.00  0.00    +0.011 A 
ATOM     27  C   UNL     1       8.875   7.281   4.242  0.00  0.00    +0.119 A 
ATOM     30  C   UNL     1       7.900   9.042   2.400  0.00  0.00    +0.020 A 
ATOM     31  C   UNL     1       7.478   9.028   3.719  0.00  0.00    +0.111 A 
ENDBRANCH  17  22
BRANCH   2  13
ATOM     13  C   UNL     1      13.745   4.280  -2.303  0.00  0.00    +0.121 C 
BRANCH  13  16
ATOM      4  N   UNL     1      10.643   3.609  -4.165  0.00  0.00    -0.349 N 
ATOM     16  C   UNL     1      12.359   4.196  -2.884  0.00  0.00    -0.008 A 
ATOM     19  C   UNL     1      11.210   4.913  -2.447  0.00  0.00    +0.004 A 
ATOM     20  C   UNL     1      11.978   3.401  -3.942  0.00  0.00    +0.091 A 
ATOM     21  C   UNL     1      10.148   4.527  -3.267  0.00  0.00    +0.049 A 
ATOM     23  C   UNL     1      10.972   5.858  -1.429  0.00  0.00    +0.010 A 
ATOM     24  C   UNL     1       8.855   5.040  -3.119  0.00  0.00    +0.026 A 
ATOM     25  C   UNL     1       9.878   2.951  -5.203  0.00  0.00    +0.149 C 
ATOM     28  C   UNL     1       9.683   6.379  -1.268  0.00  0.00    +0.001 A 
ATOM     29  C   UNL     1       8.642   5.975  -2.102  0.00  0.00    +0.002 A 
ENDBRANCH  13  16
ENDBRANCH   2  13
TORSDOF 3
ENDMDL
MODEL 6
REMARK VINA RESULT:      -7.4     15.288     19.789
REMARK  Name = 40533398
REMARK  4 active torsions:
REMARK  status: ('A' for Active; 'I' for Inactive)
REMARK    1  A    between atoms: N_2  and  C_13
REMARK    2  A    between atoms: N_4  and  C_25
REMARK    3  A    between atoms: C_13  and  C_16
REMARK    4  A    between atoms: C_17  and  C_22
REMARK                            x       y       z     vdW  Elec       q    Type
REMARK                         _______ _______ _______ _____ _____    ______ ____
ROOT
ATOM      1  O   UNL     1      10.170   4.142   3.307  0.00  0.00    -0.267 OA
ATOM      2  N   UNL     1       9.213   8.244   6.031  0.00  0.00    -0.297 NA
ATOM      3  N   UNL     1      10.808   5.724   4.896  0.00  0.00    -0.311 N 
ATOM      6  C   UNL     1       9.578   6.019   7.127  0.00  0.00    +0.024 C 
ATOM      7  C   UNL     1      11.507   7.436   6.606  0.00  0.00    +0.050 C 
ATOM      8  C   UNL     1      10.936   6.475   7.645  0.00  0.00    +0.017 C 
ATOM      9  C   UNL     1       8.650   7.236   6.937  0.00  0.00    +0.090 C 
ATOM     10  C   UNL     1      10.562   8.650   6.452  0.00  0.00    +0.094 C 
ATOM     11  C   UNL     1       9.786   5.226   5.829  0.00  0.00    +0.130 C 
ATOM     12  C   UNL     1      11.693   6.737   5.271  0.00  0.00    +0.026 A 
ATOM     14  C   UNL     1      12.689   7.099   4.448  0.00  0.00    +0.022 A 
ATOM     15  C   UNL     1      10.912   5.062   3.657  0.00  0.00    +0.259 A 
ATOM     17  C   UNL     1      12.016   5.514   2.741  0.00  0.00    +0.048 A 
ATOM     18  C   UNL     1      12.845   6.480   3.163  0.00  0.00    +0.015 A 
ENDROOT
BRANCH  17  22
ATOM      5  N   UNL     1      13.166   3.197   0.019  0.00  0.00    -0.263 NA
ATOM     22  C   UNL     1      12.189   4.922   1.403  0.00  0.00    +0.005 A 
ATOM     26  C   UNL     1      11.576   5.480   0.287  0.00  0.00    +0.011 A 
ATOM     27  C   UNL     1      12.967   3.790   1.217  0.00  0.00    +0.119 A 
ATOM     30  C   UNL     1      11.757   4.898  -0.963  0.00  0.00    +0.020 A 
ATOM     31  C   UNL     1      12.555   3.769  -1.042  0.00  0.00    +0.111 A 
ENDBRANCH  17  22
BRANCH   2  13
ATOM     13  C   UNL     1       8.329   9.402   5.919  0.00  0.00    +0.121 C 
BRANCH  13  16
ATOM      4  N   UNL     1       6.220   9.873   2.940  0.00  0.00    -0.349 N 
ATOM     16  C   UNL     1       7.693   9.492   4.557  0.00  0.00    -0.008 A 
ATOM     19  C   UNL     1       8.289   9.130   3.317  0.00  0.00    +0.004 A 
ATOM     20  C   UNL     1       6.421   9.946   4.293  0.00  0.00    +0.091 A 
ATOM     21  C   UNL     1       7.345   9.378   2.319  0.00  0.00    +0.049 A 
ATOM     23  C   UNL     1       9.547   8.612   2.947  0.00  0.00    +0.010 A 
ATOM     24  C   UNL     1       7.596   9.133   0.965  0.00  0.00    +0.026 A 
ATOM     25  C   UNL     1       4.995  10.261   2.276  0.00  0.00    +0.149 C 
ATOM     28  C   UNL     1       9.812   8.363   1.596  0.00  0.00    +0.001 A 
ATOM     29  C   UNL     1       8.849   8.621   0.621  0.00  0.00    +0.002 A 
ENDBRANCH  13  16
ENDBRANCH   2  13
TORSDOF 3
ENDMDL
MODEL 7
REMARK VINA RESULT:      -7.2     22.406     26.315
REMARK  Name = 40533398
REMARK  4 active torsions:
REMARK  status: ('A' for Active; 'I' for Inactive)
REMARK    1  A    between atoms: N_2  and  C_13
REMARK    2  A    between atoms: N_4  and  C_25
REMARK    3  A    between atoms: C_13  and  C_16
REMARK    4  A    between atoms: C_17  and  C_22
REMARK                            x       y       z     vdW  Elec       q    Type
REMARK                         _______ _______ _______ _____ _____    ______ ____
ROOT
ATOM      1  O   UNL     1      -6.615   9.620   5.332  0.00  0.00    -0.267 OA
ATOM      2  N   UNL     1      -1.911  10.449   3.799  0.00  0.00    -0.297 NA
ATOM      3  N   UNL     1      -4.319   9.263   5.525  0.00  0.00    -0.311 N 
ATOM      6  C   UNL     1      -2.668  11.142   6.086  0.00  0.00    +0.024 C 
ATOM      7  C   UNL     1      -1.841   8.865   5.731  0.00  0.00    +0.050 C 
ATOM      8  C   UNL     1      -1.844  10.028   6.718  0.00  0.00    +0.017 C 
ATOM      9  C   UNL     1      -2.041  11.566   4.742  0.00  0.00    +0.090 C 
ATOM     10  C   UNL     1      -1.192   9.317   4.402  0.00  0.00    +0.094 C 
ATOM     11  C   UNL     1      -4.117  10.661   5.935  0.00  0.00    +0.130 C 
ATOM     12  C   UNL     1      -3.252   8.362   5.486  0.00  0.00    +0.026 A 
ATOM     14  C   UNL     1      -3.475   7.066   5.218  0.00  0.00    +0.022 A 
ATOM     15  C   UNL     1      -5.646   8.861   5.274  0.00  0.00    +0.259 A 
ATOM     17  C   UNL     1      -5.860   7.409   4.942  0.00  0.00    +0.048 A 
ATOM     18  C   UNL     1      -4.799   6.589   4.937  0.00  0.00    +0.015 A 
ENDROOT
BRANCH  17  22
ATOM      5  N   UNL     1      -9.125   6.909   3.157  0.00  0.00    -0.263 NA
ATOM     22  C   UNL     1      -7.200   6.889   4.619  0.00  0.00    +0.005 A 
ATOM     26  C   UNL     1      -7.807   5.926   5.417  0.00  0.00    +0.011 A 
ATOM     27  C   UNL     1      -7.895   7.344   3.509  0.00  0.00    +0.119 A 
ATOM     30  C   UNL     1      -9.073   5.454   5.087  0.00  0.00    +0.020 A 
ATOM     31  C   UNL     1      -9.683   5.973   3.957  0.00  0.00    +0.111 A 
ENDBRANCH  17  22
BRANCH   2  13
ATOM     13  C   UNL     1      -1.266  10.878   2.561  0.00  0.00    +0.121 C 
BRANCH  13  16
ATOM      4  N   UNL     1      -3.947  10.354   0.095  0.00  0.00    -0.349 N 
ATOM     16  C   UNL     1      -2.148  10.654   1.362  0.00  0.00    -0.008 A 
ATOM     19  C   UNL     1      -1.723  10.509   0.011  0.00  0.00    +0.004 A 
ATOM     20  C   UNL     1      -3.521  10.555   1.381  0.00  0.00    +0.091 A 
ATOM     21  C   UNL     1      -2.870  10.321  -0.762  0.00  0.00    +0.049 A 
ATOM     23  C   UNL     1      -0.467  10.519  -0.628  0.00  0.00    +0.010 A 
ATOM     24  C   UNL     1      -2.824  10.143  -2.149  0.00  0.00    +0.026 A 
ATOM     25  C   UNL     1      -5.333  10.198  -0.290  0.00  0.00    +0.149 C 
ATOM     28  C   UNL     1      -0.406  10.342  -2.015  0.00  0.00    +0.001 A 
ATOM     29  C   UNL     1      -1.568  10.157  -2.762  0.00  0.00    +0.002 A 
ENDBRANCH  13  16
ENDBRANCH   2  13
TORSDOF 3
ENDMDL
MODEL 8
REMARK VINA RESULT:      -7.2     22.742     24.409
REMARK  Name = 40533398
REMARK  4 active torsions:
REMARK  status: ('A' for Active; 'I' for Inactive)
REMARK    1  A    between atoms: N_2  and  C_13
REMARK    2  A    between atoms: N_4  and  C_25
REMARK    3  A    between atoms: C_13  and  C_16
REMARK    4  A    between atoms: C_17  and  C_22
REMARK                            x       y       z     vdW  Elec       q    Type
REMARK                         _______ _______ _______ _____ _____    ______ ____
ROOT
ATOM      1  O   UNL     1       9.381  -9.519  32.887  0.00  0.00    -0.267 OA
ATOM      2  N   UNL     1       8.352  -5.984  36.293  0.00  0.00    -0.297 NA
ATOM      3  N   UNL     1       8.684  -7.363  33.435  0.00  0.00    -0.311 N 
ATOM      6  C   UNL     1      10.204  -5.680  34.631  0.00  0.00    +0.024 C 
ATOM      7  C   UNL     1       7.922  -5.036  34.021  0.00  0.00    +0.050 C 
ATOM      8  C   UNL     1       9.388  -4.635  33.882  0.00  0.00    +0.017 C 
ATOM      9  C   UNL     1       9.784  -5.715  36.115  0.00  0.00    +0.090 C 
ATOM     10  C   UNL     1       7.529  -5.045  35.517  0.00  0.00    +0.094 C 
ATOM     11  C   UNL     1      10.028  -7.036  33.936  0.00  0.00    +0.130 C 
ATOM     12  C   UNL     1       7.675  -6.398  33.401  0.00  0.00    +0.026 A 
ATOM     14  C   UNL     1       6.491  -6.684  32.837  0.00  0.00    +0.022 A 
ATOM     15  C   UNL     1       8.502  -8.654  32.904  0.00  0.00    +0.259 A 
ATOM     17  C   UNL     1       7.153  -8.957  32.311  0.00  0.00    +0.048 A 
ATOM     18  C   UNL     1       6.228  -7.985  32.291  0.00  0.00    +0.015 A 
ENDROOT
BRANCH  17  22
ATOM      5  N   UNL     1       6.103 -12.559  32.162  0.00  0.00    -0.263 NA
ATOM     22  C   UNL     1       6.838 -10.289  31.768  0.00  0.00    +0.005 A 
ATOM     26  C   UNL     1       6.962 -10.558  30.409  0.00  0.00    +0.011 A 
ATOM     27  C   UNL     1       6.408 -11.315  32.595  0.00  0.00    +0.119 A 
ATOM     30  C   UNL     1       6.657 -11.826  29.926  0.00  0.00    +0.020 A 
ATOM     31  C   UNL     1       6.236 -12.782  30.835  0.00  0.00    +0.111 A 
ENDBRANCH  17  22
BRANCH   2  13
ATOM     13  C   UNL     1       7.985  -5.956  37.707  0.00  0.00    +0.121 C 
BRANCH  13  16
ATOM      4  N   UNL     1       4.563  -6.802  38.765  0.00  0.00    -0.349 N 
ATOM     16  C   UNL     1       6.602  -6.505  37.937  0.00  0.00    -0.008 A 
ATOM     19  C   UNL     1       5.990  -7.584  37.239  0.00  0.00    +0.004 A 
ATOM     20  C   UNL     1       5.700  -6.045  38.869  0.00  0.00    +0.091 A 
ATOM     21  C   UNL     1       4.713  -7.750  37.778  0.00  0.00    +0.049 A 
ATOM     23  C   UNL     1       6.403  -8.438  36.197  0.00  0.00    +0.010 A 
ATOM     24  C   UNL     1       3.825  -8.731  37.325  0.00  0.00    +0.026 A 
ATOM     25  C   UNL     1       3.385  -6.621  39.585  0.00  0.00    +0.149 C 
ATOM     28  C   UNL     1       5.525  -9.423  35.733  0.00  0.00    +0.001 A 
ATOM     29  C   UNL     1       4.255  -9.566  36.290  0.00  0.00    +0.002 A 
ENDBRANCH  13  16
ENDBRANCH   2  13
TORSDOF 3
ENDMDL
MODEL 9
REMARK VINA RESULT:      -7.2     22.166     26.178
REMARK  Name = 40533398
REMARK  4 active torsions:
REMARK  status: ('A' for Active; 'I' for Inactive)
REMARK    1  A    between atoms: N_2  and  C_13
REMARK    2  A    between atoms: N_4  and  C_25
REMARK    3  A    between atoms: C_13  and  C_16
REMARK    4  A    between atoms: C_17  and  C_22
REMARK                            x       y       z     vdW  Elec       q    Type
REMARK                         _______ _______ _______ _____ _____    ______ ____
ROOT
ATOM      1  O   UNL     1      -6.467  10.004   5.404  0.00  0.00    -0.267 OA
ATOM      2  N   UNL     1      -1.653  10.584   4.118  0.00  0.00    -0.297 NA
ATOM      3  N   UNL     1      -4.214   9.460   5.655  0.00  0.00    -0.311 N 
ATOM      6  C   UNL     1      -2.456  11.162   6.421  0.00  0.00    +0.024 C 
ATOM      7  C   UNL     1      -1.783   8.861   5.923  0.00  0.00    +0.050 C 
ATOM      8  C   UNL     1      -1.744   9.945   6.996  0.00  0.00    +0.017 C 
ATOM      9  C   UNL     1      -1.742  11.635   5.138  0.00  0.00    +0.090 C 
ATOM     10  C   UNL     1      -1.045   9.359   4.659  0.00  0.00    +0.094 C 
ATOM     11  C   UNL     1      -3.928  10.804   6.179  0.00  0.00    +0.130 C 
ATOM     12  C   UNL     1      -3.215   8.486   5.588  0.00  0.00    +0.026 A 
ATOM     14  C   UNL     1      -3.520   7.234   5.213  0.00  0.00    +0.022 A 
ATOM     15  C   UNL     1      -5.554   9.180   5.324  0.00  0.00    +0.259 A 
ATOM     17  C   UNL     1      -5.859   7.777   4.874  0.00  0.00    +0.048 A 
ATOM     18  C   UNL     1      -4.861   6.881   4.845  0.00  0.00    +0.015 A 
ENDROOT
BRANCH  17  22
ATOM      5  N   UNL     1      -9.027   7.573   2.867  0.00  0.00    -0.263 NA
ATOM     22  C   UNL     1      -7.218   7.386   4.461  0.00  0.00    +0.005 A 
ATOM     26  C   UNL     1      -7.970   6.497   5.221  0.00  0.00    +0.011 A 
ATOM     27  C   UNL     1      -7.787   7.890   3.302  0.00  0.00    +0.119 A 
ATOM     30  C   UNL     1      -9.250   6.146   4.806  0.00  0.00    +0.020 A 
ATOM     31  C   UNL     1      -9.727   6.707   3.633  0.00  0.00    +0.111 A 
ENDBRANCH  17  22
BRANCH   2  13
ATOM     13  C   UNL     1      -0.925  11.053   2.942  0.00  0.00    +0.121 C 
BRANCH  13  16
ATOM      4  N   UNL     1      -1.902   9.954  -0.432  0.00  0.00    -0.349 N 
ATOM     16  C   UNL     1      -1.593  10.627   1.661  0.00  0.00    -0.008 A 
ATOM     19  C   UNL     1      -2.993  10.509   1.433  0.00  0.00    +0.004 A 
ATOM     20  C   UNL     1      -0.948  10.278   0.496  0.00  0.00    +0.091 A 
ATOM     21  C   UNL     1      -3.159  10.087   0.113  0.00  0.00    +0.049 A 
ATOM     23  C   UNL     1      -4.137  10.724   2.227  0.00  0.00    +0.010 A 
ATOM     24  C   UNL     1      -4.418   9.866  -0.455  0.00  0.00    +0.026 A 
ATOM     25  C   UNL     1      -1.612   9.538  -1.787  0.00  0.00    +0.149 C 
ATOM     28  C   UNL     1      -5.403  10.507   1.671  0.00  0.00    +0.001 A 
ATOM     29  C   UNL     1      -5.540  10.085   0.350  0.00  0.00    +0.002 A 
ENDBRANCH  13  16
ENDBRANCH   2  13
TORSDOF 3
ENDMDL
MODEL 10
REMARK VINA RESULT:      -7.2     26.946     30.443
REMARK  Name = 40533398
REMARK  4 active torsions:
REMARK  status: ('A' for Active; 'I' for Inactive)
REMARK    1  A    between atoms: N_2  and  C_13
REMARK    2  A    between atoms: N_4  and  C_25
REMARK    3  A    between atoms: C_13  and  C_16
REMARK    4  A    between atoms: C_17  and  C_22
REMARK                            x       y       z     vdW  Elec       q    Type
REMARK                         _______ _______ _______ _____ _____    ______ ____
ROOT
ATOM      1  O   UNL     1     -15.540   4.633  30.285  0.00  0.00    -0.267 OA
ATOM      2  N   UNL     1     -12.928   8.596  31.911  0.00  0.00    -0.297 NA
ATOM      3  N   UNL     1     -14.945   6.124  31.977  0.00  0.00    -0.311 N 
ATOM      6  C   UNL     1     -15.434   8.637  31.842  0.00  0.00    +0.024 C 
ATOM      7  C   UNL     1     -14.298   7.724  33.810  0.00  0.00    +0.050 C 
ATOM      8  C   UNL     1     -15.496   8.555  33.362  0.00  0.00    +0.017 C 
ATOM      9  C   UNL     1     -14.112   9.299  31.403  0.00  0.00    +0.090 C 
ATOM     10  C   UNL     1     -12.991   8.423  33.369  0.00  0.00    +0.094 C 
ATOM     11  C   UNL     1     -15.608   7.226  31.264  0.00  0.00    +0.130 C 
ATOM     12  C   UNL     1     -14.369   6.322  33.234  0.00  0.00    +0.026 A 
ATOM     14  C   UNL     1     -13.869   5.280  33.917  0.00  0.00    +0.022 A 
ATOM     15  C   UNL     1     -15.010   4.851  31.377  0.00  0.00    +0.259 A 
ATOM     17  C   UNL     1     -14.410   3.709  32.150  0.00  0.00    +0.048 A 
ATOM     18  C   UNL     1     -13.886   3.957  33.360  0.00  0.00    +0.015 A 
ENDROOT
BRANCH  17  22
ATOM      5  N   UNL     1     -13.710   0.846  29.823  0.00  0.00    -0.263 NA
ATOM     22  C   UNL     1     -14.383   2.343  31.598  0.00  0.00    +0.005 A 
ATOM     26  C   UNL     1     -14.971   1.282  32.279  0.00  0.00    +0.011 A 
ATOM     27  C   UNL     1     -13.770   2.074  30.385  0.00  0.00    +0.119 A 
ATOM     30  C   UNL     1     -14.930   0.004  31.733  0.00  0.00    +0.020 A 
ATOM     31  C   UNL     1     -14.293  -0.159  30.514  0.00  0.00    +0.111 A 
ENDBRANCH  17  22
BRANCH   2  13
ATOM     13  C   UNL     1     -11.700   9.282  31.518  0.00  0.00    +0.121 C 
BRANCH  13  16
ATOM      4  N   UNL     1     -12.597  12.520  30.017  0.00  0.00    -0.349 N 
ATOM     16  C   UNL     1     -11.980  10.486  30.659  0.00  0.00    -0.008 A 
ATOM     19  C   UNL     1     -11.770  10.594  29.255  0.00  0.00    +0.004 A 
ATOM     20  C   UNL     1     -12.489  11.687  31.099  0.00  0.00    +0.091 A 
ATOM     21  C   UNL     1     -12.165  11.878  28.878  0.00  0.00    +0.049 A 
ATOM     23  C   UNL     1     -11.280   9.717  28.266  0.00  0.00    +0.010 A 
ATOM     24  C   UNL     1     -12.094  12.333  27.557  0.00  0.00    +0.026 A 
ATOM     25  C   UNL     1     -13.098  13.876  30.080  0.00  0.00    +0.149 C 
ATOM     28  C   UNL     1     -11.202  10.158  26.941  0.00  0.00    +0.001 A 
ATOM     29  C   UNL     1     -11.604  11.447  26.593  0.00  0.00    +0.002 A 
ENDBRANCH  13  16
ENDBRANCH   2  13
TORSDOF 3
ENDMDL
