MODEL 1
REMARK VINA RESULT:      -8.0      0.000      0.000
REMARK  Name = 45783965
REMARK  11 active torsions:
REMARK  status: ('A' for Active; 'I' for Inactive)
REMARK    1  A    between atoms: O_2  and  C_36
REMARK    2  A    between atoms: O_2  and  C_37
REMARK    3  A    between atoms: N_3  and  C_14
REMARK    4  A    between atoms: C_9  and  C_13
REMARK    5  A    between atoms: C_10  and  C_14
REMARK    6  A    between atoms: C_12  and  C_17
REMARK    7  A    between atoms: C_13  and  C_18
REMARK    8  A    between atoms: C_13  and  C_19
REMARK    9  A    between atoms: C_16  and  C_22
REMARK   10  A    between atoms: C_17  and  C_25
REMARK   11  A    between atoms: C_27  and  C_29
REMARK                            x       y       z     vdW  Elec       q    Type
REMARK                         _______ _______ _______ _____ _____    ______ ____
ROOT
ATOM      9  C   UNL     1      -5.710 -10.824  11.278  0.00  0.00    +0.000 C 
ATOM     10  C   UNL     1      -5.134 -10.697   9.849  0.00  0.00    +0.029 C 
ATOM     11  C   UNL     1      -4.634 -11.332  12.248  0.00  0.00    +0.012 C 
ATOM     12  C   UNL     1      -3.372 -10.443  12.280  0.00  0.00    +0.024 C 
ATOM     15  C   UNL     1      -3.767 -10.063   9.829  0.00  0.00    -0.023 C 
ATOM     16  C   UNL     1      -2.970  -9.931  10.905  0.00  0.00    -0.073 C 
ATOM     22  C   UNL     1      -1.658  -9.204  10.792  0.00  0.00    +0.039 C 
ENDROOT
BRANCH   9  13
ATOM     13  C   UNL     1      -6.310  -9.496  11.760  0.00  0.00    -0.013 C 
ATOM     18  C   UNL     1      -6.946  -9.669  13.135  0.00  0.00    +0.007 C 
ATOM     19  C   UNL     1      -7.331  -8.976  10.753  0.00  0.00    +0.007 C 
ENDBRANCH   9  13
BRANCH  10  14
ATOM     14  C   UNL     1      -5.072 -12.054   9.141  0.00  0.00    +0.092 C 
BRANCH  14   3
ATOM      3  N   UNL     1      -4.595 -11.899   7.767  0.00  0.00    -0.299 NA
ATOM      4  N   UNL     1      -4.476 -12.462   4.969  0.00  0.00    -0.312 N 
ATOM      7  N   UNL     1      -3.074 -12.735   3.071  0.00  0.00    -0.237 NA
ATOM      8  N   UNL     1      -5.373 -12.981   1.483  0.00  0.00    -0.258 NA
ATOM     20  C   UNL     1      -5.696 -11.500   6.881  0.00  0.00    +0.103 C 
ATOM     21  C   UNL     1      -3.995 -13.151   7.287  0.00  0.00    +0.103 C 
ATOM     23  C   UNL     1      -5.198 -11.280   5.450  0.00  0.00    +0.122 C 
ATOM     24  C   UNL     1      -3.441 -12.984   5.869  0.00  0.00    +0.122 C 
ATOM     26  C   UNL     1      -4.314 -12.663   3.594  0.00  0.00    +0.140 A 
ATOM     28  C   UNL     1      -5.443 -12.785   2.814  0.00  0.00    +0.154 A 
ATOM     30  C   UNL     1      -3.003 -12.930   1.739  0.00  0.00    +0.132 A 
ATOM     31  C   UNL     1      -4.132 -13.052   0.959  0.00  0.00    +0.130 A 
ENDBRANCH  14   3
ENDBRANCH  10  14
BRANCH  12  17
ATOM     17  C   UNL     1      -2.247 -11.216  12.980  0.00  0.00    +0.105 C 
BRANCH  17  25
ATOM      1  O   UNL     1      -3.531 -11.088  15.052  0.00  0.00    -0.420 OA
ATOM      5  N   UNL     1      -1.326 -10.827  15.323  0.00  0.00    -0.112 NA
ATOM      6  N   UNL     1      -1.924 -10.732  16.566  0.00  0.00    -0.107 NA
ATOM     25  C   UNL     1      -2.301 -11.035  14.470  0.00  0.00    +0.218 A 
ATOM     27  C   UNL     1      -3.210 -10.891  16.360  0.00  0.00    +0.248 A 
BRANCH  27  29
ATOM     29  C   UNL     1      -4.308 -10.888  17.282  0.00  0.00    +0.039 A 
ATOM     32  C   UNL     1      -5.485 -10.209  16.964  0.00  0.00    +0.017 A 
ATOM     33  C   UNL     1      -4.201 -11.567  18.496  0.00  0.00    +0.017 A 
ATOM     34  C   UNL     1      -6.553 -10.207  17.861  0.00  0.00    +0.046 A 
ATOM     35  C   UNL     1      -5.270 -11.565  19.393  0.00  0.00    +0.046 A 
ATOM     36  C   UNL     1      -6.445 -10.885  19.075  0.00  0.00    +0.120 A 
BRANCH  36   2
ATOM      2  O   UNL     1      -7.489 -10.887  19.949  0.00  0.00    -0.495 OA
ATOM     37  C   UNL     1      -8.790 -11.105  19.406  0.00  0.00    +0.277 C 
ENDBRANCH  36   2
ENDBRANCH  27  29
ENDBRANCH  17  25
ENDBRANCH  12  17
TORSDOF 7
ENDMDL
MODEL 2
REMARK VINA RESULT:      -7.9      1.896      2.468
REMARK  Name = 45783965
REMARK  11 active torsions:
REMARK  status: ('A' for Active; 'I' for Inactive)
REMARK    1  A    between atoms: O_2  and  C_36
REMARK    2  A    between atoms: O_2  and  C_37
REMARK    3  A    between atoms: N_3  and  C_14
REMARK    4  A    between atoms: C_9  and  C_13
REMARK    5  A    between atoms: C_10  and  C_14
REMARK    6  A    between atoms: C_12  and  C_17
REMARK    7  A    between atoms: C_13  and  C_18
REMARK    8  A    between atoms: C_13  and  C_19
REMARK    9  A    between atoms: C_16  and  C_22
REMARK   10  A    between atoms: C_17  and  C_25
REMARK   11  A    between atoms: C_27  and  C_29
REMARK                            x       y       z     vdW  Elec       q    Type
REMARK                         _______ _______ _______ _____ _____    ______ ____
ROOT
ATOM      9  C   UNL     1      -5.446 -10.492  10.725  0.00  0.00    +0.000 C 
ATOM     10  C   UNL     1      -4.664 -10.125   9.443  0.00  0.00    +0.029 C 
ATOM     11  C   UNL     1      -4.532 -11.215  11.724  0.00  0.00    +0.012 C 
ATOM     12  C   UNL     1      -3.277 -10.400  12.104  0.00  0.00    +0.024 C 
ATOM     15  C   UNL     1      -3.301  -9.555   9.739  0.00  0.00    -0.023 C 
ATOM     16  C   UNL     1      -2.669  -9.658  10.923  0.00  0.00    -0.073 C 
ATOM     22  C   UNL     1      -1.346  -8.976  11.138  0.00  0.00    +0.039 C 
ENDROOT
BRANCH   9  13
ATOM     13  C   UNL     1      -6.093  -9.254  11.361  0.00  0.00    -0.013 C 
ATOM     18  C   UNL     1      -6.555  -9.565  12.780  0.00  0.00    +0.007 C 
ATOM     19  C   UNL     1      -7.259  -8.765  10.507  0.00  0.00    +0.007 C 
ENDBRANCH   9  13
BRANCH  10  14
ATOM     14  C   UNL     1      -4.516 -11.328   8.506  0.00  0.00    +0.092 C 
BRANCH  14   3
ATOM      3  N   UNL     1      -4.989 -10.999   7.162  0.00  0.00    -0.299 NA
ATOM      4  N   UNL     1      -6.921 -10.677   5.084  0.00  0.00    -0.312 N 
ATOM      7  N   UNL     1      -7.400 -10.966   2.775  0.00  0.00    -0.237 NA
ATOM      8  N   UNL     1      -9.843  -9.648   3.178  0.00  0.00    -0.258 NA
ATOM     20  C   UNL     1      -5.957  -9.896   7.212  0.00  0.00    +0.103 C 
ATOM     21  C   UNL     1      -5.600 -12.174   6.530  0.00  0.00    +0.103 C 
ATOM     23  C   UNL     1      -6.418  -9.504   5.806  0.00  0.00    +0.122 C 
ATOM     24  C   UNL     1      -6.048 -11.856   5.100  0.00  0.00    +0.122 C 
ATOM     26  C   UNL     1      -7.770 -10.502   3.985  0.00  0.00    +0.140 A 
ATOM     28  C   UNL     1      -8.970  -9.856   4.183  0.00  0.00    +0.154 A 
ATOM     30  C   UNL     1      -8.273 -10.758   1.769  0.00  0.00    +0.132 A 
ATOM     31  C   UNL     1      -9.473 -10.112   1.966  0.00  0.00    +0.130 A 
ENDBRANCH  14   3
ENDBRANCH  10  14
BRANCH  12  17
ATOM     17  C   UNL     1      -2.277 -11.335  12.797  0.00  0.00    +0.105 C 
BRANCH  17  25
ATOM      1  O   UNL     1      -3.490 -11.167  14.909  0.00  0.00    -0.420 OA
ATOM      5  N   UNL     1      -1.275 -10.926  15.103  0.00  0.00    -0.112 NA
ATOM      6  N   UNL     1      -1.829 -10.809  16.364  0.00  0.00    -0.107 NA
ATOM     25  C   UNL     1      -2.280 -11.134  14.286  0.00  0.00    +0.218 A 
ATOM     27  C   UNL     1      -3.123 -10.956  16.202  0.00  0.00    +0.248 A 
BRANCH  27  29
ATOM     29  C   UNL     1      -4.189 -10.931  17.161  0.00  0.00    +0.039 A 
ATOM     32  C   UNL     1      -4.066 -11.631  18.361  0.00  0.00    +0.017 A 
ATOM     33  C   UNL     1      -5.350 -10.204  16.894  0.00  0.00    +0.017 A 
ATOM     34  C   UNL     1      -5.103 -11.605  19.293  0.00  0.00    +0.046 A 
ATOM     35  C   UNL     1      -6.387 -10.178  17.827  0.00  0.00    +0.046 A 
ATOM     36  C   UNL     1      -6.263 -10.879  19.026  0.00  0.00    +0.120 A 
BRANCH  36   2
ATOM      2  O   UNL     1      -7.274 -10.851  19.937  0.00  0.00    -0.495 OA
ATOM     37  C   UNL     1      -8.574 -11.215  19.476  0.00  0.00    +0.277 C 
ENDBRANCH  36   2
ENDBRANCH  27  29
ENDBRANCH  17  25
ENDBRANCH  12  17
TORSDOF 7
ENDMDL
MODEL 3
REMARK VINA RESULT:      -7.4      4.560     10.407
REMARK  Name = 45783965
REMARK  11 active torsions:
REMARK  status: ('A' for Active; 'I' for Inactive)
REMARK    1  A    between atoms: O_2  and  C_36
REMARK    2  A    between atoms: O_2  and  C_37
REMARK    3  A    between atoms: N_3  and  C_14
REMARK    4  A    between atoms: C_9  and  C_13
REMARK    5  A    between atoms: C_10  and  C_14
REMARK    6  A    between atoms: C_12  and  C_17
REMARK    7  A    between atoms: C_13  and  C_18
REMARK    8  A    between atoms: C_13  and  C_19
REMARK    9  A    between atoms: C_16  and  C_22
REMARK   10  A    between atoms: C_17  and  C_25
REMARK   11  A    between atoms: C_27  and  C_29
REMARK                            x       y       z     vdW  Elec       q    Type
REMARK                         _______ _______ _______ _____ _____    ______ ____
ROOT
ATOM      9  C   UNL     1      -7.009 -12.043  16.857  0.00  0.00    +0.000 C 
ATOM     10  C   UNL     1      -7.141 -11.721  18.363  0.00  0.00    +0.029 C 
ATOM     11  C   UNL     1      -5.740 -11.402  16.279  0.00  0.00    +0.012 C 
ATOM     12  C   UNL     1      -4.451 -11.833  17.011  0.00  0.00    +0.024 C 
ATOM     15  C   UNL     1      -5.837 -11.872  19.105  0.00  0.00    -0.023 C 
ATOM     16  C   UNL     1      -4.627 -11.935  18.519  0.00  0.00    -0.073 C 
ATOM     22  C   UNL     1      -3.396 -12.174  19.348  0.00  0.00    +0.039 C 
ENDROOT
BRANCH   9  13
ATOM     13  C   UNL     1      -7.032 -13.556  16.603  0.00  0.00    -0.013 C 
ATOM     18  C   UNL     1      -7.094 -13.844  15.107  0.00  0.00    +0.007 C 
ATOM     19  C   UNL     1      -8.210 -14.200  17.328  0.00  0.00    +0.007 C 
ENDBRANCH   9  13
BRANCH  10  14
ATOM     14  C   UNL     1      -7.693 -10.311  18.595  0.00  0.00    +0.092 C 
BRANCH  14   3
ATOM      3  N   UNL     1      -8.787 -10.024  17.668  0.00  0.00    -0.299 NA
ATOM      4  N   UNL     1     -10.916  -8.488  16.542  0.00  0.00    -0.312 N 
ATOM      7  N   UNL     1     -13.108  -8.531  15.627  0.00  0.00    -0.237 NA
ATOM      8  N   UNL     1     -12.851  -5.801  15.038  0.00  0.00    -0.258 NA
ATOM     20  C   UNL     1      -8.499  -8.813  16.890  0.00  0.00    +0.103 C 
ATOM     21  C   UNL     1     -10.050  -9.861  18.398  0.00  0.00    +0.103 C 
ATOM     23  C   UNL     1      -9.611  -8.533  15.875  0.00  0.00    +0.122 C 
ATOM     24  C   UNL     1     -11.213  -9.617  17.433  0.00  0.00    +0.122 C 
ATOM     26  C   UNL     1     -11.989  -7.840  15.922  0.00  0.00    +0.140 A 
ATOM     28  C   UNL     1     -11.863  -6.498  15.634  0.00  0.00    +0.154 A 
ATOM     30  C   UNL     1     -14.095  -7.834  15.030  0.00  0.00    +0.132 A 
ATOM     31  C   UNL     1     -13.970  -6.493  14.742  0.00  0.00    +0.130 A 
ENDBRANCH  14   3
ENDBRANCH  10  14
BRANCH  12  17
ATOM     17  C   UNL     1      -3.317 -10.881  16.608  0.00  0.00    +0.105 C 
BRANCH  17  25
ATOM      1  O   UNL     1      -3.578 -10.605  14.197  0.00  0.00    -0.420 OA
ATOM      5  N   UNL     1      -1.816 -11.849  14.792  0.00  0.00    -0.112 NA
ATOM      6  N   UNL     1      -1.841 -11.776  13.411  0.00  0.00    -0.107 NA
ATOM     25  C   UNL     1      -2.847 -11.151  15.207  0.00  0.00    +0.218 A 
ATOM     27  C   UNL     1      -2.885 -11.041  13.109  0.00  0.00    +0.248 A 
BRANCH  27  29
ATOM     29  C   UNL     1      -3.399 -10.634  11.833  0.00  0.00    +0.039 A 
ATOM     32  C   UNL     1      -2.751  -9.634  11.107  0.00  0.00    +0.017 A 
ATOM     33  C   UNL     1      -4.546 -11.238  11.318  0.00  0.00    +0.017 A 
ATOM     34  C   UNL     1      -3.251  -9.238   9.866  0.00  0.00    +0.046 A 
ATOM     35  C   UNL     1      -5.046 -10.842  10.077  0.00  0.00    +0.046 A 
ATOM     36  C   UNL     1      -4.398  -9.842   9.352  0.00  0.00    +0.120 A 
BRANCH  36   2
ATOM      2  O   UNL     1      -4.884  -9.459   8.139  0.00  0.00    -0.495 OA
ATOM     37  C   UNL     1      -5.220 -10.495   7.217  0.00  0.00    +0.277 C 
ENDBRANCH  36   2
ENDBRANCH  27  29
ENDBRANCH  17  25
ENDBRANCH  12  17
TORSDOF 7
ENDMDL
MODEL 4
REMARK VINA RESULT:      -7.3     24.650     31.061
REMARK  Name = 45783965
REMARK  11 active torsions:
REMARK  status: ('A' for Active; 'I' for Inactive)
REMARK    1  A    between atoms: O_2  and  C_36
REMARK    2  A    between atoms: O_2  and  C_37
REMARK    3  A    between atoms: N_3  and  C_14
REMARK    4  A    between atoms: C_9  and  C_13
REMARK    5  A    between atoms: C_10  and  C_14
REMARK    6  A    between atoms: C_12  and  C_17
REMARK    7  A    between atoms: C_13  and  C_18
REMARK    8  A    between atoms: C_13  and  C_19
REMARK    9  A    between atoms: C_16  and  C_22
REMARK   10  A    between atoms: C_17  and  C_25
REMARK   11  A    between atoms: C_27  and  C_29
REMARK                            x       y       z     vdW  Elec       q    Type
REMARK                         _______ _______ _______ _____ _____    ______ ____
ROOT
ATOM      9  C   UNL     1     -11.073   9.860  31.756  0.00  0.00    +0.000 C 
ATOM     10  C   UNL     1     -10.912  10.704  33.040  0.00  0.00    +0.029 C 
ATOM     11  C   UNL     1     -11.746   8.518  32.075  0.00  0.00    +0.012 C 
ATOM     12  C   UNL     1     -13.120   8.672  32.763  0.00  0.00    +0.024 C 
ATOM     15  C   UNL     1     -12.148  10.688  33.904  0.00  0.00    -0.023 C 
ATOM     16  C   UNL     1     -13.149   9.796  33.788  0.00  0.00    -0.073 C 
ATOM     22  C   UNL     1     -14.379   9.922  34.645  0.00  0.00    +0.039 C 
ENDROOT
BRANCH   9  13
ATOM     13  C   UNL     1     -11.847  10.626  30.675  0.00  0.00    -0.013 C 
ATOM     18  C   UNL     1     -11.637   9.979  29.310  0.00  0.00    +0.007 C 
ATOM     19  C   UNL     1     -11.421  12.091  30.651  0.00  0.00    +0.007 C 
ENDBRANCH   9  13
BRANCH  10  14
ATOM     14  C   UNL     1      -9.710  10.247  33.872  0.00  0.00    +0.092 C 
BRANCH  14   3
ATOM      3  N   UNL     1      -8.704  11.305  33.953  0.00  0.00    -0.299 NA
ATOM      4  N   UNL     1      -6.146  12.509  33.539  0.00  0.00    -0.312 N 
ATOM      7  N   UNL     1      -4.432  13.865  34.471  0.00  0.00    -0.237 NA
ATOM      8  N   UNL     1      -3.109  13.785  31.998  0.00  0.00    -0.258 NA
ATOM     20  C   UNL     1      -8.289  11.725  32.609  0.00  0.00    +0.103 C 
ATOM     21  C   UNL     1      -7.536  10.848  34.717  0.00  0.00    +0.103 C 
ATOM     23  C   UNL     1      -7.276  12.872  32.678  0.00  0.00    +0.122 C 
ATOM     24  C   UNL     1      -6.500  11.967  34.857  0.00  0.00    +0.122 C 
ATOM     26  C   UNL     1      -4.933  13.193  33.414  0.00  0.00    +0.140 A 
ATOM     28  C   UNL     1      -4.282  13.154  32.200  0.00  0.00    +0.154 A 
ATOM     30  C   UNL     1      -3.259  14.497  34.269  0.00  0.00    +0.132 A 
ATOM     31  C   UNL     1      -2.608  14.457  33.055  0.00  0.00    +0.130 A 
ENDBRANCH  14   3
ENDBRANCH  10  14
BRANCH  12  17
ATOM     17  C   UNL     1     -13.526   7.316  33.354  0.00  0.00    +0.105 C 
BRANCH  17  25
ATOM      1  O   UNL     1     -14.037   5.236  32.184  0.00  0.00    -0.420 OA
ATOM      5  N   UNL     1     -15.438   6.917  31.720  0.00  0.00    -0.112 NA
ATOM      6  N   UNL     1     -15.843   5.811  30.995  0.00  0.00    -0.107 NA
ATOM     25  C   UNL     1     -14.383   6.535  32.399  0.00  0.00    +0.218 A 
ATOM     27  C   UNL     1     -14.997   4.855  31.297  0.00  0.00    +0.248 A 
BRANCH  27  29
ATOM     29  C   UNL     1     -14.929   3.495  30.846  0.00  0.00    +0.039 A 
ATOM     32  C   UNL     1     -16.033   2.910  30.226  0.00  0.00    +0.017 A 
ATOM     33  C   UNL     1     -13.758   2.758  31.025  0.00  0.00    +0.017 A 
ATOM     34  C   UNL     1     -15.966   1.587  29.786  0.00  0.00    +0.046 A 
ATOM     35  C   UNL     1     -13.692   1.435  30.586  0.00  0.00    +0.046 A 
ATOM     36  C   UNL     1     -14.796   0.851  29.966  0.00  0.00    +0.120 A 
BRANCH  36   2
ATOM      2  O   UNL     1     -14.730  -0.438  29.534  0.00  0.00    -0.495 OA
ATOM     37  C   UNL     1     -13.429  -0.984  29.318  0.00  0.00    +0.277 C 
ENDBRANCH  36   2
ENDBRANCH  27  29
ENDBRANCH  17  25
ENDBRANCH  12  17
TORSDOF 7
ENDMDL
MODEL 5
REMARK VINA RESULT:      -7.2      3.501     11.325
REMARK  Name = 45783965
REMARK  11 active torsions:
REMARK  status: ('A' for Active; 'I' for Inactive)
REMARK    1  A    between atoms: O_2  and  C_36
REMARK    2  A    between atoms: O_2  and  C_37
REMARK    3  A    between atoms: N_3  and  C_14
REMARK    4  A    between atoms: C_9  and  C_13
REMARK    5  A    between atoms: C_10  and  C_14
REMARK    6  A    between atoms: C_12  and  C_17
REMARK    7  A    between atoms: C_13  and  C_18
REMARK    8  A    between atoms: C_13  and  C_19
REMARK    9  A    between atoms: C_16  and  C_22
REMARK   10  A    between atoms: C_17  and  C_25
REMARK   11  A    between atoms: C_27  and  C_29
REMARK                            x       y       z     vdW  Elec       q    Type
REMARK                         _______ _______ _______ _____ _____    ______ ____
ROOT
ATOM      9  C   UNL     1      -4.140 -11.835  12.820  0.00  0.00    +0.000 C 
ATOM     10  C   UNL     1      -3.004 -11.345  13.746  0.00  0.00    +0.029 C 
ATOM     11  C   UNL     1      -4.582 -10.714  11.870  0.00  0.00    +0.012 C 
ATOM     12  C   UNL     1      -3.429 -10.150  11.013  0.00  0.00    +0.024 C 
ATOM     15  C   UNL     1      -1.957 -10.551  13.008  0.00  0.00    -0.023 C 
ATOM     16  C   UNL     1      -2.123 -10.018  11.783  0.00  0.00    -0.073 C 
ATOM     22  C   UNL     1      -0.982  -9.317  11.101  0.00  0.00    +0.039 C 
ENDROOT
BRANCH   9  13
ATOM     13  C   UNL     1      -3.726 -13.091  12.041  0.00  0.00    -0.013 C 
ATOM     18  C   UNL     1      -4.925 -13.679  11.304  0.00  0.00    +0.007 C 
ATOM     19  C   UNL     1      -3.110 -14.122  12.981  0.00  0.00    +0.007 C 
ENDBRANCH   9  13
BRANCH  10  14
ATOM     14  C   UNL     1      -3.543 -10.509  14.911  0.00  0.00    +0.092 C 
BRANCH  14   3
ATOM      3  N   UNL     1      -4.746 -11.122  15.475  0.00  0.00    -0.299 NA
ATOM      4  N   UNL     1      -6.715 -11.638  17.478  0.00  0.00    -0.312 N 
ATOM      7  N   UNL     1      -8.078 -13.277  18.527  0.00  0.00    -0.237 NA
ATOM      8  N   UNL     1      -9.303 -11.228  20.001  0.00  0.00    -0.258 NA
ATOM     20  C   UNL     1      -5.730 -10.093  15.831  0.00  0.00    +0.103 C 
ATOM     21  C   UNL     1      -4.408 -11.923  16.658  0.00  0.00    +0.103 C 
ATOM     23  C   UNL     1      -7.016 -10.725  16.371  0.00  0.00    +0.122 C 
ATOM     24  C   UNL     1      -5.651 -12.616  17.224  0.00  0.00    +0.122 C 
ATOM     26  C   UNL     1      -7.724 -11.984  18.384  0.00  0.00    +0.140 A 
ATOM     28  C   UNL     1      -8.325 -10.978  19.109  0.00  0.00    +0.154 A 
ATOM     30  C   UNL     1      -9.057 -13.527  19.419  0.00  0.00    +0.132 A 
ATOM     31  C   UNL     1      -9.658 -12.521  20.144  0.00  0.00    +0.130 A 
ENDBRANCH  14   3
ENDBRANCH  10  14
BRANCH  12  17
ATOM     17  C   UNL     1      -3.886  -8.826  10.387  0.00  0.00    +0.105 C 
BRANCH  17  25
ATOM      1  O   UNL     1      -4.549  -9.833   8.264  0.00  0.00    -0.420 OA
ATOM      5  N   UNL     1      -6.147  -8.605   9.234  0.00  0.00    -0.112 NA
ATOM      6  N   UNL     1      -6.655  -9.110   8.052  0.00  0.00    -0.107 NA
ATOM     25  C   UNL     1      -4.917  -9.052   9.317  0.00  0.00    +0.218 A 
ATOM     27  C   UNL     1      -5.689  -9.820   7.520  0.00  0.00    +0.248 A 
BRANCH  27  29
ATOM     29  C   UNL     1      -5.648 -10.571   6.298  0.00  0.00    +0.039 A 
ATOM     32  C   UNL     1      -4.608 -11.470   6.066  0.00  0.00    +0.017 A 
ATOM     33  C   UNL     1      -6.651 -10.404   5.343  0.00  0.00    +0.017 A 
ATOM     34  C   UNL     1      -4.569 -12.200   4.878  0.00  0.00    +0.046 A 
ATOM     35  C   UNL     1      -6.613 -11.134   4.155  0.00  0.00    +0.046 A 
ATOM     36  C   UNL     1      -5.572 -12.032   3.923  0.00  0.00    +0.120 A 
BRANCH  36   2
ATOM      2  O   UNL     1      -5.537 -12.748   2.766  0.00  0.00    -0.495 OA
ATOM     37  C   UNL     1      -4.252 -13.002   2.199  0.00  0.00    +0.277 C 
ENDBRANCH  36   2
ENDBRANCH  27  29
ENDBRANCH  17  25
ENDBRANCH  12  17
TORSDOF 7
ENDMDL
MODEL 6
REMARK VINA RESULT:      -7.2      3.948      6.371
REMARK  Name = 45783965
REMARK  11 active torsions:
REMARK  status: ('A' for Active; 'I' for Inactive)
REMARK    1  A    between atoms: O_2  and  C_36
REMARK    2  A    between atoms: O_2  and  C_37
REMARK    3  A    between atoms: N_3  and  C_14
REMARK    4  A    between atoms: C_9  and  C_13
REMARK    5  A    between atoms: C_10  and  C_14
REMARK    6  A    between atoms: C_12  and  C_17
REMARK    7  A    between atoms: C_13  and  C_18
REMARK    8  A    between atoms: C_13  and  C_19
REMARK    9  A    between atoms: C_16  and  C_22
REMARK   10  A    between atoms: C_17  and  C_25
REMARK   11  A    between atoms: C_27  and  C_29
REMARK                            x       y       z     vdW  Elec       q    Type
REMARK                         _______ _______ _______ _____ _____    ______ ____
ROOT
ATOM      9  C   UNL     1      -3.827 -10.647  14.806  0.00  0.00    +0.000 C 
ATOM     10  C   UNL     1      -4.891 -11.634  14.275  0.00  0.00    +0.029 C 
ATOM     11  C   UNL     1      -4.131 -10.258  16.259  0.00  0.00    +0.012 C 
ATOM     12  C   UNL     1      -4.226 -11.471  17.209  0.00  0.00    +0.024 C 
ATOM     15  C   UNL     1      -5.228 -12.714  15.271  0.00  0.00    -0.023 C 
ATOM     16  C   UNL     1      -4.930 -12.665  16.582  0.00  0.00    -0.073 C 
ATOM     22  C   UNL     1      -5.235 -13.837  17.473  0.00  0.00    +0.039 C 
ENDROOT
BRANCH   9  13
ATOM     13  C   UNL     1      -2.411 -11.223  14.671  0.00  0.00    -0.013 C 
ATOM     18  C   UNL     1      -1.386 -10.259  15.257  0.00  0.00    +0.007 C 
ATOM     19  C   UNL     1      -2.096 -11.525  13.209  0.00  0.00    +0.007 C 
ENDBRANCH   9  13
BRANCH  10  14
ATOM     14  C   UNL     1      -6.177 -10.912  13.860  0.00  0.00    +0.092 C 
BRANCH  14   3
ATOM      3  N   UNL     1      -6.150 -10.587  12.434  0.00  0.00    -0.299 NA
ATOM      4  N   UNL     1      -7.045  -9.334  10.028  0.00  0.00    -0.312 N 
ATOM      7  N   UNL     1      -7.418  -9.585   7.695  0.00  0.00    -0.237 NA
ATOM      8  N   UNL     1      -8.080  -6.862   7.569  0.00  0.00    -0.258 NA
ATOM     20  C   UNL     1      -5.972  -9.143  12.238  0.00  0.00    +0.103 C 
ATOM     21  C   UNL     1      -7.389 -11.032  11.782  0.00  0.00    +0.103 C 
ATOM     23  C   UNL     1      -5.887  -8.796  10.749  0.00  0.00    +0.122 C 
ATOM     24  C   UNL     1      -7.349 -10.748  10.278  0.00  0.00    +0.122 C 
ATOM     26  C   UNL     1      -7.400  -8.794   8.787  0.00  0.00    +0.140 A 
ATOM     28  C   UNL     1      -7.727  -7.457   8.725  0.00  0.00    +0.154 A 
ATOM     30  C   UNL     1      -7.771  -8.989   6.539  0.00  0.00    +0.132 A 
ATOM     31  C   UNL     1      -8.097  -7.652   6.476  0.00  0.00    +0.130 A 
ENDBRANCH  14   3
ENDBRANCH  10  14
BRANCH  12  17
ATOM     17  C   UNL     1      -4.878 -11.016  18.521  0.00  0.00    +0.105 C 
BRANCH  17  25
ATOM      1  O   UNL     1      -6.848  -9.984  17.513  0.00  0.00    -0.420 OA
ATOM      5  N   UNL     1      -7.313 -11.600  18.989  0.00  0.00    -0.112 NA
ATOM      6  N   UNL     1      -8.510 -11.109  18.502  0.00  0.00    -0.107 NA
ATOM     25  C   UNL     1      -6.371 -10.915  18.385  0.00  0.00    +0.218 A 
ATOM     27  C   UNL     1      -8.190 -10.169  17.644  0.00  0.00    +0.248 A 
BRANCH  27  29
ATOM     29  C   UNL     1      -9.021  -9.322  16.838  0.00  0.00    +0.039 A 
ATOM     32  C   UNL     1      -9.176  -9.587  15.478  0.00  0.00    +0.017 A 
ATOM     33  C   UNL     1      -9.676  -8.233  17.416  0.00  0.00    +0.017 A 
ATOM     34  C   UNL     1      -9.985  -8.763  14.694  0.00  0.00    +0.046 A 
ATOM     35  C   UNL     1     -10.485  -7.410  16.632  0.00  0.00    +0.046 A 
ATOM     36  C   UNL     1     -10.639  -7.675  15.272  0.00  0.00    +0.120 A 
BRANCH  36   2
ATOM      2  O   UNL     1     -11.431  -6.873  14.509  0.00  0.00    -0.495 OA
ATOM     37  C   UNL     1     -12.090  -5.794  15.169  0.00  0.00    +0.277 C 
ENDBRANCH  36   2
ENDBRANCH  27  29
ENDBRANCH  17  25
ENDBRANCH  12  17
TORSDOF 7
ENDMDL
MODEL 7
REMARK VINA RESULT:      -7.1      3.851     11.332
REMARK  Name = 45783965
REMARK  11 active torsions:
REMARK  status: ('A' for Active; 'I' for Inactive)
REMARK    1  A    between atoms: O_2  and  C_36
REMARK    2  A    between atoms: O_2  and  C_37
REMARK    3  A    between atoms: N_3  and  C_14
REMARK    4  A    between atoms: C_9  and  C_13
REMARK    5  A    between atoms: C_10  and  C_14
REMARK    6  A    between atoms: C_12  and  C_17
REMARK    7  A    between atoms: C_13  and  C_18
REMARK    8  A    between atoms: C_13  and  C_19
REMARK    9  A    between atoms: C_16  and  C_22
REMARK   10  A    between atoms: C_17  and  C_25
REMARK   11  A    between atoms: C_27  and  C_29
REMARK                            x       y       z     vdW  Elec       q    Type
REMARK                         _______ _______ _______ _____ _____    ______ ____
ROOT
ATOM      9  C   UNL     1      -5.166 -11.973  15.334  0.00  0.00    +0.000 C 
ATOM     10  C   UNL     1      -4.890 -10.973  16.481  0.00  0.00    +0.029 C 
ATOM     11  C   UNL     1      -4.482 -11.510  14.041  0.00  0.00    +0.012 C 
ATOM     12  C   UNL     1      -2.958 -11.313  14.194  0.00  0.00    +0.024 C 
ATOM     15  C   UNL     1      -3.451 -10.529  16.529  0.00  0.00    -0.023 C 
ATOM     16  C   UNL     1      -2.570 -10.682  15.523  0.00  0.00    -0.073 C 
ATOM     22  C   UNL     1      -1.132 -10.281  15.707  0.00  0.00    +0.039 C 
ENDROOT
BRANCH   9  13
ATOM     13  C   UNL     1      -4.733 -13.395  15.714  0.00  0.00    -0.013 C 
ATOM     18  C   UNL     1      -5.153 -14.386  14.634  0.00  0.00    +0.007 C 
ATOM     19  C   UNL     1      -5.320 -13.787  17.067  0.00  0.00    +0.007 C 
ENDBRANCH   9  13
BRANCH  10  14
ATOM     14  C   UNL     1      -5.796  -9.740  16.388  0.00  0.00    +0.092 C 
BRANCH  14   3
ATOM      3  N   UNL     1      -6.888  -9.827  17.356  0.00  0.00    -0.299 NA
ATOM      4  N   UNL     1      -8.985 -11.107  18.814  0.00  0.00    -0.312 N 
ATOM      7  N   UNL     1     -11.184 -10.906  19.691  0.00  0.00    -0.237 NA
ATOM      8  N   UNL     1     -10.860 -13.409  20.915  0.00  0.00    -0.258 NA
ATOM     20  C   UNL     1      -6.574 -10.809  18.401  0.00  0.00    +0.103 C 
ATOM     21  C   UNL     1      -8.142 -10.194  16.685  0.00  0.00    +0.103 C 
ATOM     23  C   UNL     1      -7.686 -10.869  19.452  0.00  0.00    +0.122 C 
ATOM     24  C   UNL     1      -9.305 -10.232  17.679  0.00  0.00    +0.122 C 
ATOM     26  C   UNL     1     -10.045 -11.618  19.570  0.00  0.00    +0.140 A 
ATOM     28  C   UNL     1      -9.887 -12.848  20.171  0.00  0.00    +0.154 A 
ATOM     30  C   UNL     1     -12.157 -11.467  20.435  0.00  0.00    +0.132 A 
ATOM     31  C   UNL     1     -11.999 -12.697  21.036  0.00  0.00    +0.130 A 
ENDBRANCH  14   3
ENDBRANCH  10  14
BRANCH  12  17
ATOM     17  C   UNL     1      -2.444 -10.520  12.985  0.00  0.00    +0.105 C 
BRANCH  17  25
ATOM      1  O   UNL     1      -3.868 -10.130  11.042  0.00  0.00    -0.420 OA
ATOM      5  N   UNL     1      -2.953 -12.170  11.113  0.00  0.00    -0.112 NA
ATOM      6  N   UNL     1      -3.727 -12.089   9.970  0.00  0.00    -0.107 NA
ATOM     25  C   UNL     1      -3.064 -11.006  11.706  0.00  0.00    +0.218 A 
ATOM     27  C   UNL     1      -4.241 -10.882   9.970  0.00  0.00    +0.248 A 
BRANCH  27  29
ATOM     29  C   UNL     1      -5.118 -10.244   9.032  0.00  0.00    +0.039 A 
ATOM     32  C   UNL     1      -6.056  -9.311   9.476  0.00  0.00    +0.017 A 
ATOM     33  C   UNL     1      -5.033 -10.554   7.674  0.00  0.00    +0.017 A 
ATOM     34  C   UNL     1      -6.909  -8.690   8.563  0.00  0.00    +0.046 A 
ATOM     35  C   UNL     1      -5.886  -9.933   6.761  0.00  0.00    +0.046 A 
ATOM     36  C   UNL     1      -6.824  -9.002   7.206  0.00  0.00    +0.120 A 
BRANCH  36   2
ATOM      2  O   UNL     1      -7.653  -8.393   6.315  0.00  0.00    -0.495 OA
ATOM     37  C   UNL     1      -7.229  -8.357   4.953  0.00  0.00    +0.277 C 
ENDBRANCH  36   2
ENDBRANCH  27  29
ENDBRANCH  17  25
ENDBRANCH  12  17
TORSDOF 7
ENDMDL
MODEL 8
REMARK VINA RESULT:      -6.9     21.843     25.075
REMARK  Name = 45783965
REMARK  11 active torsions:
REMARK  status: ('A' for Active; 'I' for Inactive)
REMARK    1  A    between atoms: O_2  and  C_36
REMARK    2  A    between atoms: O_2  and  C_37
REMARK    3  A    between atoms: N_3  and  C_14
REMARK    4  A    between atoms: C_9  and  C_13
REMARK    5  A    between atoms: C_10  and  C_14
REMARK    6  A    between atoms: C_12  and  C_17
REMARK    7  A    between atoms: C_13  and  C_18
REMARK    8  A    between atoms: C_13  and  C_19
REMARK    9  A    between atoms: C_16  and  C_22
REMARK   10  A    between atoms: C_17  and  C_25
REMARK   11  A    between atoms: C_27  and  C_29
REMARK                            x       y       z     vdW  Elec       q    Type
REMARK                         _______ _______ _______ _____ _____    ______ ____
ROOT
ATOM      9  C   UNL     1     -17.386   5.868  21.084  0.00  0.00    +0.000 C 
ATOM     10  C   UNL     1     -17.033   4.647  21.963  0.00  0.00    +0.029 C 
ATOM     11  C   UNL     1     -16.633   7.115  21.568  0.00  0.00    +0.012 C 
ATOM     12  C   UNL     1     -15.100   6.930  21.598  0.00  0.00    +0.024 C 
ATOM     15  C   UNL     1     -15.557   4.549  22.254  0.00  0.00    -0.023 C 
ATOM     16  C   UNL     1     -14.677   5.553  22.087  0.00  0.00    -0.073 C 
ATOM     22  C   UNL     1     -13.210   5.322  22.325  0.00  0.00    +0.039 C 
ENDROOT
BRANCH   9  13
ATOM     13  C   UNL     1     -17.105   5.591  19.601  0.00  0.00    -0.013 C 
ATOM     18  C   UNL     1     -17.479   6.802  18.753  0.00  0.00    +0.007 C 
ATOM     19  C   UNL     1     -17.862   4.350  19.138  0.00  0.00    +0.007 C 
ENDBRANCH   9  13
BRANCH  10  14
ATOM     14  C   UNL     1     -17.808   4.657  23.285  0.00  0.00    +0.092 C 
BRANCH  14   3
ATOM      3  N   UNL     1     -16.994   4.104  24.366  0.00  0.00    -0.299 NA
ATOM      4  N   UNL     1     -16.509   2.736  26.826  0.00  0.00    -0.312 N 
ATOM      7  N   UNL     1     -15.241   2.681  28.835  0.00  0.00    -0.237 NA
ATOM      8  N   UNL     1     -16.457   0.233  29.465  0.00  0.00    -0.258 NA
ATOM     20  C   UNL     1     -17.177   2.650  24.457  0.00  0.00    +0.103 C 
ATOM     21  C   UNL     1     -17.343   4.733  25.646  0.00  0.00    +0.103 C 
ATOM     23  C   UNL     1     -16.288   2.050  25.549  0.00  0.00    +0.122 C 
ATOM     24  C   UNL     1     -16.458   4.202  26.777  0.00  0.00    +0.122 C 
ATOM     26  C   UNL     1     -16.149   2.105  28.022  0.00  0.00    +0.140 A 
ATOM     28  C   UNL     1     -16.747   0.903  28.333  0.00  0.00    +0.154 A 
ATOM     30  C   UNL     1     -14.949   2.011  29.967  0.00  0.00    +0.132 A 
ATOM     31  C   UNL     1     -15.547   0.809  30.278  0.00  0.00    +0.130 A 
ENDBRANCH  14   3
ENDBRANCH  10  14
BRANCH  12  17
ATOM     17  C   UNL     1     -14.486   8.069  22.421  0.00  0.00    +0.105 C 
BRANCH  17  25
ATOM      1  O   UNL     1     -13.251   8.422  20.345  0.00  0.00    -0.420 OA
ATOM      5  N   UNL     1     -12.758   9.885  21.964  0.00  0.00    -0.112 NA
ATOM      6  N   UNL     1     -11.994  10.200  20.856  0.00  0.00    -0.107 NA
ATOM     25  C   UNL     1     -13.477   8.842  21.620  0.00  0.00    +0.218 A 
ATOM     27  C   UNL     1     -12.314   9.321  19.937  0.00  0.00    +0.248 A 
BRANCH  27  29
ATOM     29  C   UNL     1     -11.839   9.164  18.592  0.00  0.00    +0.039 A 
ATOM     32  C   UNL     1     -10.544   9.562  18.259  0.00  0.00    +0.017 A 
ATOM     33  C   UNL     1     -12.671   8.611  17.618  0.00  0.00    +0.017 A 
ATOM     34  C   UNL     1     -10.082   9.408  16.952  0.00  0.00    +0.046 A 
ATOM     35  C   UNL     1     -12.209   8.458  16.311  0.00  0.00    +0.046 A 
ATOM     36  C   UNL     1     -10.914   8.857  15.978  0.00  0.00    +0.120 A 
BRANCH  36   2
ATOM      2  O   UNL     1     -10.462   8.704  14.704  0.00  0.00    -0.495 OA
ATOM     37  C   UNL     1     -11.317   8.018  13.790  0.00  0.00    +0.277 C 
ENDBRANCH  36   2
ENDBRANCH  27  29
ENDBRANCH  17  25
ENDBRANCH  12  17
TORSDOF 7
ENDMDL
MODEL 9
REMARK VINA RESULT:      -6.8     24.198     28.003
REMARK  Name = 45783965
REMARK  11 active torsions:
REMARK  status: ('A' for Active; 'I' for Inactive)
REMARK    1  A    between atoms: O_2  and  C_36
REMARK    2  A    between atoms: O_2  and  C_37
REMARK    3  A    between atoms: N_3  and  C_14
REMARK    4  A    between atoms: C_9  and  C_13
REMARK    5  A    between atoms: C_10  and  C_14
REMARK    6  A    between atoms: C_12  and  C_17
REMARK    7  A    between atoms: C_13  and  C_18
REMARK    8  A    between atoms: C_13  and  C_19
REMARK    9  A    between atoms: C_16  and  C_22
REMARK   10  A    between atoms: C_17  and  C_25
REMARK   11  A    between atoms: C_27  and  C_29
REMARK                            x       y       z     vdW  Elec       q    Type
REMARK                         _______ _______ _______ _____ _____    ______ ____
ROOT
ATOM      9  C   UNL     1      10.368   9.949   6.813  0.00  0.00    +0.000 C 
ATOM     10  C   UNL     1      11.543   8.986   7.097  0.00  0.00    +0.029 C 
ATOM     11  C   UNL     1       9.281   9.242   5.991  0.00  0.00    +0.012 C 
ATOM     12  C   UNL     1       8.743   7.961   6.664  0.00  0.00    +0.024 C 
ATOM     15  C   UNL     1      11.080   7.614   7.516  0.00  0.00    -0.023 C 
ATOM     16  C   UNL     1       9.832   7.142   7.341  0.00  0.00    -0.073 C 
ATOM     22  C   UNL     1       9.452   5.788   7.874  0.00  0.00    +0.039 C 
ENDROOT
BRANCH   9  13
ATOM     13  C   UNL     1       9.792  10.530   8.111  0.00  0.00    -0.013 C 
ATOM     18  C   UNL     1       8.982  11.788   7.817  0.00  0.00    +0.007 C 
ATOM     19  C   UNL     1      10.912  10.827   9.104  0.00  0.00    +0.007 C 
ENDBRANCH   9  13
BRANCH  10  14
ATOM     14  C   UNL     1      12.476   8.857   5.889  0.00  0.00    +0.092 C 
BRANCH  14   3
ATOM      3  N   UNL     1      13.874   8.971   6.300  0.00  0.00    -0.299 NA
ATOM      4  N   UNL     1      16.693   9.229   5.915  0.00  0.00    -0.312 N 
ATOM      7  N   UNL     1      18.852   8.539   6.627  0.00  0.00    -0.237 NA
ATOM      8  N   UNL     1      19.967  10.413   4.863  0.00  0.00    -0.258 NA
ATOM     20  C   UNL     1      14.447  10.240   5.834  0.00  0.00    +0.103 C 
ATOM     21  C   UNL     1      14.658   7.845   5.776  0.00  0.00    +0.103 C 
ATOM     23  C   UNL     1      15.895  10.396   6.306  0.00  0.00    +0.122 C 
ATOM     24  C   UNL     1      16.112   7.923   6.247  0.00  0.00    +0.122 C 
ATOM     26  C   UNL     1      18.087   9.333   5.851  0.00  0.00    +0.140 A 
ATOM     28  C   UNL     1      18.635  10.252   4.984  0.00  0.00    +0.154 A 
ATOM     30  C   UNL     1      20.184   8.700   6.507  0.00  0.00    +0.132 A 
ATOM     31  C   UNL     1      20.733   9.619   5.640  0.00  0.00    +0.130 A 
ENDBRANCH  14   3
ENDBRANCH  10  14
BRANCH  12  17
ATOM     17  C   UNL     1       7.953   7.156   5.624  0.00  0.00    +0.105 C 
BRANCH  17  25
ATOM      1  O   UNL     1       9.725   6.177   4.261  0.00  0.00    -0.420 OA
ATOM      5  N   UNL     1       8.503   7.724   3.203  0.00  0.00    -0.112 NA
ATOM      6  N   UNL     1       9.461   7.258   2.321  0.00  0.00    -0.107 NA
ATOM     25  C   UNL     1       8.695   7.065   4.321  0.00  0.00    +0.218 A 
ATOM     27  C   UNL     1      10.150   6.358   2.981  0.00  0.00    +0.248 A 
BRANCH  27  29
ATOM     29  C   UNL     1      11.261   5.550   2.569  0.00  0.00    +0.039 A 
ATOM     32  C   UNL     1      11.110   4.169   2.443  0.00  0.00    +0.017 A 
ATOM     33  C   UNL     1      12.492   6.145   2.293  0.00  0.00    +0.017 A 
ATOM     34  C   UNL     1      12.191   3.383   2.041  0.00  0.00    +0.046 A 
ATOM     35  C   UNL     1      13.573   5.359   1.891  0.00  0.00    +0.046 A 
ATOM     36  C   UNL     1      13.422   3.978   1.766  0.00  0.00    +0.120 A 
BRANCH  36   2
ATOM      2  O   UNL     1      14.476   3.212   1.371  0.00  0.00    -0.495 OA
ATOM     37  C   UNL     1      15.497   3.856   0.611  0.00  0.00    +0.277 C 
ENDBRANCH  36   2
ENDBRANCH  27  29
ENDBRANCH  17  25
ENDBRANCH  12  17
TORSDOF 7
ENDMDL
MODEL 10
REMARK VINA RESULT:      -6.8      2.992      3.636
REMARK  Name = 45783965
REMARK  11 active torsions:
REMARK  status: ('A' for Active; 'I' for Inactive)
REMARK    1  A    between atoms: O_2  and  C_36
REMARK    2  A    between atoms: O_2  and  C_37
REMARK    3  A    between atoms: N_3  and  C_14
REMARK    4  A    between atoms: C_9  and  C_13
REMARK    5  A    between atoms: C_10  and  C_14
REMARK    6  A    between atoms: C_12  and  C_17
REMARK    7  A    between atoms: C_13  and  C_18
REMARK    8  A    between atoms: C_13  and  C_19
REMARK    9  A    between atoms: C_16  and  C_22
REMARK   10  A    between atoms: C_17  and  C_25
REMARK   11  A    between atoms: C_27  and  C_29
REMARK                            x       y       z     vdW  Elec       q    Type
REMARK                         _______ _______ _______ _____ _____    ______ ____
ROOT
ATOM      9  C   UNL     1      -6.227 -10.522   9.687  0.00  0.00    +0.000 C 
ATOM     10  C   UNL     1      -5.434  -9.704   8.642  0.00  0.00    +0.029 C 
ATOM     11  C   UNL     1      -5.310 -11.535  10.386  0.00  0.00    +0.012 C 
ATOM     12  C   UNL     1      -4.087 -10.883  11.066  0.00  0.00    +0.024 C 
ATOM     15  C   UNL     1      -4.093  -9.248   9.159  0.00  0.00    -0.023 C 
ATOM     16  C   UNL     1      -3.480  -9.755  10.245  0.00  0.00    -0.073 C 
ATOM     22  C   UNL     1      -2.182  -9.167  10.726  0.00  0.00    +0.039 C 
ENDROOT
BRANCH   9  13
ATOM     13  C   UNL     1      -6.922  -9.608  10.704  0.00  0.00    -0.013 C 
ATOM     18  C   UNL     1      -7.733 -10.435  11.695  0.00  0.00    +0.007 C 
ATOM     19  C   UNL     1      -7.811  -8.594   9.990  0.00  0.00    +0.007 C 
ENDBRANCH   9  13
BRANCH  10  14
ATOM     14  C   UNL     1      -5.233 -10.488   7.342  0.00  0.00    +0.092 C 
BRANCH  14   3
ATOM      3  N   UNL     1      -6.398 -10.350   6.469  0.00  0.00    -0.299 NA
ATOM      4  N   UNL     1      -7.893  -9.334   4.257  0.00  0.00    -0.312 N 
ATOM      7  N   UNL     1     -10.006  -8.561   3.494  0.00  0.00    -0.237 NA
ATOM      8  N   UNL     1      -8.944  -8.398   0.903  0.00  0.00    -0.258 NA
ATOM     20  C   UNL     1      -6.065 -10.757   5.098  0.00  0.00    +0.103 C 
ATOM     21  C   UNL     1      -6.884  -8.965   6.476  0.00  0.00    +0.103 C 
ATOM     23  C   UNL     1      -7.292 -10.670   4.185  0.00  0.00    +0.122 C 
ATOM     24  C   UNL     1      -8.138  -8.820   5.610  0.00  0.00    +0.122 C 
ATOM     26  C   UNL     1      -8.728  -8.894   3.224  0.00  0.00    +0.140 A 
ATOM     28  C   UNL     1      -8.206  -8.813   1.952  0.00  0.00    +0.154 A 
ATOM     30  C   UNL     1     -10.744  -8.146   2.446  0.00  0.00    +0.132 A 
ATOM     31  C   UNL     1     -10.223  -8.065   1.173  0.00  0.00    +0.130 A 
ENDBRANCH  14   3
ENDBRANCH  10  14
BRANCH  12  17
ATOM     17  C   UNL     1      -3.073 -11.983  11.406  0.00  0.00    +0.105 C 
BRANCH  17  25
ATOM      1  O   UNL     1      -3.824 -11.929  13.728  0.00  0.00    -0.420 OA
ATOM      5  N   UNL     1      -1.607 -12.099  13.487  0.00  0.00    -0.112 NA
ATOM      6  N   UNL     1      -1.889 -12.079  14.840  0.00  0.00    -0.107 NA
ATOM     25  C   UNL     1      -2.765 -12.009  12.877  0.00  0.00    +0.218 A 
ATOM     27  C   UNL     1      -3.194 -11.979  14.933  0.00  0.00    +0.248 A 
BRANCH  27  29
ATOM     29  C   UNL     1      -4.043 -11.917  16.088  0.00  0.00    +0.039 A 
ATOM     32  C   UNL     1      -4.719 -13.058  16.520  0.00  0.00    +0.017 A 
ATOM     33  C   UNL     1      -4.191 -10.715  16.781  0.00  0.00    +0.017 A 
ATOM     34  C   UNL     1      -5.544 -12.997  17.643  0.00  0.00    +0.046 A 
ATOM     35  C   UNL     1      -5.016 -10.654  17.904  0.00  0.00    +0.046 A 
ATOM     36  C   UNL     1      -5.692 -11.795  18.335  0.00  0.00    +0.120 A 
BRANCH  36   2
ATOM      2  O   UNL     1      -6.494 -11.736  19.433  0.00  0.00    -0.495 OA
ATOM     37  C   UNL     1      -7.693 -10.971  19.321  0.00  0.00    +0.277 C 
ENDBRANCH  36   2
ENDBRANCH  27  29
ENDBRANCH  17  25
ENDBRANCH  12  17
TORSDOF 7
ENDMDL
