MODEL 1
REMARK VINA RESULT:      -7.0      0.000      0.000
REMARK  Name = 51137936
REMARK  6 active torsions:
REMARK  status: ('A' for Active; 'I' for Inactive)
REMARK    1  A    between atoms: N_6  and  C_22
REMARK    2  A    between atoms: N_6  and  C_26
REMARK    3  A    between atoms: N_6  and  C_27
REMARK    4  A    between atoms: C_8  and  C_12
REMARK    5  A    between atoms: C_15  and  C_16
REMARK    6  A    between atoms: C_19  and  C_25
REMARK                            x       y       z     vdW  Elec       q    Type
REMARK                         _______ _______ _______ _____ _____    ______ ____
ROOT
ATOM      1  O   UNL     1      15.865   7.957  19.556  0.00  0.00    -0.420 OA
ATOM      3  N   UNL     1      15.422   6.202  18.242  0.00  0.00    -0.112 NA
ATOM      5  N   UNL     1      16.556   5.909  18.977  0.00  0.00    -0.107 NA
ATOM     12  C   UNL     1      15.054   7.406  18.613  0.00  0.00    +0.222 A 
ATOM     15  C   UNL     1      16.778   6.962  19.730  0.00  0.00    +0.248 A 
ENDROOT
BRANCH  12   8
ATOM      2  N   UNL     1      12.533   9.012  19.946  0.00  0.00    -0.314 N 
ATOM      4  N   UNL     1      12.651  10.949  21.271  0.00  0.00    -0.239 NA
ATOM      8  C   UNL     1      13.877   8.245  18.143  0.00  0.00    +0.095 C 
ATOM      9  C   UNL     1      12.567   7.450  18.183  0.00  0.00    +0.033 C 
ATOM     10  C   UNL     1      13.534   9.486  18.989  0.00  0.00    +0.119 C 
ATOM     11  C   UNL     1      12.028   7.688  19.594  0.00  0.00    +0.107 C 
ATOM     13  C   UNL     1      12.111   9.730  21.044  0.00  0.00    +0.121 A 
ATOM     14  C   UNL     1      11.150   9.146  21.852  0.00  0.00    +0.045 A 
ATOM     17  C   UNL     1      10.713   9.858  22.965  0.00  0.00    +0.024 A 
ATOM     18  C   UNL     1      12.203  11.611  22.360  0.00  0.00    +0.131 A 
ATOM     19  C   UNL     1      11.244  11.115  23.230  0.00  0.00    +0.070 A 
BRANCH  19  25
ATOM      7  N   UNL     1      10.471  12.482  25.285  0.00  0.00    -0.191 NA
ATOM     25  C   UNL     1      10.818  11.869  24.363  0.00  0.00    +0.101 C 
ENDBRANCH  19  25
ENDBRANCH  12   8
BRANCH  15  16
ATOM     16  C   UNL     1      17.812   7.220  20.688  0.00  0.00    +0.039 A 
ATOM     20  C   UNL     1      18.734   6.222  21.004  0.00  0.00    +0.015 A 
ATOM     21  C   UNL     1      17.896   8.468  21.305  0.00  0.00    +0.015 A 
ATOM     22  C   UNL     1      19.824   7.721  22.554  0.00  0.00    +0.029 A 
ATOM     23  C   UNL     1      19.741   6.473  21.938  0.00  0.00    +0.024 A 
ATOM     24  C   UNL     1      18.903   8.719  22.238  0.00  0.00    +0.024 A 
BRANCH  22   6
ATOM      6  N   UNL     1      20.842   7.974  23.497  0.00  0.00    -0.336 N 
ATOM     26  C   UNL     1      20.615   7.719  24.907  0.00  0.00    +0.129 C 
ATOM     27  C   UNL     1      22.125   8.497  23.072  0.00  0.00    +0.129 C 
ENDBRANCH  22   6
ENDBRANCH  15  16
TORSDOF 4
ENDMDL
MODEL 2
REMARK VINA RESULT:      -6.8     27.053     29.630
REMARK  Name = 51137936
REMARK  6 active torsions:
REMARK  status: ('A' for Active; 'I' for Inactive)
REMARK    1  A    between atoms: N_6  and  C_22
REMARK    2  A    between atoms: N_6  and  C_26
REMARK    3  A    between atoms: N_6  and  C_27
REMARK    4  A    between atoms: C_8  and  C_12
REMARK    5  A    between atoms: C_15  and  C_16
REMARK    6  A    between atoms: C_19  and  C_25
REMARK                            x       y       z     vdW  Elec       q    Type
REMARK                         _______ _______ _______ _____ _____    ______ ____
ROOT
ATOM      1  O   UNL     1      -3.656 -10.829  12.621  0.00  0.00    -0.420 OA
ATOM      3  N   UNL     1      -1.512 -10.465  12.095  0.00  0.00    -0.112 NA
ATOM      5  N   UNL     1      -2.296  -9.747  11.211  0.00  0.00    -0.107 NA
ATOM     12  C   UNL     1      -2.348 -11.080  12.899  0.00  0.00    +0.222 A 
ATOM     15  C   UNL     1      -3.539  -9.989  11.555  0.00  0.00    +0.248 A 
ENDROOT
BRANCH  12   8
ATOM      2  N   UNL     1      -3.467 -11.585  15.934  0.00  0.00    -0.314 N 
ATOM      4  N   UNL     1      -5.579 -12.428  16.523  0.00  0.00    -0.239 NA
ATOM      8  C   UNL     1      -2.060 -12.010  14.066  0.00  0.00    +0.095 C 
ATOM      9  C   UNL     1      -1.258 -11.304  15.165  0.00  0.00    +0.033 C 
ATOM     10  C   UNL     1      -3.281 -12.542  14.841  0.00  0.00    +0.119 C 
ATOM     11  C   UNL     1      -2.325 -10.685  16.068  0.00  0.00    +0.107 C 
ATOM     13  C   UNL     1      -4.581 -11.542  16.743  0.00  0.00    +0.121 A 
ATOM     14  C   UNL     1      -4.604 -10.580  17.739  0.00  0.00    +0.045 A 
ATOM     17  C   UNL     1      -5.722 -10.523  18.565  0.00  0.00    +0.024 A 
ATOM     18  C   UNL     1      -6.649 -12.343  17.345  0.00  0.00    +0.131 A 
ATOM     19  C   UNL     1      -6.768 -11.418  18.371  0.00  0.00    +0.070 A 
BRANCH  19  25
ATOM      7  N   UNL     1      -8.872 -11.357  19.875  0.00  0.00    -0.191 NA
ATOM     25  C   UNL     1      -7.928 -11.385  19.200  0.00  0.00    +0.101 C 
ENDBRANCH  19  25
ENDBRANCH  12   8
BRANCH  15  16
ATOM     16  C   UNL     1      -4.770  -9.515  10.993  0.00  0.00    +0.039 A 
ATOM     20  C   UNL     1      -5.966  -9.686  11.691  0.00  0.00    +0.015 A 
ATOM     21  C   UNL     1      -4.773  -8.885   9.749  0.00  0.00    +0.015 A 
ATOM     22  C   UNL     1      -7.166  -8.594   9.900  0.00  0.00    +0.029 A 
ATOM     23  C   UNL     1      -7.164  -9.224  11.144  0.00  0.00    +0.024 A 
ATOM     24  C   UNL     1      -5.970  -8.423   9.202  0.00  0.00    +0.024 A 
BRANCH  22   6
ATOM      6  N   UNL     1      -8.377  -8.128   9.348  0.00  0.00    -0.336 N 
ATOM     26  C   UNL     1      -8.374  -7.060   8.367  0.00  0.00    +0.129 C 
ATOM     27  C   UNL     1      -9.641  -8.706   9.758  0.00  0.00    +0.129 C 
ENDBRANCH  22   6
ENDBRANCH  15  16
TORSDOF 4
ENDMDL
MODEL 3
REMARK VINA RESULT:      -6.4     28.378     31.121
REMARK  Name = 51137936
REMARK  6 active torsions:
REMARK  status: ('A' for Active; 'I' for Inactive)
REMARK    1  A    between atoms: N_6  and  C_22
REMARK    2  A    between atoms: N_6  and  C_26
REMARK    3  A    between atoms: N_6  and  C_27
REMARK    4  A    between atoms: C_8  and  C_12
REMARK    5  A    between atoms: C_15  and  C_16
REMARK    6  A    between atoms: C_19  and  C_25
REMARK                            x       y       z     vdW  Elec       q    Type
REMARK                         _______ _______ _______ _____ _____    ______ ____
ROOT
ATOM      1  O   UNL     1      -7.314 -10.102  18.170  0.00  0.00    -0.420 OA
ATOM      3  N   UNL     1      -7.392 -11.519  19.899  0.00  0.00    -0.112 NA
ATOM      5  N   UNL     1      -8.673 -11.049  19.676  0.00  0.00    -0.107 NA
ATOM     12  C   UNL     1      -6.633 -10.940  18.998  0.00  0.00    +0.222 A 
ATOM     15  C   UNL     1      -8.580 -10.225  18.658  0.00  0.00    +0.248 A 
ENDROOT
BRANCH  12   8
ATOM      2  N   UNL     1      -4.631 -11.792  16.552  0.00  0.00    -0.314 N 
ATOM      4  N   UNL     1      -4.261 -10.594  14.566  0.00  0.00    -0.239 NA
ATOM      8  C   UNL     1      -5.138 -11.075  18.760  0.00  0.00    +0.095 C 
ATOM      9  C   UNL     1      -4.694 -12.541  18.785  0.00  0.00    +0.033 C 
ATOM     10  C   UNL     1      -4.611 -10.595  17.394  0.00  0.00    +0.119 C 
ATOM     11  C   UNL     1      -4.851 -13.005  17.336  0.00  0.00    +0.107 C 
ATOM     13  C   UNL     1      -4.457 -11.780  15.185  0.00  0.00    +0.121 A 
ATOM     14  C   UNL     1      -4.496 -13.000  14.531  0.00  0.00    +0.045 A 
ATOM     17  C   UNL     1      -4.321 -13.004  13.151  0.00  0.00    +0.024 A 
ATOM     18  C   UNL     1      -4.095 -10.637  13.225  0.00  0.00    +0.131 A 
ATOM     19  C   UNL     1      -4.116 -11.805  12.478  0.00  0.00    +0.070 A 
BRANCH  19  25
ATOM      7  N   UNL     1      -3.788 -11.755   9.912  0.00  0.00    -0.191 NA
ATOM     25  C   UNL     1      -3.936 -11.777  11.063  0.00  0.00    +0.101 C 
ENDBRANCH  19  25
ENDBRANCH  12   8
BRANCH  15  16
ATOM     16  C   UNL     1      -9.586  -9.450  17.993  0.00  0.00    +0.039 A 
ATOM     20  C   UNL     1     -10.936  -9.752  18.180  0.00  0.00    +0.015 A 
ATOM     21  C   UNL     1      -9.217  -8.395  17.160  0.00  0.00    +0.015 A 
ATOM     22  C   UNL     1     -11.545  -7.943  16.699  0.00  0.00    +0.029 A 
ATOM     23  C   UNL     1     -11.915  -8.998  17.533  0.00  0.00    +0.024 A 
ATOM     24  C   UNL     1     -10.196  -7.641  16.512  0.00  0.00    +0.024 A 
BRANCH  22   6
ATOM      6  N   UNL     1     -12.536  -7.182  16.046  0.00  0.00    -0.336 N 
ATOM     26  C   UNL     1     -12.173  -5.995  15.295  0.00  0.00    +0.129 C 
ATOM     27  C   UNL     1     -13.930  -7.571  16.120  0.00  0.00    +0.129 C 
ENDBRANCH  22   6
ENDBRANCH  15  16
TORSDOF 4
ENDMDL
MODEL 4
REMARK VINA RESULT:      -6.3     27.358     29.535
REMARK  Name = 51137936
REMARK  6 active torsions:
REMARK  status: ('A' for Active; 'I' for Inactive)
REMARK    1  A    between atoms: N_6  and  C_22
REMARK    2  A    between atoms: N_6  and  C_26
REMARK    3  A    between atoms: N_6  and  C_27
REMARK    4  A    between atoms: C_8  and  C_12
REMARK    5  A    between atoms: C_15  and  C_16
REMARK    6  A    between atoms: C_19  and  C_25
REMARK                            x       y       z     vdW  Elec       q    Type
REMARK                         _______ _______ _______ _____ _____    ______ ____
ROOT
ATOM      1  O   UNL     1      -3.575 -10.876  14.679  0.00  0.00    -0.420 OA
ATOM      3  N   UNL     1      -1.519 -10.938  15.557  0.00  0.00    -0.112 NA
ATOM      5  N   UNL     1      -2.420 -10.762  16.592  0.00  0.00    -0.107 NA
ATOM     12  C   UNL     1      -2.238 -10.999  14.461  0.00  0.00    +0.222 A 
ATOM     15  C   UNL     1      -3.607 -10.731  16.033  0.00  0.00    +0.248 A 
ENDROOT
BRANCH  12   8
ATOM      2  N   UNL     1      -3.549 -10.802  11.468  0.00  0.00    -0.314 N 
ATOM      4  N   UNL     1      -4.286  -8.849  10.390  0.00  0.00    -0.239 NA
ATOM      8  C   UNL     1      -1.791 -11.184  13.020  0.00  0.00    +0.095 C 
ATOM      9  C   UNL     1      -2.272 -12.521  12.448  0.00  0.00    +0.033 C 
ATOM     10  C   UNL     1      -2.337 -10.172  11.994  0.00  0.00    +0.119 C 
ATOM     11  C   UNL     1      -3.648 -12.205  11.861  0.00  0.00    +0.107 C 
ATOM     13  C   UNL     1      -4.483 -10.152  10.690  0.00  0.00    +0.121 A 
ATOM     14  C   UNL     1      -5.575 -10.889  10.264  0.00  0.00    +0.045 A 
ATOM     17  C   UNL     1      -6.527 -10.248   9.478  0.00  0.00    +0.024 A 
ATOM     18  C   UNL     1      -5.231  -8.259   9.624  0.00  0.00    +0.131 A 
ATOM     19  C   UNL     1      -6.359  -8.908   9.147  0.00  0.00    +0.070 A 
BRANCH  19  25
ATOM      7  N   UNL     1      -8.098  -7.666   7.690  0.00  0.00    -0.191 NA
ATOM     25  C   UNL     1      -7.318  -8.222   8.344  0.00  0.00    +0.101 C 
ENDBRANCH  19  25
ENDBRANCH  12   8
BRANCH  15  16
ATOM     16  C   UNL     1      -4.907 -10.573  16.616  0.00  0.00    +0.039 A 
ATOM     20  C   UNL     1      -5.938  -9.996  15.874  0.00  0.00    +0.015 A 
ATOM     21  C   UNL     1      -5.141 -10.995  17.924  0.00  0.00    +0.015 A 
ATOM     22  C   UNL     1      -7.437 -10.264  17.750  0.00  0.00    +0.029 A 
ATOM     23  C   UNL     1      -7.203  -9.841  16.441  0.00  0.00    +0.024 A 
ATOM     24  C   UNL     1      -6.406 -10.840  18.492  0.00  0.00    +0.024 A 
BRANCH  22   6
ATOM      6  N   UNL     1      -8.716 -10.107  18.323  0.00  0.00    -0.336 N 
ATOM     26  C   UNL     1      -9.661  -9.162  17.760  0.00  0.00    +0.129 C 
ATOM     27  C   UNL     1      -9.101 -10.883  19.484  0.00  0.00    +0.129 C 
ENDBRANCH  22   6
ENDBRANCH  15  16
TORSDOF 4
ENDMDL
MODEL 5
REMARK VINA RESULT:      -6.3     27.377     29.930
REMARK  Name = 51137936
REMARK  6 active torsions:
REMARK  status: ('A' for Active; 'I' for Inactive)
REMARK    1  A    between atoms: N_6  and  C_22
REMARK    2  A    between atoms: N_6  and  C_26
REMARK    3  A    between atoms: N_6  and  C_27
REMARK    4  A    between atoms: C_8  and  C_12
REMARK    5  A    between atoms: C_15  and  C_16
REMARK    6  A    between atoms: C_19  and  C_25
REMARK                            x       y       z     vdW  Elec       q    Type
REMARK                         _______ _______ _______ _____ _____    ______ ____
ROOT
ATOM      1  O   UNL     1      -3.848 -10.614  14.739  0.00  0.00    -0.420 OA
ATOM      3  N   UNL     1      -2.357 -11.160  16.315  0.00  0.00    -0.112 NA
ATOM      5  N   UNL     1      -3.555 -10.872  16.943  0.00  0.00    -0.107 NA
ATOM     12  C   UNL     1      -2.575 -10.997  15.031  0.00  0.00    +0.222 A 
ATOM     15  C   UNL     1      -4.396 -10.558  15.984  0.00  0.00    +0.248 A 
ENDROOT
BRANCH  12   8
ATOM      2  N   UNL     1      -2.764 -11.315  11.779  0.00  0.00    -0.314 N 
ATOM      4  N   UNL     1      -3.437  -9.665  10.249  0.00  0.00    -0.239 NA
ATOM      8  C   UNL     1      -1.624 -11.172  13.859  0.00  0.00    +0.095 C 
ATOM      9  C   UNL     1      -1.605 -12.621  13.360  0.00  0.00    +0.033 C 
ATOM     10  C   UNL     1      -1.959 -10.388  12.576  0.00  0.00    +0.119 C 
ATOM     11  C   UNL     1      -2.721 -12.673  12.316  0.00  0.00    +0.107 C 
ATOM     13  C   UNL     1      -3.472 -10.955  10.653  0.00  0.00    +0.121 A 
ATOM     14  C   UNL     1      -4.181 -11.952  10.004  0.00  0.00    +0.045 A 
ATOM     17  C   UNL     1      -4.901 -11.604   8.866  0.00  0.00    +0.024 A 
ATOM     18  C   UNL     1      -4.148  -9.364   9.139  0.00  0.00    +0.131 A 
ATOM     19  C   UNL     1      -4.889 -10.288   8.418  0.00  0.00    +0.070 A 
BRANCH  19  25
ATOM      7  N   UNL     1      -6.211  -9.584   6.309  0.00  0.00    -0.191 NA
ATOM     25  C   UNL     1      -5.618  -9.900   7.255  0.00  0.00    +0.101 C 
ENDBRANCH  19  25
ENDBRANCH  12   8
BRANCH  15  16
ATOM     16  C   UNL     1      -5.776 -10.173  16.045  0.00  0.00    +0.039 A 
ATOM     20  C   UNL     1      -6.360  -9.864  17.274  0.00  0.00    +0.015 A 
ATOM     21  C   UNL     1      -6.534 -10.108  14.877  0.00  0.00    +0.015 A 
ATOM     22  C   UNL     1      -8.461  -9.425  16.164  0.00  0.00    +0.029 A 
ATOM     23  C   UNL     1      -7.702  -9.490  17.333  0.00  0.00    +0.024 A 
ATOM     24  C   UNL     1      -7.877  -9.734  14.936  0.00  0.00    +0.024 A 
BRANCH  22   6
ATOM      6  N   UNL     1      -9.818  -9.047  16.225  0.00  0.00    -0.336 N 
ATOM     26  C   UNL     1     -10.829  -9.830  15.542  0.00  0.00    +0.129 C 
ATOM     27  C   UNL     1     -10.219  -7.868  16.967  0.00  0.00    +0.129 C 
ENDBRANCH  22   6
ENDBRANCH  15  16
TORSDOF 4
ENDMDL
MODEL 6
REMARK VINA RESULT:      -6.2     27.400     31.730
REMARK  Name = 51137936
REMARK  6 active torsions:
REMARK  status: ('A' for Active; 'I' for Inactive)
REMARK    1  A    between atoms: N_6  and  C_22
REMARK    2  A    between atoms: N_6  and  C_26
REMARK    3  A    between atoms: N_6  and  C_27
REMARK    4  A    between atoms: C_8  and  C_12
REMARK    5  A    between atoms: C_15  and  C_16
REMARK    6  A    between atoms: C_19  and  C_25
REMARK                            x       y       z     vdW  Elec       q    Type
REMARK                         _______ _______ _______ _____ _____    ______ ____
ROOT
ATOM      1  O   UNL     1     -14.349   7.016  33.414  0.00  0.00    -0.420 OA
ATOM      3  N   UNL     1     -15.960   7.618  31.984  0.00  0.00    -0.112 NA
ATOM      5  N   UNL     1     -14.931   8.536  31.878  0.00  0.00    -0.107 NA
ATOM     12  C   UNL     1     -15.576   6.750  32.891  0.00  0.00    +0.222 A 
ATOM     15  C   UNL     1     -14.013   8.145  32.731  0.00  0.00    +0.248 A 
ENDROOT
BRANCH  12   8
ATOM      2  N   UNL     1     -16.029   3.630  32.011  0.00  0.00    -0.314 N 
ATOM      4  N   UNL     1     -14.396   1.942  31.954  0.00  0.00    -0.239 NA
ATOM      8  C   UNL     1     -16.298   5.522  33.422  0.00  0.00    +0.095 C 
ATOM      9  C   UNL     1     -17.601   5.260  32.659  0.00  0.00    +0.033 C 
ATOM     10  C   UNL     1     -15.561   4.176  33.286  0.00  0.00    +0.119 C 
ATOM     11  C   UNL     1     -17.178   4.367  31.492  0.00  0.00    +0.107 C 
ATOM     13  C   UNL     1     -15.460   2.546  31.378  0.00  0.00    +0.121 A 
ATOM     14  C   UNL     1     -16.023   2.145  30.178  0.00  0.00    +0.045 A 
ATOM     17  C   UNL     1     -15.460   1.052  29.527  0.00  0.00    +0.024 A 
ATOM     18  C   UNL     1     -13.876   0.884  31.293  0.00  0.00    +0.131 A 
ATOM     19  C   UNL     1     -14.366   0.404  30.089  0.00  0.00    +0.070 A 
BRANCH  19  25
ATOM      7  N   UNL     1     -13.278  -1.632  28.921  0.00  0.00    -0.191 NA
ATOM     25  C   UNL     1     -13.766  -0.719  29.445  0.00  0.00    +0.101 C 
ENDBRANCH  19  25
ENDBRANCH  12   8
BRANCH  15  16
ATOM     16  C   UNL     1     -12.735   8.713  33.048  0.00  0.00    +0.039 A 
ATOM     20  C   UNL     1     -11.815   8.971  32.031  0.00  0.00    +0.015 A 
ATOM     21  C   UNL     1     -12.411   9.008  34.372  0.00  0.00    +0.015 A 
ATOM     22  C   UNL     1     -10.249   9.818  33.664  0.00  0.00    +0.029 A 
ATOM     23  C   UNL     1     -10.572   9.523  32.339  0.00  0.00    +0.024 A 
ATOM     24  C   UNL     1     -11.168   9.560  34.680  0.00  0.00    +0.024 A 
BRANCH  22   6
ATOM      6  N   UNL     1      -8.991  10.376  33.974  0.00  0.00    -0.336 N 
ATOM     26  C   UNL     1      -8.271   9.949  35.158  0.00  0.00    +0.129 C 
ATOM     27  C   UNL     1      -8.405  11.387  33.117  0.00  0.00    +0.129 C 
ENDBRANCH  22   6
ENDBRANCH  15  16
TORSDOF 4
ENDMDL
MODEL 7
REMARK VINA RESULT:      -6.2     27.574     30.330
REMARK  Name = 51137936
REMARK  6 active torsions:
REMARK  status: ('A' for Active; 'I' for Inactive)
REMARK    1  A    between atoms: N_6  and  C_22
REMARK    2  A    between atoms: N_6  and  C_26
REMARK    3  A    between atoms: N_6  and  C_27
REMARK    4  A    between atoms: C_8  and  C_12
REMARK    5  A    between atoms: C_15  and  C_16
REMARK    6  A    between atoms: C_19  and  C_25
REMARK                            x       y       z     vdW  Elec       q    Type
REMARK                         _______ _______ _______ _____ _____    ______ ____
ROOT
ATOM      1  O   UNL     1      -8.014 -11.168  17.688  0.00  0.00    -0.420 OA
ATOM      3  N   UNL     1      -8.446 -10.914  19.868  0.00  0.00    -0.112 NA
ATOM      5  N   UNL     1      -7.078 -10.821  19.691  0.00  0.00    -0.107 NA
ATOM     12  C   UNL     1      -8.951 -11.116  18.673  0.00  0.00    +0.222 A 
ATOM     15  C   UNL     1      -6.871 -10.975  18.403  0.00  0.00    +0.248 A 
ENDROOT
BRANCH  12   8
ATOM      2  N   UNL     1     -11.287  -9.358  17.202  0.00  0.00    -0.314 N 
ATOM      4  N   UNL     1     -11.317  -8.673  14.955  0.00  0.00    -0.239 NA
ATOM      8  C   UNL     1     -10.400 -11.295  18.253  0.00  0.00    +0.095 C 
ATOM      9  C   UNL     1     -11.358 -10.582  19.213  0.00  0.00    +0.033 C 
ATOM     10  C   UNL     1     -10.801 -10.703  16.888  0.00  0.00    +0.119 C 
ATOM     11  C   UNL     1     -11.484  -9.172  18.637  0.00  0.00    +0.107 C 
ATOM     13  C   UNL     1     -11.537  -8.386  16.258  0.00  0.00    +0.121 A 
ATOM     14  C   UNL     1     -12.001  -7.164  16.714  0.00  0.00    +0.045 A 
ATOM     17  C   UNL     1     -12.258  -6.172  15.773  0.00  0.00    +0.024 A 
ATOM     18  C   UNL     1     -11.578  -7.686  14.069  0.00  0.00    +0.131 A 
ATOM     19  C   UNL     1     -12.045  -6.430  14.424  0.00  0.00    +0.070 A 
BRANCH  19  25
ATOM      7  N   UNL     1     -12.505  -4.622  12.631  0.00  0.00    -0.191 NA
ATOM     25  C   UNL     1     -12.298  -5.433  13.435  0.00  0.00    +0.101 C 
ENDBRANCH  19  25
ENDBRANCH  12   8
BRANCH  15  16
ATOM     16  C   UNL     1      -5.652 -10.972  17.649  0.00  0.00    +0.039 A 
ATOM     20  C   UNL     1      -4.469 -11.425  18.234  0.00  0.00    +0.015 A 
ATOM     21  C   UNL     1      -5.648 -10.516  16.331  0.00  0.00    +0.015 A 
ATOM     22  C   UNL     1      -3.279 -10.965  16.182  0.00  0.00    +0.029 A 
ATOM     23  C   UNL     1      -3.283 -11.421  17.500  0.00  0.00    +0.024 A 
ATOM     24  C   UNL     1      -4.461 -10.512  15.597  0.00  0.00    +0.024 A 
BRANCH  22   6
ATOM      6  N   UNL     1      -2.079 -10.962  15.442  0.00  0.00    -0.336 N 
ATOM     26  C   UNL     1      -1.823 -11.994  14.456  0.00  0.00    +0.129 C 
ATOM     27  C   UNL     1      -1.083  -9.931  15.660  0.00  0.00    +0.129 C 
ENDBRANCH  22   6
ENDBRANCH  15  16
TORSDOF 4
ENDMDL
MODEL 8
REMARK VINA RESULT:      -6.2     27.724     31.645
REMARK  Name = 51137936
REMARK  6 active torsions:
REMARK  status: ('A' for Active; 'I' for Inactive)
REMARK    1  A    between atoms: N_6  and  C_22
REMARK    2  A    between atoms: N_6  and  C_26
REMARK    3  A    between atoms: N_6  and  C_27
REMARK    4  A    between atoms: C_8  and  C_12
REMARK    5  A    between atoms: C_15  and  C_16
REMARK    6  A    between atoms: C_19  and  C_25
REMARK                            x       y       z     vdW  Elec       q    Type
REMARK                         _______ _______ _______ _____ _____    ______ ____
ROOT
ATOM      1  O   UNL     1      -9.089  -8.216   8.466  0.00  0.00    -0.420 OA
ATOM      3  N   UNL     1      -7.905  -7.775   6.620  0.00  0.00    -0.112 NA
ATOM      5  N   UNL     1      -8.617  -6.637   6.952  0.00  0.00    -0.107 NA
ATOM     12  C   UNL     1      -8.212  -8.670   7.530  0.00  0.00    +0.222 A 
ATOM     15  C   UNL     1      -9.294  -6.941   8.035  0.00  0.00    +0.248 A 
ENDROOT
BRANCH  12   8
ATOM      2  N   UNL     1      -5.778 -10.276   9.018  0.00  0.00    -0.314 N 
ATOM      4  N   UNL     1      -5.490 -10.546  11.333  0.00  0.00    -0.239 NA
ATOM      8  C   UNL     1      -7.732 -10.104   7.677  0.00  0.00    +0.095 C 
ATOM      9  C   UNL     1      -6.518 -10.386   6.784  0.00  0.00    +0.033 C 
ATOM     10  C   UNL     1      -7.220 -10.522   9.068  0.00  0.00    +0.119 C 
ATOM     11  C   UNL     1      -5.318 -10.016   7.656  0.00  0.00    +0.107 C 
ATOM     13  C   UNL     1      -4.950 -10.294  10.119  0.00  0.00    +0.121 A 
ATOM     14  C   UNL     1      -3.605 -10.048   9.905  0.00  0.00    +0.045 A 
ATOM     17  C   UNL     1      -2.756 -10.063  11.007  0.00  0.00    +0.024 A 
ATOM     18  C   UNL     1      -4.636 -10.553  12.381  0.00  0.00    +0.131 A 
ATOM     19  C   UNL     1      -3.274 -10.320  12.272  0.00  0.00    +0.070 A 
BRANCH  19  25
ATOM      7  N   UNL     1      -1.744 -10.357  14.358  0.00  0.00    -0.191 NA
ATOM     25  C   UNL     1      -2.429 -10.340  13.422  0.00  0.00    +0.101 C 
ENDBRANCH  19  25
ENDBRANCH  12   8
BRANCH  15  16
ATOM     16  C   UNL     1     -10.198  -6.152   8.820  0.00  0.00    +0.039 A 
ATOM     20  C   UNL     1     -11.144  -6.777   9.633  0.00  0.00    +0.015 A 
ATOM     21  C   UNL     1     -10.132  -4.760   8.772  0.00  0.00    +0.015 A 
ATOM     22  C   UNL     1     -11.957  -4.617  10.348  0.00  0.00    +0.029 A 
ATOM     23  C   UNL     1     -12.023  -6.010  10.397  0.00  0.00    +0.024 A 
ATOM     24  C   UNL     1     -11.011  -3.992   9.536  0.00  0.00    +0.024 A 
BRANCH  22   6
ATOM      6  N   UNL     1     -12.846  -3.842  11.121  0.00  0.00    -0.336 N 
ATOM     26  C   UNL     1     -12.604  -3.640  12.536  0.00  0.00    +0.129 C 
ATOM     27  C   UNL     1     -14.018  -3.243  10.512  0.00  0.00    +0.129 C 
ENDBRANCH  22   6
ENDBRANCH  15  16
TORSDOF 4
ENDMDL
MODEL 9
REMARK VINA RESULT:      -6.1     29.080     32.274
REMARK  Name = 51137936
REMARK  6 active torsions:
REMARK  status: ('A' for Active; 'I' for Inactive)
REMARK    1  A    between atoms: N_6  and  C_22
REMARK    2  A    between atoms: N_6  and  C_26
REMARK    3  A    between atoms: N_6  and  C_27
REMARK    4  A    between atoms: C_8  and  C_12
REMARK    5  A    between atoms: C_15  and  C_16
REMARK    6  A    between atoms: C_19  and  C_25
REMARK                            x       y       z     vdW  Elec       q    Type
REMARK                         _______ _______ _______ _____ _____    ______ ____
ROOT
ATOM      1  O   UNL     1     -14.695   6.841  34.368  0.00  0.00    -0.420 OA
ATOM      3  N   UNL     1     -15.493   7.901  32.567  0.00  0.00    -0.112 NA
ATOM      5  N   UNL     1     -14.368   8.579  32.997  0.00  0.00    -0.107 NA
ATOM     12  C   UNL     1     -15.646   6.895  33.396  0.00  0.00    +0.222 A 
ATOM     15  C   UNL     1     -13.935   7.926  34.050  0.00  0.00    +0.248 A 
ENDROOT
BRANCH  12   8
ATOM      2  N   UNL     1     -16.243   4.047  31.896  0.00  0.00    -0.314 N 
ATOM      4  N   UNL     1     -15.023   2.055  32.140  0.00  0.00    -0.239 NA
ATOM      8  C   UNL     1     -16.711   5.811  33.418  0.00  0.00    +0.095 C 
ATOM      9  C   UNL     1     -17.644   5.915  32.206  0.00  0.00    +0.033 C 
ATOM     10  C   UNL     1     -16.216   4.355  33.327  0.00  0.00    +0.119 C 
ATOM     11  C   UNL     1     -16.962   5.065  31.134  0.00  0.00    +0.107 C 
ATOM     13  C   UNL     1     -15.665   2.930  31.334  0.00  0.00    +0.121 A 
ATOM     14  C   UNL     1     -15.783   2.777  29.963  0.00  0.00    +0.045 A 
ATOM     17  C   UNL     1     -15.205   1.654  29.380  0.00  0.00    +0.024 A 
ATOM     18  C   UNL     1     -14.474   0.975  31.540  0.00  0.00    +0.131 A 
ATOM     19  C   UNL     1     -14.537   0.731  30.177  0.00  0.00    +0.070 A 
BRANCH  19  25
ATOM      7  N   UNL     1     -13.442  -1.375  29.147  0.00  0.00    -0.191 NA
ATOM     25  C   UNL     1     -13.934  -0.431  29.609  0.00  0.00    +0.101 C 
ENDBRANCH  19  25
ENDBRANCH  12   8
BRANCH  15  16
ATOM     16  C   UNL     1     -12.808   8.173  34.901  0.00  0.00    +0.039 A 
ATOM     20  C   UNL     1     -11.868   9.143  34.549  0.00  0.00    +0.015 A 
ATOM     21  C   UNL     1     -12.649   7.444  36.079  0.00  0.00    +0.015 A 
ATOM     22  C   UNL     1     -10.614   8.653  36.555  0.00  0.00    +0.029 A 
ATOM     23  C   UNL     1     -10.771   9.383  35.377  0.00  0.00    +0.024 A 
ATOM     24  C   UNL     1     -11.552   7.684  36.907  0.00  0.00    +0.024 A 
BRANCH  22   6
ATOM      6  N   UNL     1      -9.504   8.897  37.391  0.00  0.00    -0.336 N 
ATOM     26  C   UNL     1      -8.292   9.480  36.849  0.00  0.00    +0.129 C 
ATOM     27  C   UNL     1      -9.558   8.563  38.800  0.00  0.00    +0.129 C 
ENDBRANCH  22   6
ENDBRANCH  15  16
TORSDOF 4
ENDMDL
MODEL 10
REMARK VINA RESULT:      -6.1     31.169     32.647
REMARK  Name = 51137936
REMARK  6 active torsions:
REMARK  status: ('A' for Active; 'I' for Inactive)
REMARK    1  A    between atoms: N_6  and  C_22
REMARK    2  A    between atoms: N_6  and  C_26
REMARK    3  A    between atoms: N_6  and  C_27
REMARK    4  A    between atoms: C_8  and  C_12
REMARK    5  A    between atoms: C_15  and  C_16
REMARK    6  A    between atoms: C_19  and  C_25
REMARK                            x       y       z     vdW  Elec       q    Type
REMARK                         _______ _______ _______ _____ _____    ______ ____
ROOT
ATOM      1  O   UNL     1     -11.955  -4.610  10.184  0.00  0.00    -0.420 OA
ATOM      3  N   UNL     1     -14.032  -4.088   9.536  0.00  0.00    -0.112 NA
ATOM      5  N   UNL     1     -13.440  -4.820   8.524  0.00  0.00    -0.107 NA
ATOM     12  C   UNL     1     -13.129  -3.990  10.484  0.00  0.00    +0.222 A 
ATOM     15  C   UNL     1     -12.230  -5.103   8.945  0.00  0.00    +0.248 A 
ENDROOT
BRANCH  12   8
ATOM      2  N   UNL     1     -13.152  -4.831  13.647  0.00  0.00    -0.314 N 
ATOM      4  N   UNL     1     -11.360  -5.738  14.867  0.00  0.00    -0.239 NA
ATOM      8  C   UNL     1     -13.214  -3.297  11.834  0.00  0.00    +0.095 C 
ATOM      9  C   UNL     1     -14.613  -3.427  12.447  0.00  0.00    +0.033 C 
ATOM     10  C   UNL     1     -12.313  -3.853  12.953  0.00  0.00    +0.119 C 
ATOM     11  C   UNL     1     -14.552  -4.729  13.246  0.00  0.00    +0.107 C 
ATOM     13  C   UNL     1     -12.680  -5.736  14.574  0.00  0.00    +0.121 A 
ATOM     14  C   UNL     1     -13.603  -6.593  15.149  0.00  0.00    +0.045 A 
ATOM     17  C   UNL     1     -13.143  -7.512  16.087  0.00  0.00    +0.024 A 
ATOM     18  C   UNL     1     -10.949  -6.645  15.781  0.00  0.00    +0.131 A 
ATOM     19  C   UNL     1     -11.793  -7.544  16.415  0.00  0.00    +0.070 A 
BRANCH  19  25
ATOM      7  N   UNL     1     -10.881  -9.235  18.148  0.00  0.00    -0.191 NA
ATOM     25  C   UNL     1     -11.290  -8.476  17.371  0.00  0.00    +0.101 C 
ENDBRANCH  19  25
ENDBRANCH  12   8
BRANCH  15  16
ATOM     16  C   UNL     1     -11.172  -5.838   8.314  0.00  0.00    +0.039 A 
ATOM     20  C   UNL     1     -11.475  -6.849   7.401  0.00  0.00    +0.015 A 
ATOM     21  C   UNL     1      -9.843  -5.542   8.613  0.00  0.00    +0.015 A 
ATOM     22  C   UNL     1      -9.116  -7.268   7.086  0.00  0.00    +0.029 A 
ATOM     23  C   UNL     1     -10.446  -7.564   6.787  0.00  0.00    +0.024 A 
ATOM     24  C   UNL     1      -8.814  -6.257   7.999  0.00  0.00    +0.024 A 
BRANCH  22   6
ATOM      6  N   UNL     1      -8.077  -7.991   6.466  0.00  0.00    -0.336 N 
ATOM     26  C   UNL     1      -7.882  -7.909   5.031  0.00  0.00    +0.129 C 
ATOM     27  C   UNL     1      -7.194  -8.831   7.251  0.00  0.00    +0.129 C 
ENDBRANCH  22   6
ENDBRANCH  15  16
TORSDOF 4
ENDMDL
