MODEL 1
REMARK VINA RESULT:      -8.1      0.000      0.000
REMARK  Name = 11941510
REMARK  5 active torsions:
REMARK  status: ('A' for Active; 'I' for Inactive)
REMARK    1  A    between atoms: O_3  and  C_26
REMARK    2  A    between atoms: O_3  and  C_27
REMARK    3  A    between atoms: N_5  and  C_8
REMARK    4  A    between atoms: C_17  and  C_19
REMARK    5  A    between atoms: C_20  and  C_21
REMARK                            x       y       z     vdW  Elec       q    Type
REMARK                         _______ _______ _______ _____ _____    ______ ____
ROOT
ATOM      1  O   UNL     1      10.974   8.172  18.823  0.00  0.00    -0.273 OA
ATOM      2  O   UNL     1      14.961   9.801  21.913  0.00  0.00    -0.270 OA
ATOM      4  N   UNL     1      12.885   8.911  21.469  0.00  0.00    -0.284 N 
ATOM      6  N   UNL     1      13.177   7.632  18.809  0.00  0.00    -0.283 N 
ATOM      7  C   UNL     1      12.017   7.855  20.974  0.00  0.00    +0.179 C 
ATOM      8  C   UNL     1      10.645   8.152  21.609  0.00  0.00    +0.082 C 
ATOM      9  C   UNL     1      10.983   9.014  22.823  0.00  0.00    +0.040 C 
ATOM     10  C   UNL     1      12.155   9.838  22.321  0.00  0.00    +0.110 C 
ATOM     11  C   UNL     1      12.006   7.948  19.460  0.00  0.00    +0.239 C 
ATOM     12  C   UNL     1      14.261   8.944  21.371  0.00  0.00    +0.249 C 
ATOM     13  C   UNL     1      14.941   7.897  20.566  0.00  0.00    +0.059 A 
ATOM     14  C   UNL     1      14.453   7.384  19.355  0.00  0.00    +0.046 A 
ATOM     15  C   UNL     1      16.232   7.540  20.997  0.00  0.00    +0.022 A 
ATOM     16  C   UNL     1      15.298   6.579  18.570  0.00  0.00    +0.024 A 
ATOM     17  C   UNL     1      17.038   6.702  20.229  0.00  0.00    -0.024 A 
ATOM     18  C   UNL     1      16.576   6.231  19.008  0.00  0.00    +0.010 A 
ATOM     30  H   UNL     1      13.087   7.471  17.808  0.00  0.00    +0.155 HD
ENDROOT
BRANCH   8   5
ATOM      5  N   UNL     1       9.935   6.954  21.964  0.00  0.00    -0.325 NA
ATOM     28  H   UNL     1       9.710   6.963  22.958  0.00  0.00    +0.119 HD
ATOM     29  H   UNL     1      10.524   6.135  21.818  0.00  0.00    +0.119 HD
ENDBRANCH   8   5
BRANCH  17  19
ATOM     19  C   UNL     1      18.369   6.343  20.691  0.00  0.00    +0.008 C 
ATOM     20  C   UNL     1      19.192   5.453  20.089  0.00  0.00    +0.008 C 
BRANCH  20  21
ATOM     21  C   UNL     1      20.548   5.103  20.547  0.00  0.00    -0.025 A 
ATOM     22  C   UNL     1      20.846   3.783  20.839  0.00  0.00    +0.011 A 
ATOM     23  C   UNL     1      21.498   6.104  20.677  0.00  0.00    +0.011 A 
ATOM     24  C   UNL     1      22.129   3.453  21.274  0.00  0.00    +0.046 A 
ATOM     25  C   UNL     1      22.782   5.773  21.111  0.00  0.00    +0.046 A 
ATOM     26  C   UNL     1      23.097   4.448  21.410  0.00  0.00    +0.120 A 
BRANCH  26   3
ATOM      3  O   UNL     1      24.350   4.125  21.835  0.00  0.00    -0.495 OA
ATOM     27  C   UNL     1      24.627   2.742  22.048  0.00  0.00    +0.277 C 
ENDBRANCH  26   3
ENDBRANCH  20  21
ENDBRANCH  17  19
TORSDOF 4
ENDMDL
MODEL 2
REMARK VINA RESULT:      -7.2     26.682     30.939
REMARK  Name = 11941510
REMARK  5 active torsions:
REMARK  status: ('A' for Active; 'I' for Inactive)
REMARK    1  A    between atoms: O_3  and  C_26
REMARK    2  A    between atoms: O_3  and  C_27
REMARK    3  A    between atoms: N_5  and  C_8
REMARK    4  A    between atoms: C_17  and  C_19
REMARK    5  A    between atoms: C_20  and  C_21
REMARK                            x       y       z     vdW  Elec       q    Type
REMARK                         _______ _______ _______ _____ _____    ______ ____
ROOT
ATOM      1  O   UNL     1      -0.703 -10.963  15.396  0.00  0.00    -0.273 OA
ATOM      2  O   UNL     1      -5.804  -9.772  14.587  0.00  0.00    -0.270 OA
ATOM      4  N   UNL     1      -3.804 -10.822  14.146  0.00  0.00    -0.284 N 
ATOM      6  N   UNL     1      -2.488 -11.059  16.793  0.00  0.00    -0.283 N 
ATOM      7  C   UNL     1      -2.763 -11.789  14.453  0.00  0.00    +0.179 C 
ATOM      8  C   UNL     1      -2.004 -11.977  13.126  0.00  0.00    +0.082 C 
ATOM      9  C   UNL     1      -3.005 -11.525  12.065  0.00  0.00    +0.040 C 
ATOM     10  C   UNL     1      -3.723 -10.383  12.760  0.00  0.00    +0.110 C 
ATOM     11  C   UNL     1      -1.904 -11.197  15.554  0.00  0.00    +0.239 C 
ATOM     12  C   UNL     1      -4.884 -10.509  14.945  0.00  0.00    +0.249 C 
ATOM     13  C   UNL     1      -4.945 -11.083  16.313  0.00  0.00    +0.059 A 
ATOM     14  C   UNL     1      -3.837 -11.240  17.160  0.00  0.00    +0.046 A 
ATOM     15  C   UNL     1      -6.237 -11.324  16.816  0.00  0.00    +0.022 A 
ATOM     16  C   UNL     1      -4.056 -11.568  18.510  0.00  0.00    +0.024 A 
ATOM     17  C   UNL     1      -6.431 -11.695  18.145  0.00  0.00    -0.024 A 
ATOM     18  C   UNL     1      -5.342 -11.805  18.997  0.00  0.00    +0.010 A 
ATOM     30  H   UNL     1      -1.841 -10.888  17.560  0.00  0.00    +0.155 HD
ENDROOT
BRANCH   8   5
ATOM      5  N   UNL     1      -1.566 -13.331  12.931  0.00  0.00    -0.325 NA
ATOM     28  H   UNL     1      -2.249 -13.842  12.372  0.00  0.00    +0.119 HD
ATOM     29  H   UNL     1      -1.516 -13.821  13.824  0.00  0.00    +0.119 HD
ENDBRANCH   8   5
BRANCH  17  19
ATOM     19  C   UNL     1      -7.775 -11.941  18.646  0.00  0.00    +0.008 C 
ATOM     20  C   UNL     1      -8.518 -11.057  19.352  0.00  0.00    +0.008 C 
BRANCH  20  21
ATOM     21  C   UNL     1      -9.887 -11.299  19.843  0.00  0.00    -0.025 A 
ATOM     22  C   UNL     1     -10.793 -10.253  19.867  0.00  0.00    +0.011 A 
ATOM     23  C   UNL     1     -10.237 -12.568  20.273  0.00  0.00    +0.011 A 
ATOM     24  C   UNL     1     -12.088 -10.481  20.334  0.00  0.00    +0.046 A 
ATOM     25  C   UNL     1     -11.532 -12.797  20.739  0.00  0.00    +0.046 A 
ATOM     26  C   UNL     1     -12.457 -11.754  20.770  0.00  0.00    +0.120 A 
BRANCH  26   3
ATOM      3  O   UNL     1     -13.721 -11.977  21.225  0.00  0.00    -0.495 OA
ATOM     27  C   UNL     1     -13.876 -12.197  22.626  0.00  0.00    +0.277 C 
ENDBRANCH  26   3
ENDBRANCH  20  21
ENDBRANCH  17  19
TORSDOF 4
ENDMDL
MODEL 3
REMARK VINA RESULT:      -6.9     26.941     29.800
REMARK  Name = 11941510
REMARK  5 active torsions:
REMARK  status: ('A' for Active; 'I' for Inactive)
REMARK    1  A    between atoms: O_3  and  C_26
REMARK    2  A    between atoms: O_3  and  C_27
REMARK    3  A    between atoms: N_5  and  C_8
REMARK    4  A    between atoms: C_17  and  C_19
REMARK    5  A    between atoms: C_20  and  C_21
REMARK                            x       y       z     vdW  Elec       q    Type
REMARK                         _______ _______ _______ _____ _____    ______ ____
ROOT
ATOM      1  O   UNL     1      -3.360 -11.803  19.582  0.00  0.00    -0.273 OA
ATOM      2  O   UNL     1      -6.163 -13.343  15.355  0.00  0.00    -0.270 OA
ATOM      4  N   UNL     1      -5.838 -12.328  17.395  0.00  0.00    -0.284 N 
ATOM      6  N   UNL     1      -2.993 -11.491  17.365  0.00  0.00    -0.283 N 
ATOM      7  C   UNL     1      -5.290 -11.276  18.236  0.00  0.00    +0.179 C 
ATOM      8  C   UNL     1      -6.126 -11.338  19.528  0.00  0.00    +0.082 C 
ATOM      9  C   UNL     1      -7.412 -12.041  19.099  0.00  0.00    +0.040 C 
ATOM     10  C   UNL     1      -6.910 -13.041  18.075  0.00  0.00    +0.110 C 
ATOM     11  C   UNL     1      -3.823 -11.590  18.459  0.00  0.00    +0.239 C 
ATOM     12  C   UNL     1      -5.580 -12.511  16.052  0.00  0.00    +0.249 C 
ATOM     13  C   UNL     1      -4.542 -11.668  15.407  0.00  0.00    +0.059 A 
ATOM     14  C   UNL     1      -3.333 -11.294  16.011  0.00  0.00    +0.046 A 
ATOM     15  C   UNL     1      -4.751 -11.380  14.045  0.00  0.00    +0.022 A 
ATOM     16  C   UNL     1      -2.333 -10.701  15.219  0.00  0.00    +0.024 A 
ATOM     17  C   UNL     1      -3.766 -10.749  13.287  0.00  0.00    -0.024 A 
ATOM     18  C   UNL     1      -2.551 -10.420  13.871  0.00  0.00    +0.010 A 
ATOM     30  H   UNL     1      -1.997 -11.473  17.577  0.00  0.00    +0.155 HD
ENDROOT
BRANCH   8   5
ATOM      5  N   UNL     1      -6.369 -10.037  20.088  0.00  0.00    -0.325 NA
ATOM     28  H   UNL     1      -7.134 -10.083  20.759  0.00  0.00    +0.119 HD
ATOM     29  H   UNL     1      -6.674  -9.389  19.362  0.00  0.00    +0.119 HD
ENDBRANCH   8   5
BRANCH  17  19
ATOM     19  C   UNL     1      -4.001 -10.459  11.881  0.00  0.00    +0.008 C 
ATOM     20  C   UNL     1      -5.099 -10.827  11.181  0.00  0.00    +0.008 C 
BRANCH  20  21
ATOM     21  C   UNL     1      -5.345 -10.517   9.761  0.00  0.00    -0.025 A 
ATOM     22  C   UNL     1      -4.616 -11.177   8.787  0.00  0.00    +0.011 A 
ATOM     23  C   UNL     1      -6.301  -9.570   9.430  0.00  0.00    +0.011 A 
ATOM     24  C   UNL     1      -4.847 -10.883   7.443  0.00  0.00    +0.046 A 
ATOM     25  C   UNL     1      -6.534  -9.277   8.086  0.00  0.00    +0.046 A 
ATOM     26  C   UNL     1      -5.807  -9.932   7.093  0.00  0.00    +0.120 A 
BRANCH  26   3
ATOM      3  O   UNL     1      -6.033  -9.645   5.782  0.00  0.00    -0.495 OA
ATOM     27  C   UNL     1      -7.108  -8.754   5.488  0.00  0.00    +0.277 C 
ENDBRANCH  26   3
ENDBRANCH  20  21
ENDBRANCH  17  19
TORSDOF 4
ENDMDL
MODEL 4
REMARK VINA RESULT:      -6.7     29.011     32.422
REMARK  Name = 11941510
REMARK  5 active torsions:
REMARK  status: ('A' for Active; 'I' for Inactive)
REMARK    1  A    between atoms: O_3  and  C_26
REMARK    2  A    between atoms: O_3  and  C_27
REMARK    3  A    between atoms: N_5  and  C_8
REMARK    4  A    between atoms: C_17  and  C_19
REMARK    5  A    between atoms: C_20  and  C_21
REMARK                            x       y       z     vdW  Elec       q    Type
REMARK                         _______ _______ _______ _____ _____    ______ ____
ROOT
ATOM      1  O   UNL     1     -10.336  11.018  36.568  0.00  0.00    -0.273 OA
ATOM      2  O   UNL     1     -12.363  10.215  31.736  0.00  0.00    -0.270 OA
ATOM      4  N   UNL     1     -10.680  10.509  33.277  0.00  0.00    -0.284 N 
ATOM      6  N   UNL     1     -11.800   9.457  35.814  0.00  0.00    -0.283 N 
ATOM      7  C   UNL     1      -9.872  10.065  34.401  0.00  0.00    +0.179 C 
ATOM      8  C   UNL     1      -8.616  10.955  34.352  0.00  0.00    +0.082 C 
ATOM      9  C   UNL     1      -8.569  11.442  32.906  0.00  0.00    +0.040 C 
ATOM     10  C   UNL     1     -10.040  11.610  32.571  0.00  0.00    +0.110 C 
ATOM     11  C   UNL     1     -10.695  10.263  35.660  0.00  0.00    +0.239 C 
ATOM     12  C   UNL     1     -11.785   9.862  32.765  0.00  0.00    +0.249 C 
ATOM     13  C   UNL     1     -12.315   8.680  33.491  0.00  0.00    +0.059 A 
ATOM     14  C   UNL     1     -12.383   8.569  34.888  0.00  0.00    +0.046 A 
ATOM     15  C   UNL     1     -12.926   7.697  32.690  0.00  0.00    +0.022 A 
ATOM     16  C   UNL     1     -13.121   7.511  35.449  0.00  0.00    +0.024 A 
ATOM     17  C   UNL     1     -13.614   6.630  33.265  0.00  0.00    -0.024 A 
ATOM     18  C   UNL     1     -13.722   6.543  34.646  0.00  0.00    +0.010 A 
ATOM     30  H   UNL     1     -12.195   9.438  36.752  0.00  0.00    +0.155 HD
ENDROOT
BRANCH   8   5
ATOM      5  N   UNL     1      -7.426  10.246  34.734  0.00  0.00    -0.325 NA
ATOM     28  H   UNL     1      -7.335   9.393  34.183  0.00  0.00    +0.119 HD
ATOM     29  H   UNL     1      -7.488   9.944  35.706  0.00  0.00    +0.119 HD
ENDBRANCH   8   5
BRANCH  17  19
ATOM     19  C   UNL     1     -14.239   5.623  32.421  0.00  0.00    +0.008 C 
ATOM     20  C   UNL     1     -13.675   4.446  32.062  0.00  0.00    +0.008 C 
BRANCH  20  21
ATOM     21  C   UNL     1     -14.316   3.418  31.222  0.00  0.00    -0.025 A 
ATOM     22  C   UNL     1     -13.562   2.353  30.761  0.00  0.00    +0.011 A 
ATOM     23  C   UNL     1     -15.660   3.540  30.910  0.00  0.00    +0.011 A 
ATOM     24  C   UNL     1     -14.167   1.381  29.964  0.00  0.00    +0.046 A 
ATOM     25  C   UNL     1     -16.266   2.567  30.115  0.00  0.00    +0.046 A 
ATOM     26  C   UNL     1     -15.520   1.488  29.642  0.00  0.00    +0.120 A 
BRANCH  26   3
ATOM      3  O   UNL     1     -16.112   0.540  28.864  0.00  0.00    -0.495 OA
ATOM     27  C   UNL     1     -16.705   0.979  27.643  0.00  0.00    +0.277 C 
ENDBRANCH  26   3
ENDBRANCH  20  21
ENDBRANCH  17  19
TORSDOF 4
ENDMDL
MODEL 5
REMARK VINA RESULT:      -6.6      1.779      2.545
REMARK  Name = 11941510
REMARK  5 active torsions:
REMARK  status: ('A' for Active; 'I' for Inactive)
REMARK    1  A    between atoms: O_3  and  C_26
REMARK    2  A    between atoms: O_3  and  C_27
REMARK    3  A    between atoms: N_5  and  C_8
REMARK    4  A    between atoms: C_17  and  C_19
REMARK    5  A    between atoms: C_20  and  C_21
REMARK                            x       y       z     vdW  Elec       q    Type
REMARK                         _______ _______ _______ _____ _____    ______ ____
ROOT
ATOM      1  O   UNL     1      10.474   9.255  21.927  0.00  0.00    -0.273 OA
ATOM      2  O   UNL     1      15.100  11.219  20.242  0.00  0.00    -0.270 OA
ATOM      4  N   UNL     1      13.370  10.920  21.731  0.00  0.00    -0.284 N 
ATOM      6  N   UNL     1      12.321   8.214  21.120  0.00  0.00    -0.283 N 
ATOM      7  C   UNL     1      12.602  10.115  22.666  0.00  0.00    +0.179 C 
ATOM      8  C   UNL     1      11.821  11.140  23.509  0.00  0.00    +0.082 C 
ATOM      9  C   UNL     1      12.619  12.432  23.347  0.00  0.00    +0.040 C 
ATOM     10  C   UNL     1      13.100  12.339  21.911  0.00  0.00    +0.110 C 
ATOM     11  C   UNL     1      11.704   9.204  21.851  0.00  0.00    +0.239 C 
ATOM     12  C   UNL     1      14.400  10.473  20.929  0.00  0.00    +0.249 C 
ATOM     13  C   UNL     1      14.681   9.016  20.881  0.00  0.00    +0.059 A 
ATOM     14  C   UNL     1      13.697   8.015  20.885  0.00  0.00    +0.046 A 
ATOM     15  C   UNL     1      16.024   8.661  20.656  0.00  0.00    +0.022 A 
ATOM     16  C   UNL     1      14.074   6.692  20.595  0.00  0.00    +0.024 A 
ATOM     17  C   UNL     1      16.385   7.336  20.417  0.00  0.00    -0.024 A 
ATOM     18  C   UNL     1      15.408   6.352  20.374  0.00  0.00    +0.010 A 
ATOM     30  H   UNL     1      11.704   7.480  20.777  0.00  0.00    +0.155 HD
ENDROOT
BRANCH   8   5
ATOM      5  N   UNL     1      11.694  10.739  24.883  0.00  0.00    -0.325 NA
ATOM     28  H   UNL     1      10.750  10.400  25.062  0.00  0.00    +0.119 HD
ATOM     29  H   UNL     1      11.825  11.539  25.501  0.00  0.00    +0.119 HD
ENDBRANCH   8   5
BRANCH  17  19
ATOM     19  C   UNL     1      17.779   6.989  20.187  0.00  0.00    +0.008 C 
ATOM     20  C   UNL     1      18.747   6.977  21.133  0.00  0.00    +0.008 C 
BRANCH  20  21
ATOM     21  C   UNL     1      20.155   6.608  20.904  0.00  0.00    -0.025 A 
ATOM     22  C   UNL     1      21.125   7.596  20.905  0.00  0.00    +0.011 A 
ATOM     23  C   UNL     1      20.480   5.278  20.691  0.00  0.00    +0.011 A 
ATOM     24  C   UNL     1      22.457   7.246  20.686  0.00  0.00    +0.046 A 
ATOM     25  C   UNL     1      21.813   4.928  20.474  0.00  0.00    +0.046 A 
ATOM     26  C   UNL     1      22.801   5.912  20.471  0.00  0.00    +0.120 A 
BRANCH  26   3
ATOM      3  O   UNL     1      24.102   5.570  20.258  0.00  0.00    -0.495 OA
ATOM     27  C   UNL     1      24.525   4.295  20.738  0.00  0.00    +0.277 C 
ENDBRANCH  26   3
ENDBRANCH  20  21
ENDBRANCH  17  19
TORSDOF 4
ENDMDL
MODEL 6
REMARK VINA RESULT:      -6.6     14.287     15.033
REMARK  Name = 11941510
REMARK  5 active torsions:
REMARK  status: ('A' for Active; 'I' for Inactive)
REMARK    1  A    between atoms: O_3  and  C_26
REMARK    2  A    between atoms: O_3  and  C_27
REMARK    3  A    between atoms: N_5  and  C_8
REMARK    4  A    between atoms: C_17  and  C_19
REMARK    5  A    between atoms: C_20  and  C_21
REMARK                            x       y       z     vdW  Elec       q    Type
REMARK                         _______ _______ _______ _____ _____    ______ ____
ROOT
ATOM      1  O   UNL     1       9.045   9.748   7.644  0.00  0.00    -0.273 OA
ATOM      2  O   UNL     1      12.599   5.818   7.786  0.00  0.00    -0.270 OA
ATOM      4  N   UNL     1      10.688   6.888   7.078  0.00  0.00    -0.284 N 
ATOM      6  N   UNL     1      11.298   9.775   7.376  0.00  0.00    -0.283 N 
ATOM      7  C   UNL     1       9.997   7.944   6.357  0.00  0.00    +0.179 C 
ATOM      8  C   UNL     1       8.564   7.411   6.168  0.00  0.00    +0.082 C 
ATOM      9  C   UNL     1       8.715   5.898   6.309  0.00  0.00    +0.040 C 
ATOM     10  C   UNL     1       9.794   5.777   7.370  0.00  0.00    +0.110 C 
ATOM     11  C   UNL     1      10.060   9.195   7.213  0.00  0.00    +0.239 C 
ATOM     12  C   UNL     1      12.050   6.795   7.274  0.00  0.00    +0.249 C 
ATOM     13  C   UNL     1      12.907   7.932   6.851  0.00  0.00    +0.059 A 
ATOM     14  C   UNL     1      12.562   9.284   6.993  0.00  0.00    +0.046 A 
ATOM     15  C   UNL     1      14.208   7.592   6.434  0.00  0.00    +0.022 A 
ATOM     16  C   UNL     1      13.550  10.263   6.780  0.00  0.00    +0.024 A 
ATOM     17  C   UNL     1      15.160   8.578   6.181  0.00  0.00    -0.024 A 
ATOM     18  C   UNL     1      14.835   9.914   6.367  0.00  0.00    +0.010 A 
ATOM     30  H   UNL     1      11.286  10.724   7.746  0.00  0.00    +0.155 HD
ENDROOT
BRANCH   8   5
ATOM      5  N   UNL     1       7.999   7.793   4.903  0.00  0.00    -0.325 NA
ATOM     28  H   UNL     1       6.984   7.839   4.974  0.00  0.00    +0.119 HD
ATOM     29  H   UNL     1       8.198   7.085   4.197  0.00  0.00    +0.119 HD
ENDBRANCH   8   5
BRANCH  17  19
ATOM     19  C   UNL     1      16.499   8.207   5.750  0.00  0.00    +0.008 C 
ATOM     20  C   UNL     1      17.644   8.801   6.162  0.00  0.00    +0.008 C 
BRANCH  20  21
ATOM     21  C   UNL     1      19.002   8.413   5.740  0.00  0.00    -0.025 A 
ATOM     22  C   UNL     1      19.225   8.051   4.422  0.00  0.00    +0.011 A 
ATOM     23  C   UNL     1      20.027   8.416   6.672  0.00  0.00    +0.011 A 
ATOM     24  C   UNL     1      20.510   7.683   4.023  0.00  0.00    +0.046 A 
ATOM     25  C   UNL     1      21.313   8.049   6.272  0.00  0.00    +0.046 A 
ATOM     26  C   UNL     1      21.554   7.682   4.949  0.00  0.00    +0.120 A 
BRANCH  26   3
ATOM      3  O   UNL     1      22.808   7.322   4.559  0.00  0.00    -0.495 OA
ATOM     27  C   UNL     1      23.840   8.295   4.714  0.00  0.00    +0.277 C 
ENDBRANCH  26   3
ENDBRANCH  20  21
ENDBRANCH  17  19
TORSDOF 4
ENDMDL
MODEL 7
REMARK VINA RESULT:      -6.5     26.815     30.380
REMARK  Name = 11941510
REMARK  5 active torsions:
REMARK  status: ('A' for Active; 'I' for Inactive)
REMARK    1  A    between atoms: O_3  and  C_26
REMARK    2  A    between atoms: O_3  and  C_27
REMARK    3  A    between atoms: N_5  and  C_8
REMARK    4  A    between atoms: C_17  and  C_19
REMARK    5  A    between atoms: C_20  and  C_21
REMARK                            x       y       z     vdW  Elec       q    Type
REMARK                         _______ _______ _______ _____ _____    ______ ____
ROOT
ATOM      1  O   UNL     1      -1.454 -10.835  16.007  0.00  0.00    -0.273 OA
ATOM      2  O   UNL     1      -4.483 -13.518  12.583  0.00  0.00    -0.270 OA
ATOM      4  N   UNL     1      -4.036 -12.364  14.523  0.00  0.00    -0.284 N 
ATOM      6  N   UNL     1      -1.840 -10.507  13.796  0.00  0.00    -0.283 N 
ATOM      7  C   UNL     1      -3.724 -11.146  15.253  0.00  0.00    +0.179 C 
ATOM      8  C   UNL     1      -4.096 -11.464  16.714  0.00  0.00    +0.082 C 
ATOM      9  C   UNL     1      -5.083 -12.623  16.597  0.00  0.00    +0.040 C 
ATOM     10  C   UNL     1      -4.532 -13.401  15.416  0.00  0.00    +0.110 C 
ATOM     11  C   UNL     1      -2.246 -10.866  15.061  0.00  0.00    +0.239 C 
ATOM     12  C   UNL     1      -4.096 -12.496  13.152  0.00  0.00    +0.249 C 
ATOM     13  C   UNL     1      -3.669 -11.350  12.309  0.00  0.00    +0.059 A 
ATOM     14  C   UNL     1      -2.578 -10.515  12.595  0.00  0.00    +0.046 A 
ATOM     15  C   UNL     1      -4.327 -11.226  11.071  0.00  0.00    +0.022 A 
ATOM     16  C   UNL     1      -2.130  -9.622  11.605  0.00  0.00    +0.024 A 
ATOM     17  C   UNL     1      -3.897 -10.301  10.120  0.00  0.00    -0.024 A 
ATOM     18  C   UNL     1      -2.790  -9.507  10.382  0.00  0.00    +0.010 A 
ATOM     30  H   UNL     1      -0.909 -10.100  13.738  0.00  0.00    +0.155 HD
ENDROOT
BRANCH   8   5
ATOM      5  N   UNL     1      -4.655 -10.331  17.397  0.00  0.00    -0.325 NA
ATOM     28  H   UNL     1      -4.631 -10.483  18.405  0.00  0.00    +0.119 HD
ATOM     29  H   UNL     1      -5.639 -10.220  17.156  0.00  0.00    +0.119 HD
ENDBRANCH   8   5
BRANCH  17  19
ATOM     19  C   UNL     1      -4.591 -10.187   8.847  0.00  0.00    +0.008 C 
ATOM     20  C   UNL     1      -4.515 -11.081   7.834  0.00  0.00    +0.008 C 
BRANCH  20  21
ATOM     21  C   UNL     1      -5.232 -10.975   6.550  0.00  0.00    -0.025 A 
ATOM     22  C   UNL     1      -6.178  -9.978   6.383  0.00  0.00    +0.011 A 
ATOM     23  C   UNL     1      -4.946 -11.876   5.538  0.00  0.00    +0.011 A 
ATOM     24  C   UNL     1      -6.858  -9.878   5.169  0.00  0.00    +0.046 A 
ATOM     25  C   UNL     1      -5.625 -11.776   4.323  0.00  0.00    +0.046 A 
ATOM     26  C   UNL     1      -6.581 -10.777   4.139  0.00  0.00    +0.120 A 
BRANCH  26   3
ATOM      3  O   UNL     1      -7.245 -10.680   2.954  0.00  0.00    -0.495 OA
ATOM     27  C   UNL     1      -8.311  -9.734   2.883  0.00  0.00    +0.277 C 
ENDBRANCH  26   3
ENDBRANCH  20  21
ENDBRANCH  17  19
TORSDOF 4
ENDMDL
MODEL 8
REMARK VINA RESULT:      -6.5     27.909     30.958
REMARK  Name = 11941510
REMARK  5 active torsions:
REMARK  status: ('A' for Active; 'I' for Inactive)
REMARK    1  A    between atoms: O_3  and  C_26
REMARK    2  A    between atoms: O_3  and  C_27
REMARK    3  A    between atoms: N_5  and  C_8
REMARK    4  A    between atoms: C_17  and  C_19
REMARK    5  A    between atoms: C_20  and  C_21
REMARK                            x       y       z     vdW  Elec       q    Type
REMARK                         _______ _______ _______ _____ _____    ______ ____
ROOT
ATOM      1  O   UNL     1      -9.916  10.466  15.898  0.00  0.00    -0.273 OA
ATOM      2  O   UNL     1     -14.684   8.575  17.236  0.00  0.00    -0.270 OA
ATOM      4  N   UNL     1     -12.775   8.728  15.958  0.00  0.00    -0.284 N 
ATOM      6  N   UNL     1     -10.677   9.613  17.858  0.00  0.00    -0.283 N 
ATOM      7  C   UNL     1     -11.351   8.534  15.745  0.00  0.00    +0.179 C 
ATOM      8  C   UNL     1     -11.174   8.605  14.217  0.00  0.00    +0.082 C 
ATOM      9  C   UNL     1     -12.565   8.289  13.672  0.00  0.00    +0.040 C 
ATOM     10  C   UNL     1     -13.472   8.943  14.698  0.00  0.00    +0.110 C 
ATOM     11  C   UNL     1     -10.625   9.643  16.483  0.00  0.00    +0.239 C 
ATOM     12  C   UNL     1     -13.457   8.513  17.138  0.00  0.00    +0.249 C 
ATOM     13  C   UNL     1     -12.677   8.194  18.361  0.00  0.00    +0.059 A 
ATOM     14  C   UNL     1     -11.449   8.783  18.696  0.00  0.00    +0.046 A 
ATOM     15  C   UNL     1     -13.322   7.363  19.296  0.00  0.00    +0.022 A 
ATOM     16  C   UNL     1     -10.929   8.579  19.987  0.00  0.00    +0.024 A 
ATOM     17  C   UNL     1     -12.768   7.135  20.554  0.00  0.00    -0.024 A 
ATOM     18  C   UNL     1     -11.577   7.754  20.906  0.00  0.00    +0.010 A 
ATOM     30  H   UNL     1     -10.003  10.212  18.330  0.00  0.00    +0.155 HD
ENDROOT
BRANCH   8   5
ATOM      5  N   UNL     1     -10.173   7.693  13.737  0.00  0.00    -0.325 NA
ATOM     28  H   UNL     1      -9.320   8.201  13.506  0.00  0.00    +0.119 HD
ATOM     29  H   UNL     1     -10.479   7.254  12.869  0.00  0.00    +0.119 HD
ENDBRANCH   8   5
BRANCH  17  19
ATOM     19  C   UNL     1     -13.450   6.273  21.507  0.00  0.00    +0.008 C 
ATOM     20  C   UNL     1     -14.767   5.964  21.477  0.00  0.00    +0.008 C 
BRANCH  20  21
ATOM     21  C   UNL     1     -15.454   5.075  22.431  0.00  0.00    -0.025 A 
ATOM     22  C   UNL     1     -14.762   4.597  23.531  0.00  0.00    +0.011 A 
ATOM     23  C   UNL     1     -16.778   4.735  22.207  0.00  0.00    +0.011 A 
ATOM     24  C   UNL     1     -15.412   3.755  24.434  0.00  0.00    +0.046 A 
ATOM     25  C   UNL     1     -17.428   3.893  23.110  0.00  0.00    +0.046 A 
ATOM     26  C   UNL     1     -16.745   3.403  24.223  0.00  0.00    +0.120 A 
BRANCH  26   3
ATOM      3  O   UNL     1     -17.379   2.581  25.104  0.00  0.00    -0.495 OA
ATOM     27  C   UNL     1     -16.583   1.594  25.758  0.00  0.00    +0.277 C 
ENDBRANCH  26   3
ENDBRANCH  20  21
ENDBRANCH  17  19
TORSDOF 4
ENDMDL
MODEL 9
REMARK VINA RESULT:      -6.4     17.546     20.574
REMARK  Name = 11941510
REMARK  5 active torsions:
REMARK  status: ('A' for Active; 'I' for Inactive)
REMARK    1  A    between atoms: O_3  and  C_26
REMARK    2  A    between atoms: O_3  and  C_27
REMARK    3  A    between atoms: N_5  and  C_8
REMARK    4  A    between atoms: C_17  and  C_19
REMARK    5  A    between atoms: C_20  and  C_21
REMARK                            x       y       z     vdW  Elec       q    Type
REMARK                         _______ _______ _______ _____ _____    ______ ____
ROOT
ATOM      1  O   UNL     1      12.670   8.326   7.342  0.00  0.00    -0.273 OA
ATOM      2  O   UNL     1       9.908   4.155   5.589  0.00  0.00    -0.270 OA
ATOM      4  N   UNL     1      10.184   6.232   6.541  0.00  0.00    -0.284 N 
ATOM      6  N   UNL     1      12.681   7.279   5.329  0.00  0.00    -0.283 N 
ATOM      7  C   UNL     1      10.526   7.643   6.472  0.00  0.00    +0.179 C 
ATOM      8  C   UNL     1       9.893   8.258   7.735  0.00  0.00    +0.082 C 
ATOM      9  C   UNL     1       8.800   7.262   8.117  0.00  0.00    +0.040 C 
ATOM     10  C   UNL     1       9.428   5.931   7.748  0.00  0.00    +0.110 C 
ATOM     11  C   UNL     1      12.040   7.745   6.454  0.00  0.00    +0.239 C 
ATOM     12  C   UNL     1      10.324   5.312   5.523  0.00  0.00    +0.249 C 
ATOM     13  C   UNL     1      11.018   5.731   4.278  0.00  0.00    +0.059 A 
ATOM     14  C   UNL     1      12.146   6.565   4.238  0.00  0.00    +0.046 A 
ATOM     15  C   UNL     1      10.584   5.101   3.097  0.00  0.00    +0.022 A 
ATOM     16  C   UNL     1      12.852   6.693   3.028  0.00  0.00    +0.024 A 
ATOM     17  C   UNL     1      11.269   5.277   1.896  0.00  0.00    -0.024 A 
ATOM     18  C   UNL     1      12.412   6.064   1.864  0.00  0.00    +0.010 A 
ATOM     30  H   UNL     1      13.653   7.566   5.234  0.00  0.00    +0.155 HD
ENDROOT
BRANCH   8   5
ATOM      5  N   UNL     1       9.379   9.579   7.504  0.00  0.00    -0.325 NA
ATOM     28  H   UNL     1       8.548   9.533   6.915  0.00  0.00    +0.119 HD
ATOM     29  H   UNL     1      10.056  10.139   6.987  0.00  0.00    +0.119 HD
ENDBRANCH   8   5
BRANCH  17  19
ATOM     19  C   UNL     1      10.805   4.618   0.686  0.00  0.00    +0.008 C 
ATOM     20  C   UNL     1      11.172   4.950  -0.574  0.00  0.00    +0.008 C 
BRANCH  20  21
ATOM     21  C   UNL     1      10.715   4.270  -1.800  0.00  0.00    -0.025 A 
ATOM     22  C   UNL     1       9.690   4.829  -2.544  0.00  0.00    +0.011 A 
ATOM     23  C   UNL     1      11.321   3.084  -2.181  0.00  0.00    +0.011 A 
ATOM     24  C   UNL     1       9.258   4.185  -3.703  0.00  0.00    +0.046 A 
ATOM     25  C   UNL     1      10.889   2.440  -3.341  0.00  0.00    +0.046 A 
ATOM     26  C   UNL     1       9.858   2.990  -4.101  0.00  0.00    +0.120 A 
BRANCH  26   3
ATOM      3  O   UNL     1       9.435   2.361  -5.232  0.00  0.00    -0.495 OA
ATOM     27  C   UNL     1       9.927   2.860  -6.475  0.00  0.00    +0.277 C 
ENDBRANCH  26   3
ENDBRANCH  20  21
ENDBRANCH  17  19
TORSDOF 4
ENDMDL
MODEL 10
REMARK VINA RESULT:      -6.3      4.529     10.456
REMARK  Name = 11941510
REMARK  5 active torsions:
REMARK  status: ('A' for Active; 'I' for Inactive)
REMARK    1  A    between atoms: O_3  and  C_26
REMARK    2  A    between atoms: O_3  and  C_27
REMARK    3  A    between atoms: N_5  and  C_8
REMARK    4  A    between atoms: C_17  and  C_19
REMARK    5  A    between atoms: C_20  and  C_21
REMARK                            x       y       z     vdW  Elec       q    Type
REMARK                         _______ _______ _______ _____ _____    ______ ____
ROOT
ATOM      1  O   UNL     1      25.460   4.089  24.215  0.00  0.00    -0.273 OA
ATOM      2  O   UNL     1      22.563   4.796  19.832  0.00  0.00    -0.270 OA
ATOM      4  N   UNL     1      23.583   3.571  21.492  0.00  0.00    -0.284 N 
ATOM      6  N   UNL     1      23.642   5.392  23.832  0.00  0.00    -0.283 N 
ATOM      7  C   UNL     1      23.707   3.123  22.869  0.00  0.00    +0.179 C 
ATOM      8  C   UNL     1      24.565   1.846  22.786  0.00  0.00    +0.082 C 
ATOM      9  C   UNL     1      24.395   1.384  21.341  0.00  0.00    +0.040 C 
ATOM     10  C   UNL     1      24.317   2.698  20.586  0.00  0.00    +0.110 C 
ATOM     11  C   UNL     1      24.371   4.239  23.653  0.00  0.00    +0.239 C 
ATOM     12  C   UNL     1      22.716   4.537  21.027  0.00  0.00    +0.249 C 
ATOM     13  C   UNL     1      21.923   5.314  22.014  0.00  0.00    +0.059 A 
ATOM     14  C   UNL     1      22.412   5.760  23.251  0.00  0.00    +0.046 A 
ATOM     15  C   UNL     1      20.659   5.749  21.574  0.00  0.00    +0.022 A 
ATOM     16  C   UNL     1      21.650   6.685  23.988  0.00  0.00    +0.024 A 
ATOM     17  C   UNL     1      19.898   6.630  22.339  0.00  0.00    -0.024 A 
ATOM     18  C   UNL     1      20.398   7.109  23.541  0.00  0.00    +0.010 A 
ATOM     30  H   UNL     1      24.000   6.024  24.546  0.00  0.00    +0.155 HD
ENDROOT
BRANCH   8   5
ATOM      5  N   UNL     1      24.158   0.848  23.736  0.00  0.00    -0.325 NA
ATOM     28  H   UNL     1      24.827   0.079  23.743  0.00  0.00    +0.119 HD
ATOM     29  H   UNL     1      23.265   0.439  23.461  0.00  0.00    +0.119 HD
ENDBRANCH   8   5
BRANCH  17  19
ATOM     19  C   UNL     1      18.593   7.067  21.868  0.00  0.00    +0.008 C 
ATOM     20  C   UNL     1      17.787   6.365  21.038  0.00  0.00    +0.008 C 
BRANCH  20  21
ATOM     21  C   UNL     1      16.456   6.800  20.576  0.00  0.00    -0.025 A 
ATOM     22  C   UNL     1      16.106   6.614  19.249  0.00  0.00    +0.011 A 
ATOM     23  C   UNL     1      15.585   7.387  21.478  0.00  0.00    +0.011 A 
ATOM     24  C   UNL     1      14.848   7.027  18.811  0.00  0.00    +0.046 A 
ATOM     25  C   UNL     1      14.326   7.799  21.040  0.00  0.00    +0.046 A 
ATOM     26  C   UNL     1      13.957   7.619  19.707  0.00  0.00    +0.120 A 
BRANCH  26   3
ATOM      3  O   UNL     1      12.729   8.022  19.279  0.00  0.00    -0.495 OA
ATOM     27  C   UNL     1      12.453   7.894  17.886  0.00  0.00    +0.277 C 
ENDBRANCH  26   3
ENDBRANCH  20  21
ENDBRANCH  17  19
TORSDOF 4
ENDMDL
