MODEL 1
REMARK VINA RESULT:      -7.1      0.000      0.000
REMARK  Name = 75536915
REMARK  4 active torsions:
REMARK  status: ('A' for Active; 'I' for Inactive)
REMARK    1  A    between atoms: O_2  and  C_10
REMARK    2  A    between atoms: O_2  and  C_13
REMARK    3  A    between atoms: N_3  and  C_7
REMARK    4  A    between atoms: C_4  and  C_7
REMARK                            x       y       z     vdW  Elec       q    Type
REMARK                         _______ _______ _______ _____ _____    ______ ____
ROOT
ATOM      1  O   UNL     1       0.676   2.035  24.112  0.00  0.00    -0.375 OA
ATOM      3  N   UNL     1      -2.138   3.001  25.048  0.00  0.00    -0.296 NA
ATOM      8  C   UNL     1      -2.088   1.720  25.760  0.00  0.00    +0.131 C 
ATOM      9  C   UNL     1      -0.869   3.731  25.029  0.00  0.00    +0.112 C 
ATOM     10  C   UNL     1      -0.807   0.881  25.639  0.00  0.00    +0.213 C 
ATOM     11  C   UNL     1      -0.009   3.253  23.858  0.00  0.00    +0.175 C 
ATOM     12  C   UNL     1      -0.172   0.900  24.255  0.00  0.00    +0.205 C 
ENDROOT
BRANCH  10   2
ATOM      2  O   UNL     1      -1.130  -0.473  25.958  0.00  0.00    -0.485 OA
BRANCH   2  13
ATOM     13  C   UNL     1      -2.168  -1.034  25.265  0.00  0.00    +0.121 A 
ATOM     14  C   UNL     1      -3.341  -0.309  25.057  0.00  0.00    +0.045 A 
ATOM     15  C   UNL     1      -2.051  -2.331  24.765  0.00  0.00    +0.045 A 
ATOM     16  C   UNL     1      -4.398  -0.881  24.350  0.00  0.00    +0.004 A 
ATOM     17  C   UNL     1      -3.108  -2.903  24.058  0.00  0.00    +0.004 A 
ATOM     18  C   UNL     1      -4.282  -2.179  23.851  0.00  0.00    +0.000 A 
ENDBRANCH   2  13
ENDBRANCH  10   2
BRANCH   3   7
ATOM      7  C   UNL     1      -3.225   3.828  25.574  0.00  0.00    +0.088 C 
BRANCH   7   4
ATOM      4  C   UNL     1      -4.541   3.432  24.989  0.00  0.00    +0.003 C 
ATOM      5  C   UNL     1      -5.814   4.035  25.515  0.00  0.00    +0.005 C 
ATOM      6  C   UNL     1      -5.500   2.589  25.782  0.00  0.00    +0.005 C 
ENDBRANCH   7   4
ENDBRANCH   3   7
TORSDOF 4
ENDMDL
MODEL 2
REMARK VINA RESULT:      -6.8     17.584     20.214
REMARK  Name = 75536915
REMARK  4 active torsions:
REMARK  status: ('A' for Active; 'I' for Inactive)
REMARK    1  A    between atoms: O_2  and  C_10
REMARK    2  A    between atoms: O_2  and  C_13
REMARK    3  A    between atoms: N_3  and  C_7
REMARK    4  A    between atoms: C_4  and  C_7
REMARK                            x       y       z     vdW  Elec       q    Type
REMARK                         _______ _______ _______ _____ _____    ______ ____
ROOT
ATOM      1  O   UNL     1      12.021   7.283  17.608  0.00  0.00    -0.375 OA
ATOM      3  N   UNL     1      13.165  10.024  18.561  0.00  0.00    -0.296 NA
ATOM      8  C   UNL     1      14.046   9.132  19.323  0.00  0.00    +0.131 C 
ATOM      9  C   UNL     1      12.874   9.567  17.201  0.00  0.00    +0.112 C 
ATOM     10  C   UNL     1      13.882   7.618  19.120  0.00  0.00    +0.213 C 
ATOM     11  C   UNL     1      11.683   8.607  17.217  0.00  0.00    +0.175 C 
ATOM     12  C   UNL     1      12.439   7.157  18.963  0.00  0.00    +0.205 C 
ENDROOT
BRANCH  10   2
ATOM      2  O   UNL     1      14.436   6.955  20.258  0.00  0.00    -0.485 OA
BRANCH   2  13
ATOM     13  C   UNL     1      15.769   6.657  20.203  0.00  0.00    +0.121 A 
ATOM     14  C   UNL     1      16.309   6.078  19.056  0.00  0.00    +0.045 A 
ATOM     15  C   UNL     1      16.590   6.935  21.297  0.00  0.00    +0.045 A 
ATOM     16  C   UNL     1      17.669   5.775  19.001  0.00  0.00    +0.004 A 
ATOM     17  C   UNL     1      17.950   6.633  21.242  0.00  0.00    +0.004 A 
ATOM     18  C   UNL     1      18.490   6.052  20.095  0.00  0.00    +0.000 A 
ENDBRANCH   2  13
ENDBRANCH  10   2
BRANCH   3   7
ATOM      7  C   UNL     1      13.702  11.385  18.565  0.00  0.00    +0.088 C 
BRANCH   7   4
ATOM      4  C   UNL     1      15.148  11.400  18.190  0.00  0.00    +0.003 C 
ATOM      5  C   UNL     1      15.904  12.699  18.143  0.00  0.00    +0.005 C 
ATOM      6  C   UNL     1      15.582  11.970  16.868  0.00  0.00    +0.005 C 
ENDBRANCH   7   4
ENDBRANCH   3   7
TORSDOF 4
ENDMDL
MODEL 3
REMARK VINA RESULT:      -6.3     15.288     18.251
REMARK  Name = 75536915
REMARK  4 active torsions:
REMARK  status: ('A' for Active; 'I' for Inactive)
REMARK    1  A    between atoms: O_2  and  C_10
REMARK    2  A    between atoms: O_2  and  C_13
REMARK    3  A    between atoms: N_3  and  C_7
REMARK    4  A    between atoms: C_4  and  C_7
REMARK                            x       y       z     vdW  Elec       q    Type
REMARK                         _______ _______ _______ _____ _____    ______ ____
ROOT
ATOM      1  O   UNL     1      10.879   6.987  20.936  0.00  0.00    -0.375 OA
ATOM      3  N   UNL     1      12.044   9.555  22.270  0.00  0.00    -0.296 NA
ATOM      8  C   UNL     1      12.831   9.563  21.032  0.00  0.00    +0.131 C 
ATOM      9  C   UNL     1      10.645   9.158  22.092  0.00  0.00    +0.112 C 
ATOM     10  C   UNL     1      12.548   8.466  19.994  0.00  0.00    +0.213 C 
ATOM     11  C   UNL     1      10.523   7.635  22.150  0.00  0.00    +0.175 C 
ATOM     12  C   UNL     1      12.256   7.096  20.591  0.00  0.00    +0.205 C 
ENDROOT
BRANCH  10   2
ATOM      2  O   UNL     1      13.694   8.345  19.151  0.00  0.00    -0.485 OA
BRANCH   2  13
ATOM     13  C   UNL     1      13.694   9.093  18.006  0.00  0.00    +0.121 A 
ATOM     14  C   UNL     1      14.660  10.081  17.817  0.00  0.00    +0.045 A 
ATOM     15  C   UNL     1      12.726   8.868  17.027  0.00  0.00    +0.045 A 
ATOM     16  C   UNL     1      14.658  10.843  16.650  0.00  0.00    +0.004 A 
ATOM     17  C   UNL     1      12.725   9.630  15.859  0.00  0.00    +0.004 A 
ATOM     18  C   UNL     1      13.691  10.618  15.671  0.00  0.00    +0.000 A 
ENDBRANCH   2  13
ENDBRANCH  10   2
BRANCH   3   7
ATOM      7  C   UNL     1      12.152  10.849  22.944  0.00  0.00    +0.088 C 
BRANCH   7   4
ATOM      4  C   UNL     1      10.944  11.131  23.777  0.00  0.00    +0.003 C 
ATOM      5  C   UNL     1      10.546  12.550  24.075  0.00  0.00    +0.005 C 
ATOM      6  C   UNL     1      11.096  11.677  25.169  0.00  0.00    +0.005 C 
ENDBRANCH   7   4
ENDBRANCH   3   7
TORSDOF 4
ENDMDL
MODEL 4
REMARK VINA RESULT:      -6.3     22.680     25.162
REMARK  Name = 75536915
REMARK  4 active torsions:
REMARK  status: ('A' for Active; 'I' for Inactive)
REMARK    1  A    between atoms: O_2  and  C_10
REMARK    2  A    between atoms: O_2  and  C_13
REMARK    3  A    between atoms: N_3  and  C_7
REMARK    4  A    between atoms: C_4  and  C_7
REMARK                            x       y       z     vdW  Elec       q    Type
REMARK                         _______ _______ _______ _____ _____    ______ ____
ROOT
ATOM      1  O   UNL     1      12.574   8.464   5.384  0.00  0.00    -0.375 OA
ATOM      3  N   UNL     1      10.055   7.035   6.543  0.00  0.00    -0.296 NA
ATOM      8  C   UNL     1      10.214   6.255   5.311  0.00  0.00    +0.131 C 
ATOM      9  C   UNL     1      11.314   7.373   7.209  0.00  0.00    +0.112 C 
ATOM     10  C   UNL     1      11.412   6.579   4.406  0.00  0.00    +0.213 C 
ATOM     11  C   UNL     1      11.890   8.659   6.615  0.00  0.00    +0.175 C 
ATOM     12  C   UNL     1      11.740   8.062   4.303  0.00  0.00    +0.205 C 
ENDROOT
BRANCH  10   2
ATOM      2  O   UNL     1      11.120   6.100   3.093  0.00  0.00    -0.485 OA
BRANCH   2  13
ATOM     13  C   UNL     1      12.051   5.278   2.520  0.00  0.00    +0.121 A 
ATOM     14  C   UNL     1      11.763   3.928   2.322  0.00  0.00    +0.045 A 
ATOM     15  C   UNL     1      13.289   5.791   2.133  0.00  0.00    +0.045 A 
ATOM     16  C   UNL     1      12.713   3.090   1.738  0.00  0.00    +0.004 A 
ATOM     17  C   UNL     1      14.238   4.953   1.548  0.00  0.00    +0.004 A 
ATOM     18  C   UNL     1      13.951   3.603   1.351  0.00  0.00    +0.000 A 
ENDBRANCH   2  13
ENDBRANCH  10   2
BRANCH   3   7
ATOM      7  C   UNL     1       9.132   6.357   7.453  0.00  0.00    +0.088 C 
BRANCH   7   4
ATOM      4  C   UNL     1       9.870   5.577   8.493  0.00  0.00    +0.003 C 
ATOM      5  C   UNL     1       9.731   4.081   8.557  0.00  0.00    +0.005 C 
ATOM      6  C   UNL     1       9.123   4.940   9.632  0.00  0.00    +0.005 C 
ENDBRANCH   7   4
ENDBRANCH   3   7
TORSDOF 4
ENDMDL
MODEL 5
REMARK VINA RESULT:      -6.1     13.753     14.964
REMARK  Name = 75536915
REMARK  4 active torsions:
REMARK  status: ('A' for Active; 'I' for Inactive)
REMARK    1  A    between atoms: O_2  and  C_10
REMARK    2  A    between atoms: O_2  and  C_13
REMARK    3  A    between atoms: N_3  and  C_7
REMARK    4  A    between atoms: C_4  and  C_7
REMARK                            x       y       z     vdW  Elec       q    Type
REMARK                         _______ _______ _______ _____ _____    ______ ____
ROOT
ATOM      1  O   UNL     1      -6.699 -11.615  19.314  0.00  0.00    -0.375 OA
ATOM      3  N   UNL     1      -7.961  -9.440  17.469  0.00  0.00    -0.296 NA
ATOM      8  C   UNL     1      -6.622  -9.496  16.874  0.00  0.00    +0.131 C 
ATOM      9  C   UNL     1      -8.500 -10.743  17.864  0.00  0.00    +0.112 C 
ATOM     10  C   UNL     1      -5.624 -10.514  17.445  0.00  0.00    +0.213 C 
ATOM     11  C   UNL     1      -8.023 -11.099  19.273  0.00  0.00    +0.175 C 
ATOM     12  C   UNL     1      -5.689 -10.677  18.958  0.00  0.00    +0.205 C 
ENDROOT
BRANCH  10   2
ATOM      2  O   UNL     1      -4.305 -10.084  17.104  0.00  0.00    -0.485 OA
BRANCH   2  13
ATOM     13  C   UNL     1      -3.614 -10.870  16.224  0.00  0.00    +0.121 A 
ATOM     14  C   UNL     1      -4.226 -11.988  15.657  0.00  0.00    +0.045 A 
ATOM     15  C   UNL     1      -2.297 -10.553  15.893  0.00  0.00    +0.045 A 
ATOM     16  C   UNL     1      -3.521 -12.789  14.759  0.00  0.00    +0.004 A 
ATOM     17  C   UNL     1      -1.592 -11.354  14.995  0.00  0.00    +0.004 A 
ATOM     18  C   UNL     1      -2.203 -12.471  14.428  0.00  0.00    +0.000 A 
ENDBRANCH   2  13
ENDBRANCH  10   2
BRANCH   3   7
ATOM      7  C   UNL     1      -8.879  -8.729  16.579  0.00  0.00    +0.088 C 
BRANCH   7   4
ATOM      4  C   UNL     1      -9.957  -8.038  17.348  0.00  0.00    +0.003 C 
ATOM      5  C   UNL     1     -11.402  -8.358  17.079  0.00  0.00    +0.005 C 
ATOM      6  C   UNL     1     -10.838  -7.024  16.674  0.00  0.00    +0.005 C 
ENDBRANCH   7   4
ENDBRANCH   3   7
TORSDOF 4
ENDMDL
MODEL 6
REMARK VINA RESULT:      -6.1     12.992     14.912
REMARK  Name = 75536915
REMARK  4 active torsions:
REMARK  status: ('A' for Active; 'I' for Inactive)
REMARK    1  A    between atoms: O_2  and  C_10
REMARK    2  A    between atoms: O_2  and  C_13
REMARK    3  A    between atoms: N_3  and  C_7
REMARK    4  A    between atoms: C_4  and  C_7
REMARK                            x       y       z     vdW  Elec       q    Type
REMARK                         _______ _______ _______ _____ _____    ______ ____
ROOT
ATOM      1  O   UNL     1     -17.057   5.292  33.481  0.00  0.00    -0.375 OA
ATOM      3  N   UNL     1     -14.686   7.204  32.813  0.00  0.00    -0.296 NA
ATOM      8  C   UNL     1     -14.016   5.920  32.581  0.00  0.00    +0.131 C 
ATOM      9  C   UNL     1     -16.073   7.254  32.347  0.00  0.00    +0.112 C 
ATOM     10  C   UNL     1     -14.848   4.638  32.739  0.00  0.00    +0.213 C 
ATOM     11  C   UNL     1     -17.007   6.711  33.429  0.00  0.00    +0.175 C 
ATOM     12  C   UNL     1     -15.843   4.673  33.891  0.00  0.00    +0.205 C 
ENDROOT
BRANCH  10   2
ATOM      2  O   UNL     1     -13.950   3.550  32.965  0.00  0.00    -0.485 OA
BRANCH   2  13
ATOM     13  C   UNL     1     -14.088   2.463  32.148  0.00  0.00    +0.121 A 
ATOM     14  C   UNL     1     -14.770   1.333  32.599  0.00  0.00    +0.045 A 
ATOM     15  C   UNL     1     -13.548   2.485  30.862  0.00  0.00    +0.045 A 
ATOM     16  C   UNL     1     -14.910   0.224  31.765  0.00  0.00    +0.004 A 
ATOM     17  C   UNL     1     -13.690   1.376  30.027  0.00  0.00    +0.004 A 
ATOM     18  C   UNL     1     -14.370   0.246  30.479  0.00  0.00    +0.000 A 
ENDBRANCH   2  13
ENDBRANCH  10   2
BRANCH   3   7
ATOM      7  C   UNL     1     -13.891   8.295  32.249  0.00  0.00    +0.088 C 
BRANCH   7   4
ATOM      4  C   UNL     1     -12.432   8.091  32.500  0.00  0.00    +0.003 C 
ATOM      5  C   UNL     1     -11.612   9.185  33.126  0.00  0.00    +0.005 C 
ATOM      6  C   UNL     1     -11.412   8.830  31.679  0.00  0.00    +0.005 C 
ENDBRANCH   7   4
ENDBRANCH   3   7
TORSDOF 4
ENDMDL
MODEL 7
REMARK VINA RESULT:      -6.1     15.731     18.667
REMARK  Name = 75536915
REMARK  4 active torsions:
REMARK  status: ('A' for Active; 'I' for Inactive)
REMARK    1  A    between atoms: O_2  and  C_10
REMARK    2  A    between atoms: O_2  and  C_13
REMARK    3  A    between atoms: N_3  and  C_7
REMARK    4  A    between atoms: C_4  and  C_7
REMARK                            x       y       z     vdW  Elec       q    Type
REMARK                         _______ _______ _______ _____ _____    ______ ____
ROOT
ATOM      1  O   UNL     1      11.576   6.632  20.390  0.00  0.00    -0.375 OA
ATOM      3  N   UNL     1      12.507   9.164  21.955  0.00  0.00    -0.296 NA
ATOM      8  C   UNL     1      13.339   9.317  20.757  0.00  0.00    +0.131 C 
ATOM      9  C   UNL     1      11.148   8.690  21.689  0.00  0.00    +0.112 C 
ATOM     10  C   UNL     1      13.173   8.286  19.631  0.00  0.00    +0.213 C 
ATOM     11  C   UNL     1      11.130   7.162  21.630  0.00  0.00    +0.175 C 
ATOM     12  C   UNL     1      12.954   6.858  20.113  0.00  0.00    +0.205 C 
ENDROOT
BRANCH  10   2
ATOM      2  O   UNL     1      14.357   8.306  18.832  0.00  0.00    -0.485 OA
BRANCH   2  13
ATOM     13  C   UNL     1      15.491   7.801  19.406  0.00  0.00    +0.121 A 
ATOM     14  C   UNL     1      15.957   6.539  19.039  0.00  0.00    +0.045 A 
ATOM     15  C   UNL     1      16.182   8.550  20.358  0.00  0.00    +0.045 A 
ATOM     16  C   UNL     1      17.113   6.025  19.624  0.00  0.00    +0.004 A 
ATOM     17  C   UNL     1      17.339   8.036  20.943  0.00  0.00    +0.004 A 
ATOM     18  C   UNL     1      17.804   6.774  20.577  0.00  0.00    +0.000 A 
ENDBRANCH   2  13
ENDBRANCH  10   2
BRANCH   3   7
ATOM      7  C   UNL     1      12.499  10.407  22.726  0.00  0.00    +0.088 C 
BRANCH   7   4
ATOM      4  C   UNL     1      11.143  11.034  22.733  0.00  0.00    +0.003 C 
ATOM      5  C   UNL     1      10.996  12.521  22.561  0.00  0.00    +0.005 C 
ATOM      6  C   UNL     1      10.709  11.885  23.893  0.00  0.00    +0.005 C 
ENDBRANCH   7   4
ENDBRANCH   3   7
TORSDOF 4
ENDMDL
MODEL 8
REMARK VINA RESULT:      -6.1     12.396     13.895
REMARK  Name = 75536915
REMARK  4 active torsions:
REMARK  status: ('A' for Active; 'I' for Inactive)
REMARK    1  A    between atoms: O_2  and  C_10
REMARK    2  A    between atoms: O_2  and  C_13
REMARK    3  A    between atoms: N_3  and  C_7
REMARK    4  A    between atoms: C_4  and  C_7
REMARK                            x       y       z     vdW  Elec       q    Type
REMARK                         _______ _______ _______ _____ _____    ______ ____
ROOT
ATOM      1  O   UNL     1     -14.869   8.388  20.547  0.00  0.00    -0.375 OA
ATOM      3  N   UNL     1     -14.225   5.884  22.292  0.00  0.00    -0.296 NA
ATOM      8  C   UNL     1     -12.944   6.007  21.588  0.00  0.00    +0.131 C 
ATOM      9  C   UNL     1     -14.819   7.160  22.691  0.00  0.00    +0.112 C 
ATOM     10  C   UNL     1     -12.768   7.188  20.621  0.00  0.00    +0.213 C 
ATOM     11  C   UNL     1     -15.648   7.734  21.541  0.00  0.00    +0.175 C 
ATOM     12  C   UNL     1     -14.011   7.526  19.808  0.00  0.00    +0.205 C 
ENDROOT
BRANCH  10   2
ATOM      2  O   UNL     1     -11.719   6.861  19.707  0.00  0.00    -0.485 OA
BRANCH   2  13
ATOM     13  C   UNL     1     -11.166   7.902  19.014  0.00  0.00    +0.121 A 
ATOM     14  C   UNL     1     -10.819   9.078  19.678  0.00  0.00    +0.045 A 
ATOM     15  C   UNL     1     -10.948   7.786  17.641  0.00  0.00    +0.045 A 
ATOM     16  C   UNL     1     -10.255  10.139  18.971  0.00  0.00    +0.004 A 
ATOM     17  C   UNL     1     -10.383   8.847  16.933  0.00  0.00    +0.004 A 
ATOM     18  C   UNL     1     -10.037  10.023  17.598  0.00  0.00    +0.000 A 
ENDBRANCH   2  13
ENDBRANCH  10   2
BRANCH   3   7
ATOM      7  C   UNL     1     -14.088   4.976  23.431  0.00  0.00    +0.088 C 
BRANCH   7   4
ATOM      4  C   UNL     1     -15.419   4.635  24.018  0.00  0.00    +0.003 C 
ATOM      5  C   UNL     1     -15.591   3.376  24.821  0.00  0.00    +0.005 C 
ATOM      6  C   UNL     1     -16.222   3.493  23.461  0.00  0.00    +0.005 C 
ENDBRANCH   7   4
ENDBRANCH   3   7
TORSDOF 4
ENDMDL
MODEL 9
REMARK VINA RESULT:      -6.0     19.895     22.465
REMARK  Name = 75536915
REMARK  4 active torsions:
REMARK  status: ('A' for Active; 'I' for Inactive)
REMARK    1  A    between atoms: O_2  and  C_10
REMARK    2  A    between atoms: O_2  and  C_13
REMARK    3  A    between atoms: N_3  and  C_7
REMARK    4  A    between atoms: C_4  and  C_7
REMARK                            x       y       z     vdW  Elec       q    Type
REMARK                         _______ _______ _______ _____ _____    ______ ____
ROOT
ATOM      1  O   UNL     1      18.890  -7.137  26.799  0.00  0.00    -0.375 OA
ATOM      3  N   UNL     1      19.468  -7.048  23.736  0.00  0.00    -0.296 NA
ATOM      8  C   UNL     1      18.549  -5.909  23.828  0.00  0.00    +0.131 C 
ATOM      9  C   UNL     1      20.410  -7.154  24.852  0.00  0.00    +0.112 C 
ATOM     10  C   UNL     1      18.024  -5.521  25.218  0.00  0.00    +0.213 C 
ATOM     11  C   UNL     1      19.767  -7.924  26.006  0.00  0.00    +0.175 C 
ATOM     12  C   UNL     1      17.713  -6.704  26.125  0.00  0.00    +0.205 C 
ENDROOT
BRANCH  10   2
ATOM      2  O   UNL     1      16.821  -4.770  25.046  0.00  0.00    -0.485 OA
BRANCH   2  13
ATOM     13  C   UNL     1      16.960  -3.491  24.580  0.00  0.00    +0.121 A 
ATOM     14  C   UNL     1      17.737  -2.572  25.285  0.00  0.00    +0.045 A 
ATOM     15  C   UNL     1      16.325  -3.107  23.399  0.00  0.00    +0.045 A 
ATOM     16  C   UNL     1      17.878  -1.269  24.810  0.00  0.00    +0.004 A 
ATOM     17  C   UNL     1      16.467  -1.803  22.924  0.00  0.00    +0.004 A 
ATOM     18  C   UNL     1      17.243  -0.885  23.629  0.00  0.00    +0.000 A 
ENDBRANCH   2  13
ENDBRANCH  10   2
BRANCH   3   7
ATOM      7  C   UNL     1      20.162  -7.032  22.448  0.00  0.00    +0.088 C 
BRANCH   7   4
ATOM      4  C   UNL     1      19.342  -6.356  21.397  0.00  0.00    +0.003 C 
ATOM      5  C   UNL     1      19.464  -6.774  19.958  0.00  0.00    +0.005 C 
ATOM      6  C   UNL     1      19.996  -5.439  20.401  0.00  0.00    +0.005 C 
ENDBRANCH   7   4
ENDBRANCH   3   7
TORSDOF 4
ENDMDL
MODEL 10
REMARK VINA RESULT:      -6.0     14.364     16.761
REMARK  Name = 75536915
REMARK  4 active torsions:
REMARK  status: ('A' for Active; 'I' for Inactive)
REMARK    1  A    between atoms: O_2  and  C_10
REMARK    2  A    between atoms: O_2  and  C_13
REMARK    3  A    between atoms: N_3  and  C_7
REMARK    4  A    between atoms: C_4  and  C_7
REMARK                            x       y       z     vdW  Elec       q    Type
REMARK                         _______ _______ _______ _____ _____    ______ ____
ROOT
ATOM      1  O   UNL     1      -2.048 -12.712  14.387  0.00  0.00    -0.375 OA
ATOM      3  N   UNL     1      -3.880 -10.928  12.600  0.00  0.00    -0.296 NA
ATOM      8  C   UNL     1      -4.779 -11.103  13.745  0.00  0.00    +0.131 C 
ATOM      9  C   UNL     1      -2.473 -10.740  12.960  0.00  0.00    +0.112 C 
ATOM     10  C   UNL     1      -4.258 -11.901  14.951  0.00  0.00    +0.213 C 
ATOM     11  C   UNL     1      -1.791 -12.098  13.131  0.00  0.00    +0.175 C 
ATOM     12  C   UNL     1      -3.402 -13.105  14.585  0.00  0.00    +0.205 C 
ENDROOT
BRANCH  10   2
ATOM      2  O   UNL     1      -5.385 -12.369  15.693  0.00  0.00    -0.485 OA
BRANCH   2  13
ATOM     13  C   UNL     1      -5.572 -11.821  16.932  0.00  0.00    +0.121 A 
ATOM     14  C   UNL     1      -6.569 -10.867  17.130  0.00  0.00    +0.045 A 
ATOM     15  C   UNL     1      -4.764 -12.217  17.998  0.00  0.00    +0.045 A 
ATOM     16  C   UNL     1      -6.759 -10.308  18.393  0.00  0.00    +0.004 A 
ATOM     17  C   UNL     1      -4.955 -11.659  19.262  0.00  0.00    +0.004 A 
ATOM     18  C   UNL     1      -5.952 -10.704  19.460  0.00  0.00    +0.000 A 
ENDBRANCH   2  13
ENDBRANCH  10   2
BRANCH   3   7
ATOM      7  C   UNL     1      -4.363  -9.847  11.741  0.00  0.00    +0.088 C 
BRANCH   7   4
ATOM      4  C   UNL     1      -3.607  -9.796  10.453  0.00  0.00    +0.003 C 
ATOM      5  C   UNL     1      -4.054  -8.879   9.349  0.00  0.00    +0.005 C 
ATOM      6  C   UNL     1      -4.208 -10.367   9.199  0.00  0.00    +0.005 C 
ENDBRANCH   7   4
ENDBRANCH   3   7
TORSDOF 4
ENDMDL
