MODEL 1
REMARK VINA RESULT:      -7.1      0.000      0.000
REMARK  Name = 25389261
REMARK  5 active torsions:
REMARK  status: ('A' for Active; 'I' for Inactive)
REMARK    1  A    between atoms: N_5  and  C_14
REMARK    2  A    between atoms: N_6  and  C_15
REMARK    3  A    between atoms: C_8  and  C_14
REMARK    4  A    between atoms: C_9  and  C_15
REMARK    5  A    between atoms: C_21  and  C_24
REMARK                            x       y       z     vdW  Elec       q    Type
REMARK                         _______ _______ _______ _____ _____    ______ ____
ROOT
ATOM      4  N   UNL     1      -4.759 -11.433  18.673  0.00  0.00    -0.298 NA
ATOM      7  C   UNL     1      -6.939 -11.455  17.253  0.00  0.00    -0.003 C 
ATOM      8  C   UNL     1      -6.410 -12.891  17.475  0.00  0.00    +0.020 C 
ATOM      9  C   UNL     1      -4.626 -10.502  17.519  0.00  0.00    +0.074 C 
ATOM     10  C   UNL     1      -5.846 -10.608  16.577  0.00  0.00    +0.024 C 
ATOM     11  C   UNL     1      -5.046 -12.808  18.196  0.00  0.00    +0.089 C 
ATOM     12  C   UNL     1      -7.189 -10.850  18.648  0.00  0.00    +0.019 C 
ATOM     13  C   UNL     1      -5.909 -10.980  19.494  0.00  0.00    +0.085 C 
ENDROOT
BRANCH   8  14
ATOM     14  C   UNL     1      -6.318 -13.705  16.187  0.00  0.00    +0.089 C 
BRANCH  14   5
ATOM      5  N   UNL     1      -5.027 -14.387  16.092  0.00  0.00    -0.298 NA
ATOM     16  C   UNL     1      -5.192 -15.837  16.243  0.00  0.00    +0.089 C 
ATOM     17  C   UNL     1      -4.378 -14.079  14.804  0.00  0.00    +0.119 C 
ATOM     18  C   UNL     1      -3.818 -16.509  16.350  0.00  0.00    +0.051 C 
ATOM     19  C   UNL     1      -3.104 -14.859  14.576  0.00  0.00    -0.030 A 
ATOM     20  C   UNL     1      -2.858 -16.048  15.285  0.00  0.00    -0.042 A 
ATOM     22  C   UNL     1      -2.188 -14.432  13.605  0.00  0.00    +0.005 A 
ATOM     23  C   UNL     1      -1.682 -16.770  15.040  0.00  0.00    +0.004 A 
ATOM     25  C   UNL     1      -1.025 -15.164  13.361  0.00  0.00    +0.000 A 
ATOM     26  C   UNL     1      -0.773 -16.330  14.079  0.00  0.00    +0.000 A 
ENDBRANCH  14   5
ENDBRANCH   8  14
BRANCH   9  15
ATOM     15  C   UNL     1      -3.308 -10.694  16.766  0.00  0.00    +0.123 C 
BRANCH  15   6
ATOM      1  O   UNL     1      -1.489 -11.346  14.641  0.00  0.00    -0.270 OA
ATOM      6  N   UNL     1      -3.469 -10.375  15.357  0.00  0.00    -0.310 N 
ATOM     21  C   UNL     1      -2.530 -10.736  14.410  0.00  0.00    +0.244 C 
ATOM     33  H   UNL     1      -4.275  -9.814  15.108  0.00  0.00    +0.149 HD
BRANCH  21  24
ATOM      2  O   UNL     1      -5.595  -9.809  10.659  0.00  0.00    -0.453 OA
ATOM      3  O   UNL     1      -3.793  -9.163   9.196  0.00  0.00    -0.453 OA
ATOM     24  C   UNL     1      -2.829 -10.313  13.017  0.00  0.00    +0.040 A 
ATOM     27  C   UNL     1      -4.152 -10.292  12.569  0.00  0.00    +0.062 A 
ATOM     28  C   UNL     1      -1.777  -9.937  12.163  0.00  0.00    +0.017 A 
ATOM     29  C   UNL     1      -4.380  -9.891  11.268  0.00  0.00    +0.167 A 
ATOM     30  C   UNL     1      -2.036  -9.535  10.851  0.00  0.00    +0.050 A 
ATOM     31  C   UNL     1      -3.351  -9.523  10.433  0.00  0.00    +0.166 A 
ATOM     32  C   UNL     1      -5.215  -9.347   9.348  0.00  0.00    +0.466 C 
ENDBRANCH  21  24
ENDBRANCH  15   6
ENDBRANCH   9  15
TORSDOF 5
ENDMDL
MODEL 2
REMARK VINA RESULT:      -7.0     23.886     26.294
REMARK  Name = 25389261
REMARK  5 active torsions:
REMARK  status: ('A' for Active; 'I' for Inactive)
REMARK    1  A    between atoms: N_5  and  C_14
REMARK    2  A    between atoms: N_6  and  C_15
REMARK    3  A    between atoms: C_8  and  C_14
REMARK    4  A    between atoms: C_9  and  C_15
REMARK    5  A    between atoms: C_21  and  C_24
REMARK                            x       y       z     vdW  Elec       q    Type
REMARK                         _______ _______ _______ _____ _____    ______ ____
ROOT
ATOM      4  N   UNL     1      10.299   6.891   6.886  0.00  0.00    -0.298 NA
ATOM      7  C   UNL     1       9.193   5.201   5.246  0.00  0.00    -0.003 C 
ATOM      8  C   UNL     1      10.429   5.869   4.601  0.00  0.00    +0.020 C 
ATOM      9  C   UNL     1       8.845   7.182   6.758  0.00  0.00    +0.074 C 
ATOM     10  C   UNL     1       8.193   6.290   5.678  0.00  0.00    +0.024 C 
ATOM     11  C   UNL     1      10.957   6.960   5.559  0.00  0.00    +0.089 C 
ATOM     12  C   UNL     1       9.682   4.497   6.526  0.00  0.00    +0.019 C 
ATOM     13  C   UNL     1      10.444   5.508   7.401  0.00  0.00    +0.085 C 
ENDROOT
BRANCH   8  14
ATOM     14  C   UNL     1      10.154   6.427   3.206  0.00  0.00    +0.089 C 
BRANCH  14   5
ATOM      5  N   UNL     1      10.993   5.769   2.206  0.00  0.00    -0.298 NA
ATOM     16  C   UNL     1      11.595   4.548   2.753  0.00  0.00    +0.089 C 
ATOM     17  C   UNL     1      10.202   5.452   1.002  0.00  0.00    +0.119 C 
ATOM     18  C   UNL     1      12.627   3.989   1.768  0.00  0.00    +0.051 C 
ATOM     19  C   UNL     1      10.968   4.645  -0.020  0.00  0.00    -0.030 A 
ATOM     20  C   UNL     1      12.105   3.908   0.358  0.00  0.00    -0.042 A 
ATOM     22  C   UNL     1      10.509   4.576  -1.343  0.00  0.00    +0.005 A 
ATOM     23  C   UNL     1      12.786   3.146  -0.600  0.00  0.00    +0.004 A 
ATOM     25  C   UNL     1      11.189   3.806  -2.287  0.00  0.00    +0.000 A 
ATOM     26  C   UNL     1      12.326   3.093  -1.916  0.00  0.00    +0.000 A 
ENDBRANCH  14   5
ENDBRANCH   8  14
BRANCH   9  15
ATOM     15  C   UNL     1       8.567   8.667   6.512  0.00  0.00    +0.123 C 
BRANCH  15   6
ATOM      1  O   UNL     1       9.233   9.997   4.056  0.00  0.00    -0.270 OA
ATOM      6  N   UNL     1       7.701   8.845   5.359  0.00  0.00    -0.310 N 
ATOM     21  C   UNL     1       8.121   9.504   4.220  0.00  0.00    +0.244 C 
ATOM     33  H   UNL     1       6.746   8.519   5.454  0.00  0.00    +0.149 HD
BRANCH  21  24
ATOM      2  O   UNL     1       3.575  10.418   2.539  0.00  0.00    -0.453 OA
ATOM      3  O   UNL     1       4.212   9.998   0.253  0.00  0.00    -0.453 OA
ATOM     24  C   UNL     1       7.107   9.626   3.139  0.00  0.00    +0.040 A 
ATOM     27  C   UNL     1       5.795   9.983   3.458  0.00  0.00    +0.062 A 
ATOM     28  C   UNL     1       7.479   9.380   1.806  0.00  0.00    +0.017 A 
ATOM     29  C   UNL     1       4.889  10.084   2.422  0.00  0.00    +0.167 A 
ATOM     30  C   UNL     1       6.542   9.490   0.775  0.00  0.00    +0.050 A 
ATOM     31  C   UNL     1       5.253   9.844   1.117  0.00  0.00    +0.166 A 
ATOM     32  C   UNL     1       3.153  10.362   1.162  0.00  0.00    +0.466 C 
ENDBRANCH  21  24
ENDBRANCH  15   6
ENDBRANCH   9  15
TORSDOF 5
ENDMDL
MODEL 3
REMARK VINA RESULT:      -6.9      3.884      6.900
REMARK  Name = 25389261
REMARK  5 active torsions:
REMARK  status: ('A' for Active; 'I' for Inactive)
REMARK    1  A    between atoms: N_5  and  C_14
REMARK    2  A    between atoms: N_6  and  C_15
REMARK    3  A    between atoms: C_8  and  C_14
REMARK    4  A    between atoms: C_9  and  C_15
REMARK    5  A    between atoms: C_21  and  C_24
REMARK                            x       y       z     vdW  Elec       q    Type
REMARK                         _______ _______ _______ _____ _____    ______ ____
ROOT
ATOM      4  N   UNL     1      -5.130 -11.621  18.723  0.00  0.00    -0.298 NA
ATOM      7  C   UNL     1      -6.089 -12.669  16.544  0.00  0.00    -0.003 C 
ATOM      8  C   UNL     1      -5.274 -11.393  16.230  0.00  0.00    +0.020 C 
ATOM      9  C   UNL     1      -6.595 -11.842  18.866  0.00  0.00    +0.074 C 
ATOM     10  C   UNL     1      -7.215 -12.324  17.535  0.00  0.00    +0.024 C 
ATOM     11  C   UNL     1      -4.853 -10.737  17.564  0.00  0.00    +0.089 C 
ATOM     12  C   UNL     1      -5.135 -13.644  17.258  0.00  0.00    +0.019 C 
ATOM     13  C   UNL     1      -4.493 -12.935  18.464  0.00  0.00    +0.085 C 
ENDROOT
BRANCH   8  14
ATOM     14  C   UNL     1      -6.017 -10.410  15.328  0.00  0.00    +0.089 C 
BRANCH  14   5
ATOM      5  N   UNL     1      -5.191 -10.027  14.183  0.00  0.00    -0.298 NA
ATOM     16  C   UNL     1      -4.238 -11.092  13.850  0.00  0.00    +0.089 C 
ATOM     17  C   UNL     1      -6.041  -9.721  13.018  0.00  0.00    +0.119 C 
ATOM     18  C   UNL     1      -3.249 -10.593  12.790  0.00  0.00    +0.051 C 
ATOM     19  C   UNL     1      -5.252  -9.452  11.757  0.00  0.00    -0.030 A 
ATOM     20  C   UNL     1      -3.929  -9.910  11.632  0.00  0.00    -0.042 A 
ATOM     22  C   UNL     1      -5.862  -8.798  10.678  0.00  0.00    +0.005 A 
ATOM     23  C   UNL     1      -3.223  -9.674  10.445  0.00  0.00    +0.004 A 
ATOM     25  C   UNL     1      -5.154  -8.576   9.496  0.00  0.00    +0.000 A 
ATOM     26  C   UNL     1      -3.836  -9.012   9.381  0.00  0.00    +0.000 A 
ENDBRANCH  14   5
ENDBRANCH   8  14
BRANCH   9  15
ATOM     15  C   UNL     1      -7.319 -10.612  19.418  0.00  0.00    +0.123 C 
BRANCH  15   6
ATOM      1  O   UNL     1     -10.165 -10.240  19.331  0.00  0.00    -0.270 OA
ATOM      6  N   UNL     1      -8.076  -9.947  18.370  0.00  0.00    -0.310 N 
ATOM     21  C   UNL     1      -9.450  -9.820  18.425  0.00  0.00    +0.244 C 
ATOM     33  H   UNL     1      -7.552  -9.636  17.560  0.00  0.00    +0.149 HD
BRANCH  21  24
ATOM      2  O   UNL     1     -11.180  -5.847  16.069  0.00  0.00    -0.453 OA
ATOM      3  O   UNL     1     -11.798  -7.128  14.124  0.00  0.00    -0.453 OA
ATOM     24  C   UNL     1     -10.077  -9.137  17.263  0.00  0.00    +0.040 A 
ATOM     27  C   UNL     1     -10.301  -7.759  17.308  0.00  0.00    +0.062 A 
ATOM     28  C   UNL     1     -10.438  -9.885  16.128  0.00  0.00    +0.017 A 
ATOM     29  C   UNL     1     -10.885  -7.169  16.206  0.00  0.00    +0.167 A 
ATOM     30  C   UNL     1     -11.028  -9.262  15.025  0.00  0.00    +0.050 A 
ATOM     31  C   UNL     1     -11.239  -7.900  15.096  0.00  0.00    +0.166 A 
ATOM     32  C   UNL     1     -11.757  -5.829  14.748  0.00  0.00    +0.466 C 
ENDBRANCH  21  24
ENDBRANCH  15   6
ENDBRANCH   9  15
TORSDOF 5
ENDMDL
MODEL 4
REMARK VINA RESULT:      -6.8      4.834      7.127
REMARK  Name = 25389261
REMARK  5 active torsions:
REMARK  status: ('A' for Active; 'I' for Inactive)
REMARK    1  A    between atoms: N_5  and  C_14
REMARK    2  A    between atoms: N_6  and  C_15
REMARK    3  A    between atoms: C_8  and  C_14
REMARK    4  A    between atoms: C_9  and  C_15
REMARK    5  A    between atoms: C_21  and  C_24
REMARK                            x       y       z     vdW  Elec       q    Type
REMARK                         _______ _______ _______ _____ _____    ______ ____
ROOT
ATOM      4  N   UNL     1      -8.254 -12.044  19.637  0.00  0.00    -0.298 NA
ATOM      7  C   UNL     1      -7.901 -12.061  17.060  0.00  0.00    -0.003 C 
ATOM      8  C   UNL     1      -6.774 -11.274  17.766  0.00  0.00    +0.020 C 
ATOM      9  C   UNL     1      -9.492 -11.585  18.950  0.00  0.00    +0.074 C 
ATOM     10  C   UNL     1      -9.263 -11.443  17.429  0.00  0.00    +0.024 C 
ATOM     11  C   UNL     1      -7.110 -11.174  19.271  0.00  0.00    +0.089 C 
ATOM     12  C   UNL     1      -7.878 -13.490  17.636  0.00  0.00    +0.019 C 
ATOM     13  C   UNL     1      -7.956 -13.420  19.171  0.00  0.00    +0.085 C 
ENDROOT
BRANCH   8  14
ATOM     14  C   UNL     1      -6.523  -9.899  17.152  0.00  0.00    +0.089 C 
BRANCH  14   5
ATOM      5  N   UNL     1      -5.308  -9.906  16.337  0.00  0.00    -0.298 NA
ATOM     16  C   UNL     1      -4.317 -10.838  16.888  0.00  0.00    +0.089 C 
ATOM     17  C   UNL     1      -5.628 -10.267  14.944  0.00  0.00    +0.119 C 
ATOM     18  C   UNL     1      -2.984 -10.677  16.148  0.00  0.00    +0.051 C 
ATOM     19  C   UNL     1      -4.404 -10.431  14.073  0.00  0.00    -0.030 A 
ATOM     20  C   UNL     1      -3.144 -10.672  14.650  0.00  0.00    -0.042 A 
ATOM     22  C   UNL     1      -4.531 -10.406  12.677  0.00  0.00    +0.005 A 
ATOM     23  C   UNL     1      -2.026 -10.847  13.824  0.00  0.00    +0.004 A 
ATOM     25  C   UNL     1      -3.413 -10.592  11.864  0.00  0.00    +0.000 A 
ATOM     26  C   UNL     1      -2.162 -10.810  12.437  0.00  0.00    +0.000 A 
ENDBRANCH  14   5
ENDBRANCH   8  14
BRANCH   9  15
ATOM     15  C   UNL     1     -10.057 -10.301  19.562  0.00  0.00    +0.123 C 
BRANCH  15   6
ATOM      1  O   UNL     1     -12.584  -9.582  18.403  0.00  0.00    -0.270 OA
ATOM      6  N   UNL     1     -10.287  -9.299  18.534  0.00  0.00    -0.310 N 
ATOM     21  C   UNL     1     -11.549  -9.028  18.042  0.00  0.00    +0.244 C 
ATOM     33  H   UNL     1      -9.465  -8.852  18.144  0.00  0.00    +0.149 HD
BRANCH  21  24
ATOM      2  O   UNL     1     -13.922  -6.371  14.632  0.00  0.00    -0.453 OA
ATOM      3  O   UNL     1     -11.927  -5.168  14.016  0.00  0.00    -0.453 OA
ATOM     24  C   UNL     1     -11.612  -7.995  16.975  0.00  0.00    +0.040 A 
ATOM     27  C   UNL     1     -12.828  -7.730  16.340  0.00  0.00    +0.062 A 
ATOM     28  C   UNL     1     -10.448  -7.294  16.615  0.00  0.00    +0.017 A 
ATOM     29  C   UNL     1     -12.838  -6.762  15.356  0.00  0.00    +0.167 A 
ATOM     30  C   UNL     1     -10.486  -6.319  15.616  0.00  0.00    +0.050 A 
ATOM     31  C   UNL     1     -11.699  -6.076  15.004  0.00  0.00    +0.166 A 
ATOM     32  C   UNL     1     -13.337  -5.361  13.785  0.00  0.00    +0.466 C 
ENDBRANCH  21  24
ENDBRANCH  15   6
ENDBRANCH   9  15
TORSDOF 5
ENDMDL
MODEL 5
REMARK VINA RESULT:      -6.8      2.996      7.600
REMARK  Name = 25389261
REMARK  5 active torsions:
REMARK  status: ('A' for Active; 'I' for Inactive)
REMARK    1  A    between atoms: N_5  and  C_14
REMARK    2  A    between atoms: N_6  and  C_15
REMARK    3  A    between atoms: C_8  and  C_14
REMARK    4  A    between atoms: C_9  and  C_15
REMARK    5  A    between atoms: C_21  and  C_24
REMARK                            x       y       z     vdW  Elec       q    Type
REMARK                         _______ _______ _______ _____ _____    ______ ____
ROOT
ATOM      4  N   UNL     1      -3.692  -9.203  10.512  0.00  0.00    -0.298 NA
ATOM      7  C   UNL     1      -4.866 -11.488  10.109  0.00  0.00    -0.003 C 
ATOM      8  C   UNL     1      -5.731 -10.574  11.008  0.00  0.00    +0.020 C 
ATOM      9  C   UNL     1      -2.764 -10.318  10.846  0.00  0.00    +0.074 C 
ATOM     10  C   UNL     1      -3.484 -11.683  10.759  0.00  0.00    +0.024 C 
ATOM     11  C   UNL     1      -4.925  -9.296  11.330  0.00  0.00    +0.089 C 
ATOM     12  C   UNL     1      -4.646 -10.734   8.784  0.00  0.00    +0.019 C 
ATOM     13  C   UNL     1      -4.073  -9.338   9.085  0.00  0.00    +0.085 C 
ENDROOT
BRANCH   8  14
ATOM     14  C   UNL     1      -6.221 -11.267  12.278  0.00  0.00    +0.089 C 
BRANCH  14   5
ATOM      5  N   UNL     1      -7.153 -10.411  13.011  0.00  0.00    -0.298 NA
ATOM     16  C   UNL     1      -8.542 -10.762  12.692  0.00  0.00    +0.089 C 
ATOM     17  C   UNL     1      -6.920 -10.524  14.462  0.00  0.00    +0.119 C 
ATOM     18  C   UNL     1      -9.494  -9.727  13.303  0.00  0.00    +0.051 C 
ATOM     19  C   UNL     1      -7.937  -9.775  15.291  0.00  0.00    -0.030 A 
ATOM     20  C   UNL     1      -9.188  -9.433  14.748  0.00  0.00    -0.042 A 
ATOM     22  C   UNL     1      -7.660  -9.473  16.631  0.00  0.00    +0.005 A 
ATOM     23  C   UNL     1     -10.128  -8.762  15.541  0.00  0.00    +0.004 A 
ATOM     25  C   UNL     1      -8.607  -8.813  17.416  0.00  0.00    +0.000 A 
ATOM     26  C   UNL     1      -9.838  -8.457  16.871  0.00  0.00    +0.000 A 
ENDBRANCH  14   5
ENDBRANCH   8  14
BRANCH   9  15
ATOM     15  C   UNL     1      -2.080 -10.121  12.201  0.00  0.00    +0.123 C 
BRANCH  15   6
ATOM      1  O   UNL     1      -1.431 -10.161  14.998  0.00  0.00    -0.270 OA
ATOM      6  N   UNL     1      -2.894 -10.670  13.273  0.00  0.00    -0.310 N 
ATOM     21  C   UNL     1      -2.488 -10.638  14.593  0.00  0.00    +0.244 C 
ATOM     33  H   UNL     1      -3.750 -11.140  12.999  0.00  0.00    +0.149 HD
BRANCH  21  24
ATOM      2  O   UNL     1      -5.099 -10.681  18.776  0.00  0.00    -0.453 OA
ATOM      3  O   UNL     1      -5.989 -12.876  18.333  0.00  0.00    -0.453 OA
ATOM     24  C   UNL     1      -3.421 -11.264  15.566  0.00  0.00    +0.040 A 
ATOM     27  C   UNL     1      -3.775 -10.574  16.727  0.00  0.00    +0.062 A 
ATOM     28  C   UNL     1      -3.939 -12.545  15.307  0.00  0.00    +0.017 A 
ATOM     29  C   UNL     1      -4.645 -11.195  17.601  0.00  0.00    +0.167 A 
ATOM     30  C   UNL     1      -4.818 -13.151  16.208  0.00  0.00    +0.050 A 
ATOM     31  C   UNL     1      -5.152 -12.449  17.348  0.00  0.00    +0.166 A 
ATOM     32  C   UNL     1      -5.950 -11.751  19.234  0.00  0.00    +0.466 C 
ENDBRANCH  21  24
ENDBRANCH  15   6
ENDBRANCH   9  15
TORSDOF 5
ENDMDL
MODEL 6
REMARK VINA RESULT:      -6.7      3.282      8.002
REMARK  Name = 25389261
REMARK  5 active torsions:
REMARK  status: ('A' for Active; 'I' for Inactive)
REMARK    1  A    between atoms: N_5  and  C_14
REMARK    2  A    between atoms: N_6  and  C_15
REMARK    3  A    between atoms: C_8  and  C_14
REMARK    4  A    between atoms: C_9  and  C_15
REMARK    5  A    between atoms: C_21  and  C_24
REMARK                            x       y       z     vdW  Elec       q    Type
REMARK                         _______ _______ _______ _____ _____    ______ ____
ROOT
ATOM      4  N   UNL     1      -1.880 -11.768  13.669  0.00  0.00    -0.298 NA
ATOM      7  C   UNL     1      -4.063 -12.193  12.319  0.00  0.00    -0.003 C 
ATOM      8  C   UNL     1      -3.274 -11.001  11.731  0.00  0.00    +0.020 C 
ATOM      9  C   UNL     1      -3.048 -11.816  14.590  0.00  0.00    +0.074 C 
ATOM     10  C   UNL     1      -4.373 -11.917  13.802  0.00  0.00    +0.024 C 
ATOM     11  C   UNL     1      -2.069 -10.705  12.652  0.00  0.00    +0.089 C 
ATOM     12  C   UNL     1      -3.130 -13.417  12.268  0.00  0.00    +0.019 C 
ATOM     13  C   UNL     1      -1.801 -13.071  12.965  0.00  0.00    +0.085 C 
ENDROOT
BRANCH   8  14
ATOM     14  C   UNL     1      -4.133  -9.758  11.510  0.00  0.00    +0.089 C 
BRANCH  14   5
ATOM      5  N   UNL     1      -4.952  -9.898  10.307  0.00  0.00    -0.298 NA
ATOM     16  C   UNL     1      -5.493  -8.599   9.890  0.00  0.00    +0.089 C 
ATOM     17  C   UNL     1      -4.161 -10.495   9.215  0.00  0.00    +0.119 C 
ATOM     18  C   UNL     1      -6.509  -8.796   8.760  0.00  0.00    +0.051 C 
ATOM     19  C   UNL     1      -4.901 -10.542   7.898  0.00  0.00    -0.030 A 
ATOM     20  C   UNL     1      -5.999  -9.695   7.665  0.00  0.00    -0.042 A 
ATOM     22  C   UNL     1      -4.453 -11.390   6.876  0.00  0.00    +0.005 A 
ATOM     23  C   UNL     1      -6.655  -9.736   6.428  0.00  0.00    +0.004 A 
ATOM     25  C   UNL     1      -5.108 -11.416   5.643  0.00  0.00    +0.000 A 
ATOM     26  C   UNL     1      -6.207 -10.591   5.421  0.00  0.00    +0.000 A 
ENDBRANCH  14   5
ENDBRANCH   8  14
BRANCH   9  15
ATOM     15  C   UNL     1      -3.061 -10.645  15.576  0.00  0.00    +0.123 C 
BRANCH  15   6
ATOM      1  O   UNL     1      -4.163 -11.409  18.115  0.00  0.00    -0.270 OA
ATOM      6  N   UNL     1      -4.410 -10.385  16.050  0.00  0.00    -0.310 N 
ATOM     21  C   UNL     1      -4.843 -10.798  17.295  0.00  0.00    +0.244 C 
ATOM     33  H   UNL     1      -5.045  -9.944  15.394  0.00  0.00    +0.149 HD
BRANCH  21  24
ATOM      2  O   UNL     1      -8.941 -11.249  20.002  0.00  0.00    -0.453 OA
ATOM      3  O   UNL     1     -10.158  -9.687  18.627  0.00  0.00    -0.453 OA
ATOM     24  C   UNL     1      -6.258 -10.480  17.619  0.00  0.00    +0.040 A 
ATOM     27  C   UNL     1      -6.870 -11.087  18.718  0.00  0.00    +0.062 A 
ATOM     28  C   UNL     1      -6.968  -9.569  16.817  0.00  0.00    +0.017 A 
ATOM     29  C   UNL     1      -8.185 -10.760  18.981  0.00  0.00    +0.167 A 
ATOM     30  C   UNL     1      -8.298  -9.255  17.106  0.00  0.00    +0.050 A 
ATOM     31  C   UNL     1      -8.879  -9.869  18.196  0.00  0.00    +0.166 A 
ATOM     32  C   UNL     1     -10.189 -10.565  19.771  0.00  0.00    +0.466 C 
ENDBRANCH  21  24
ENDBRANCH  15   6
ENDBRANCH   9  15
TORSDOF 5
ENDMDL
MODEL 7
REMARK VINA RESULT:      -6.6      2.546      4.071
REMARK  Name = 25389261
REMARK  5 active torsions:
REMARK  status: ('A' for Active; 'I' for Inactive)
REMARK    1  A    between atoms: N_5  and  C_14
REMARK    2  A    between atoms: N_6  and  C_15
REMARK    3  A    between atoms: C_8  and  C_14
REMARK    4  A    between atoms: C_9  and  C_15
REMARK    5  A    between atoms: C_21  and  C_24
REMARK                            x       y       z     vdW  Elec       q    Type
REMARK                         _______ _______ _______ _____ _____    ______ ____
ROOT
ATOM      4  N   UNL     1      -6.568 -10.712  16.815  0.00  0.00    -0.298 NA
ATOM      7  C   UNL     1      -4.531 -11.478  18.239  0.00  0.00    -0.003 C 
ATOM      8  C   UNL     1      -4.083 -10.539  17.096  0.00  0.00    +0.020 C 
ATOM      9  C   UNL     1      -6.556 -12.195  16.930  0.00  0.00    +0.074 C 
ATOM     10  C   UNL     1      -5.276 -12.686  17.644  0.00  0.00    +0.024 C 
ATOM     11  C   UNL     1      -5.305 -10.232  16.202  0.00  0.00    +0.089 C 
ATOM     12  C   UNL     1      -5.543 -10.692  19.093  0.00  0.00    +0.019 C 
ATOM     13  C   UNL     1      -6.659 -10.148  18.184  0.00  0.00    +0.085 C 
ENDROOT
BRANCH   8  14
ATOM     14  C   UNL     1      -2.914 -11.093  16.284  0.00  0.00    +0.089 C 
BRANCH  14   5
ATOM      5  N   UNL     1      -3.257 -11.172  14.865  0.00  0.00    -0.298 NA
ATOM     16  C   UNL     1      -2.301 -10.409  14.054  0.00  0.00    +0.089 C 
ATOM     17  C   UNL     1      -3.292 -12.578  14.423  0.00  0.00    +0.119 C 
ATOM     18  C   UNL     1      -2.792 -10.330  12.605  0.00  0.00    +0.051 C 
ATOM     19  C   UNL     1      -3.503 -12.732  12.934  0.00  0.00    -0.030 A 
ATOM     20  C   UNL     1      -3.220 -11.668  12.059  0.00  0.00    -0.042 A 
ATOM     22  C   UNL     1      -3.923 -13.962  12.412  0.00  0.00    +0.005 A 
ATOM     23  C   UNL     1      -3.398 -11.839  10.680  0.00  0.00    +0.004 A 
ATOM     25  C   UNL     1      -4.088 -14.126  11.036  0.00  0.00    +0.000 A 
ATOM     26  C   UNL     1      -3.827 -13.065  10.172  0.00  0.00    +0.000 A 
ENDBRANCH  14   5
ENDBRANCH   8  14
BRANCH   9  15
ATOM     15  C   UNL     1      -6.755 -12.886  15.580  0.00  0.00    +0.123 C 
BRANCH  15   6
ATOM      1  O   UNL     1      -7.775 -13.163  12.910  0.00  0.00    -0.270 OA
ATOM      6  N   UNL     1      -6.598 -11.939  14.488  0.00  0.00    -0.310 N 
ATOM     21  C   UNL     1      -7.131 -12.169  13.235  0.00  0.00    +0.244 C 
ATOM     33  H   UNL     1      -6.018 -11.128  14.671  0.00  0.00    +0.149 HD
BRANCH  21  24
ATOM      2  O   UNL     1      -6.906 -10.476   8.608  0.00  0.00    -0.453 OA
ATOM      3  O   UNL     1      -6.148  -8.302   9.319  0.00  0.00    -0.453 OA
ATOM     24  C   UNL     1      -6.859 -11.117  12.221  0.00  0.00    +0.040 A 
ATOM     27  C   UNL     1      -7.046 -11.397  10.865  0.00  0.00    +0.062 A 
ATOM     28  C   UNL     1      -6.417  -9.848  12.636  0.00  0.00    +0.017 A 
ATOM     29  C   UNL     1      -6.782 -10.388   9.960  0.00  0.00    +0.167 A 
ATOM     30  C   UNL     1      -6.156  -8.845  11.699  0.00  0.00    +0.050 A 
ATOM     31  C   UNL     1      -6.349  -9.147  10.366  0.00  0.00    +0.166 A 
ATOM     32  C   UNL     1      -6.503  -9.151   8.208  0.00  0.00    +0.466 C 
ENDBRANCH  21  24
ENDBRANCH  15   6
ENDBRANCH   9  15
TORSDOF 5
ENDMDL
MODEL 8
REMARK VINA RESULT:      -6.6      2.625      6.391
REMARK  Name = 25389261
REMARK  5 active torsions:
REMARK  status: ('A' for Active; 'I' for Inactive)
REMARK    1  A    between atoms: N_5  and  C_14
REMARK    2  A    between atoms: N_6  and  C_15
REMARK    3  A    between atoms: C_8  and  C_14
REMARK    4  A    between atoms: C_9  and  C_15
REMARK    5  A    between atoms: C_21  and  C_24
REMARK                            x       y       z     vdW  Elec       q    Type
REMARK                         _______ _______ _______ _____ _____    ______ ____
ROOT
ATOM      4  N   UNL     1      -4.471  -9.221  11.246  0.00  0.00    -0.298 NA
ATOM      7  C   UNL     1      -5.117 -10.798   9.281  0.00  0.00    -0.003 C 
ATOM      8  C   UNL     1      -6.188 -10.837  10.395  0.00  0.00    +0.020 C 
ATOM      9  C   UNL     1      -3.341 -10.138  10.936  0.00  0.00    +0.074 C 
ATOM     10  C   UNL     1      -3.750 -11.184   9.875  0.00  0.00    +0.024 C 
ATOM     11  C   UNL     1      -5.686  -9.999  11.591  0.00  0.00    +0.089 C 
ATOM     12  C   UNL     1      -5.014  -9.335   8.810  0.00  0.00    +0.019 C 
ATOM     13  C   UNL     1      -4.763  -8.427  10.028  0.00  0.00    +0.085 C 
ENDROOT
BRANCH   8  14
ATOM     14  C   UNL     1      -6.566 -12.255  10.818  0.00  0.00    +0.089 C 
BRANCH  14   5
ATOM      5  N   UNL     1      -6.562 -12.382  12.275  0.00  0.00    -0.298 NA
ATOM     16  C   UNL     1      -7.905 -12.698  12.774  0.00  0.00    +0.089 C 
ATOM     17  C   UNL     1      -5.605 -13.421  12.696  0.00  0.00    +0.119 C 
ATOM     18  C   UNL     1      -7.924 -12.622  14.304  0.00  0.00    +0.051 C 
ATOM     19  C   UNL     1      -5.647 -13.707  14.179  0.00  0.00    -0.030 A 
ATOM     20  C   UNL     1      -6.778 -13.363  14.941  0.00  0.00    -0.042 A 
ATOM     22  C   UNL     1      -4.579 -14.376  14.792  0.00  0.00    +0.005 A 
ATOM     23  C   UNL     1      -6.808 -13.660  16.310  0.00  0.00    +0.004 A 
ATOM     25  C   UNL     1      -4.622 -14.676  16.154  0.00  0.00    +0.000 A 
ATOM     26  C   UNL     1      -5.735 -14.317  16.912  0.00  0.00    +0.000 A 
ENDBRANCH  14   5
ENDBRANCH   8  14
BRANCH   9  15
ATOM     15  C   UNL     1      -2.764 -10.798  12.191  0.00  0.00    +0.123 C 
BRANCH  15   6
ATOM      1  O   UNL     1      -2.091 -11.062  14.970  0.00  0.00    -0.270 OA
ATOM      6  N   UNL     1      -3.662 -10.627  13.321  0.00  0.00    -0.310 N 
ATOM     21  C   UNL     1      -3.235 -10.777  14.627  0.00  0.00    +0.244 C 
ATOM     33  H   UNL     1      -4.637 -10.457  13.105  0.00  0.00    +0.149 HD
BRANCH  21  24
ATOM      2  O   UNL     1      -4.992 -11.207  19.215  0.00  0.00    -0.453 OA
ATOM      3  O   UNL     1      -7.082 -10.155  18.636  0.00  0.00    -0.453 OA
ATOM     24  C   UNL     1      -4.281 -10.596  15.667  0.00  0.00    +0.040 A 
ATOM     27  C   UNL     1      -4.043 -11.036  16.972  0.00  0.00    +0.062 A 
ATOM     28  C   UNL     1      -5.500  -9.983  15.329  0.00  0.00    +0.017 A 
ATOM     29  C   UNL     1      -5.043 -10.845  17.904  0.00  0.00    +0.167 A 
ATOM     30  C   UNL     1      -6.496  -9.803  16.292  0.00  0.00    +0.050 A 
ATOM     31  C   UNL     1      -6.236 -10.246  17.573  0.00  0.00    +0.166 A 
ATOM     32  C   UNL     1      -6.287 -10.766  19.672  0.00  0.00    +0.466 C 
ENDBRANCH  21  24
ENDBRANCH  15   6
ENDBRANCH   9  15
TORSDOF 5
ENDMDL
MODEL 9
REMARK VINA RESULT:      -6.6     23.037     26.837
REMARK  Name = 25389261
REMARK  5 active torsions:
REMARK  status: ('A' for Active; 'I' for Inactive)
REMARK    1  A    between atoms: N_5  and  C_14
REMARK    2  A    between atoms: N_6  and  C_15
REMARK    3  A    between atoms: C_8  and  C_14
REMARK    4  A    between atoms: C_9  and  C_15
REMARK    5  A    between atoms: C_21  and  C_24
REMARK                            x       y       z     vdW  Elec       q    Type
REMARK                         _______ _______ _______ _____ _____    ______ ____
ROOT
ATOM      4  N   UNL     1       7.987  11.045   2.677  0.00  0.00    -0.298 NA
ATOM      7  C   UNL     1       7.727   9.119   4.406  0.00  0.00    -0.003 C 
ATOM      8  C   UNL     1       8.922  10.029   4.769  0.00  0.00    +0.020 C 
ATOM      9  C   UNL     1       7.927   9.735   1.974  0.00  0.00    +0.074 C 
ATOM     10  C   UNL     1       7.923   8.564   2.983  0.00  0.00    +0.024 C 
ATOM     11  C   UNL     1       9.116  11.063   3.638  0.00  0.00    +0.089 C 
ATOM     12  C   UNL     1       6.474  10.015   4.377  0.00  0.00    +0.019 C 
ATOM     13  C   UNL     1       6.727  11.211   3.442  0.00  0.00    +0.085 C 
ENDROOT
BRANCH   8  14
ATOM     14  C   UNL     1      10.207   9.253   5.052  0.00  0.00    +0.089 C 
BRANCH  14   5
ATOM      5  N   UNL     1       9.907   7.914   5.556  0.00  0.00    -0.298 NA
ATOM     16  C   UNL     1      10.898   6.943   5.077  0.00  0.00    +0.089 C 
ATOM     17  C   UNL     1       9.868   7.918   7.030  0.00  0.00    +0.119 C 
ATOM     18  C   UNL     1      10.453   5.522   5.441  0.00  0.00    +0.051 C 
ATOM     19  C   UNL     1       9.701   6.540   7.627  0.00  0.00    -0.030 A 
ATOM     20  C   UNL     1      10.025   5.394   6.879  0.00  0.00    -0.042 A 
ATOM     22  C   UNL     1       9.282   6.401   8.957  0.00  0.00    +0.005 A 
ATOM     23  C   UNL     1       9.887   4.126   7.460  0.00  0.00    +0.004 A 
ATOM     25  C   UNL     1       9.158   5.134   9.529  0.00  0.00    +0.000 A 
ATOM     26  C   UNL     1       9.459   3.999   8.781  0.00  0.00    +0.000 A 
ENDBRANCH  14   5
ENDBRANCH   8  14
BRANCH   9  15
ATOM     15  C   UNL     1       9.036   9.582   0.930  0.00  0.00    +0.123 C 
BRANCH  15   6
ATOM      1  O   UNL     1      11.720   9.110   1.837  0.00  0.00    -0.270 OA
ATOM      6  N   UNL     1       9.693   8.292   1.063  0.00  0.00    -0.310 N 
ATOM     21  C   UNL     1      10.995   8.174   1.510  0.00  0.00    +0.244 C 
ATOM     33  H   UNL     1       9.173   7.482   0.746  0.00  0.00    +0.149 HD
BRANCH  21  24
ATOM      2  O   UNL     1      14.666   4.881   1.607  0.00  0.00    -0.453 OA
ATOM      3  O   UNL     1      13.143   3.016   1.708  0.00  0.00    -0.453 OA
ATOM     24  C   UNL     1      11.531   6.789   1.564  0.00  0.00    +0.040 A 
ATOM     27  C   UNL     1      12.912   6.580   1.555  0.00  0.00    +0.062 A 
ATOM     28  C   UNL     1      10.642   5.701   1.622  0.00  0.00    +0.017 A 
ATOM     29  C   UNL     1      13.363   5.276   1.607  0.00  0.00    +0.167 A 
ATOM     30  C   UNL     1      11.125   4.391   1.674  0.00  0.00    +0.050 A 
ATOM     31  C   UNL     1      12.494   4.212   1.664  0.00  0.00    +0.166 A 
ATOM     32  C   UNL     1      14.518   3.449   1.672  0.00  0.00    +0.466 C 
ENDBRANCH  21  24
ENDBRANCH  15   6
ENDBRANCH   9  15
TORSDOF 5
ENDMDL
MODEL 10
REMARK VINA RESULT:      -6.6      3.275      7.057
REMARK  Name = 25389261
REMARK  5 active torsions:
REMARK  status: ('A' for Active; 'I' for Inactive)
REMARK    1  A    between atoms: N_5  and  C_14
REMARK    2  A    between atoms: N_6  and  C_15
REMARK    3  A    between atoms: C_8  and  C_14
REMARK    4  A    between atoms: C_9  and  C_15
REMARK    5  A    between atoms: C_21  and  C_24
REMARK                            x       y       z     vdW  Elec       q    Type
REMARK                         _______ _______ _______ _____ _____    ______ ____
ROOT
ATOM      4  N   UNL     1      -4.619 -11.886  10.329  0.00  0.00    -0.298 NA
ATOM      7  C   UNL     1      -3.527  -9.738  11.310  0.00  0.00    -0.003 C 
ATOM      8  C   UNL     1      -2.581 -10.953  11.453  0.00  0.00    +0.020 C 
ATOM      9  C   UNL     1      -5.545 -11.241  11.299  0.00  0.00    +0.074 C 
ATOM     10  C   UNL     1      -4.864 -10.048  12.008  0.00  0.00    +0.024 C 
ATOM     11  C   UNL     1      -3.333 -12.220  10.988  0.00  0.00    +0.089 C 
ATOM     12  C   UNL     1      -3.823  -9.576   9.807  0.00  0.00    +0.019 C 
ATOM     13  C   UNL     1      -4.342 -10.912   9.246  0.00  0.00    +0.085 C 
ENDROOT
BRANCH   8  14
ATOM     14  C   UNL     1      -2.019 -11.116  12.864  0.00  0.00    +0.089 C 
BRANCH  14   5
ATOM      5  N   UNL     1      -3.054 -11.578  13.787  0.00  0.00    -0.298 NA
ATOM     16  C   UNL     1      -2.789 -12.954  14.221  0.00  0.00    +0.089 C 
ATOM     17  C   UNL     1      -3.135 -10.682  14.956  0.00  0.00    +0.119 C 
ATOM     18  C   UNL     1      -3.984 -13.490  15.017  0.00  0.00    +0.051 C 
ATOM     19  C   UNL     1      -4.087 -11.174  16.021  0.00  0.00    -0.030 A 
ATOM     20  C   UNL     1      -4.458 -12.530  16.076  0.00  0.00    -0.042 A 
ATOM     22  C   UNL     1      -4.556 -10.289  17.002  0.00  0.00    +0.005 A 
ATOM     23  C   UNL     1      -5.322 -12.971  17.087  0.00  0.00    +0.004 A 
ATOM     25  C   UNL     1      -5.407 -10.741  18.011  0.00  0.00    +0.000 A 
ATOM     26  C   UNL     1      -5.791 -12.079  18.052  0.00  0.00    +0.000 A 
ENDBRANCH  14   5
ENDBRANCH   8  14
BRANCH   9  15
ATOM     15  C   UNL     1      -6.128 -12.240  12.301  0.00  0.00    +0.123 C 
BRANCH  15   6
ATOM      1  O   UNL     1      -7.856 -13.404  14.278  0.00  0.00    -0.270 OA
ATOM      6  N   UNL     1      -6.784 -11.546  13.398  0.00  0.00    -0.310 N 
ATOM     21  C   UNL     1      -7.600 -12.203  14.298  0.00  0.00    +0.244 C 
ATOM     33  H   UNL     1      -6.668 -10.540  13.432  0.00  0.00    +0.149 HD
BRANCH  21  24
ATOM      2  O   UNL     1     -10.527 -11.447  18.195  0.00  0.00    -0.453 OA
ATOM      3  O   UNL     1      -9.990  -9.100  18.287  0.00  0.00    -0.453 OA
ATOM     24  C   UNL     1      -8.217 -11.348  15.345  0.00  0.00    +0.040 A 
ATOM     27  C   UNL     1      -9.102 -11.912  16.267  0.00  0.00    +0.062 A 
ATOM     28  C   UNL     1      -7.904  -9.978  15.398  0.00  0.00    +0.017 A 
ATOM     29  C   UNL     1      -9.650 -11.078  17.221  0.00  0.00    +0.167 A 
ATOM     30  C   UNL     1      -8.473  -9.157  16.375  0.00  0.00    +0.050 A 
ATOM     31  C   UNL     1      -9.344  -9.738  17.273  0.00  0.00    +0.166 A 
ATOM     32  C   UNL     1     -10.737 -10.188  18.866  0.00  0.00    +0.466 C 
ENDBRANCH  21  24
ENDBRANCH  15   6
ENDBRANCH   9  15
TORSDOF 5
ENDMDL
