MODEL 1
REMARK VINA RESULT:      -5.9      0.000      0.000
REMARK  Name = 45783411
REMARK  9 active torsions:
REMARK  status: ('A' for Active; 'I' for Inactive)
REMARK    1  A    between atoms: O_2  and  C_22
REMARK    2  A    between atoms: O_2  and  C_26
REMARK    3  A    between atoms: O_3  and  C_27
REMARK    4  A    between atoms: O_3  and  C_28
REMARK    5  A    between atoms: N_4  and  C_9
REMARK    6  A    between atoms: C_8  and  C_9
REMARK    7  A    between atoms: C_10  and  C_19
REMARK    8  A    between atoms: C_20  and  C_21
REMARK    9  A    between atoms: C_26  and  C_27
REMARK                            x       y       z     vdW  Elec       q    Type
REMARK                         _______ _______ _______ _____ _____    ______ ____
ROOT
ATOM      1  O   UNL     1      -5.423 -12.419  15.277  0.00  0.00    -0.336 OA
ATOM      5  N   UNL     1      -5.411 -10.188  15.479  0.00  0.00    -0.190 NA
ATOM      6  N   UNL     1      -6.740 -12.047  15.574  0.00  0.00    -0.056 NA
ATOM     19  C   UNL     1      -4.706 -11.265  15.240  0.00  0.00    +0.245 A 
ATOM     20  C   UNL     1      -6.652 -10.718  15.678  0.00  0.00    +0.207 A 
ENDROOT
BRANCH  20  21
ATOM      7  N   UNL     1      -9.082  -8.637  17.590  0.00  0.00    -0.221 NA
ATOM     21  C   UNL     1      -7.785  -9.891  15.981  0.00  0.00    +0.084 A 
ATOM     22  C   UNL     1      -8.028  -9.418  17.260  0.00  0.00    +0.226 A 
ATOM     23  C   UNL     1      -8.678  -9.540  14.975  0.00  0.00    +0.018 A 
ATOM     24  C   UNL     1      -9.774  -8.738  15.276  0.00  0.00    +0.021 A 
ATOM     25  C   UNL     1      -9.930  -8.316  16.586  0.00  0.00    +0.114 A 
BRANCH  22   2
ATOM      2  O   UNL     1      -7.176  -9.738  18.285  0.00  0.00    -0.474 OA
BRANCH   2  26
ATOM     26  C   UNL     1      -7.568 -10.812  19.130  0.00  0.00    +0.258 C 
BRANCH  26  27
ATOM     27  C   UNL     1      -6.441 -11.825  19.198  0.00  0.00    +0.200 C 
BRANCH  27   3
ATOM      3  O   UNL     1      -5.220 -11.186  18.848  0.00  0.00    -0.380 OA
ATOM     28  C   UNL     1      -4.100 -12.018  19.116  0.00  0.00    +0.194 C 
ENDBRANCH  27   3
ENDBRANCH  26  27
ENDBRANCH   2  26
ENDBRANCH  22   2
ENDBRANCH  20  21
BRANCH  19  10
ATOM      4  N   UNL     1      -2.843 -10.699  13.690  0.00  0.00    -0.291 NA
ATOM     10  C   UNL     1      -3.229 -11.398  14.932  0.00  0.00    +0.146 C 
ATOM     13  C   UNL     1      -1.449 -10.291  13.861  0.00  0.00    +0.085 C 
ATOM     14  C   UNL     1      -2.337 -10.777  16.023  0.00  0.00    +0.030 C 
ATOM     15  C   UNL     1      -1.443  -9.787  15.290  0.00  0.00    +0.017 C 
BRANCH   4   9
ATOM      9  C   UNL     1      -3.035 -11.508  12.493  0.00  0.00    +0.088 C 
BRANCH   9   8
ATOM      8  C   UNL     1      -3.835 -10.741  11.440  0.00  0.00    +0.003 C 
ATOM     11  C   UNL     1      -4.965  -9.938  12.098  0.00  0.00    +0.005 C 
ATOM     12  C   UNL     1      -2.915  -9.823  10.625  0.00  0.00    +0.005 C 
ATOM     16  C   UNL     1      -5.746  -9.120  11.072  0.00  0.00    +0.000 C 
ATOM     17  C   UNL     1      -3.700  -9.005   9.602  0.00  0.00    +0.000 C 
ATOM     18  C   UNL     1      -4.827  -8.215  10.257  0.00  0.00    +0.000 C 
ENDBRANCH   9   8
ENDBRANCH   4   9
ENDBRANCH  19  10
TORSDOF 8
ENDMDL
MODEL 2
REMARK VINA RESULT:      -5.9     19.290     22.854
REMARK  Name = 45783411
REMARK  9 active torsions:
REMARK  status: ('A' for Active; 'I' for Inactive)
REMARK    1  A    between atoms: O_2  and  C_22
REMARK    2  A    between atoms: O_2  and  C_26
REMARK    3  A    between atoms: O_3  and  C_27
REMARK    4  A    between atoms: O_3  and  C_28
REMARK    5  A    between atoms: N_4  and  C_9
REMARK    6  A    between atoms: C_8  and  C_9
REMARK    7  A    between atoms: C_10  and  C_19
REMARK    8  A    between atoms: C_20  and  C_21
REMARK    9  A    between atoms: C_26  and  C_27
REMARK                            x       y       z     vdW  Elec       q    Type
REMARK                         _______ _______ _______ _____ _____    ______ ____
ROOT
ATOM      1  O   UNL     1     -16.047   4.410  28.682  0.00  0.00    -0.336 OA
ATOM      5  N   UNL     1     -15.717   2.358  27.844  0.00  0.00    -0.190 NA
ATOM      6  N   UNL     1     -16.665   4.398  27.426  0.00  0.00    -0.056 NA
ATOM     19  C   UNL     1     -15.513   3.171  28.850  0.00  0.00    +0.245 A 
ATOM     20  C   UNL     1     -16.428   3.155  26.995  0.00  0.00    +0.207 A 
ENDROOT
BRANCH  20  21
ATOM      7  N   UNL     1     -16.614   2.548  23.322  0.00  0.00    -0.221 NA
ATOM     21  C   UNL     1     -16.886   2.679  25.721  0.00  0.00    +0.084 A 
ATOM     22  C   UNL     1     -16.219   2.975  24.544  0.00  0.00    +0.226 A 
ATOM     23  C   UNL     1     -18.031   1.895  25.642  0.00  0.00    +0.018 A 
ATOM     24  C   UNL     1     -18.469   1.437  24.405  0.00  0.00    +0.021 A 
ATOM     25  C   UNL     1     -17.732   1.788  23.285  0.00  0.00    +0.114 A 
BRANCH  22   2
ATOM      2  O   UNL     1     -15.085   3.745  24.570  0.00  0.00    -0.474 OA
BRANCH   2  26
ATOM     26  C   UNL     1     -15.123   4.963  23.836  0.00  0.00    +0.258 C 
BRANCH  26  27
ATOM     27  C   UNL     1     -13.969   4.983  22.852  0.00  0.00    +0.200 C 
BRANCH  27   3
ATOM      3  O   UNL     1     -14.479   4.830  21.533  0.00  0.00    -0.380 OA
ATOM     28  C   UNL     1     -15.725   5.493  21.377  0.00  0.00    +0.194 C 
ENDBRANCH  27   3
ENDBRANCH  26  27
ENDBRANCH   2  26
ENDBRANCH  22   2
ENDBRANCH  20  21
BRANCH  19  10
ATOM      4  N   UNL     1     -15.695   2.694  31.286  0.00  0.00    -0.291 NA
ATOM     10  C   UNL     1     -14.779   2.924  30.151  0.00  0.00    +0.146 C 
ATOM     13  C   UNL     1     -14.986   1.820  32.220  0.00  0.00    +0.085 C 
ATOM     14  C   UNL     1     -13.893   1.665  30.104  0.00  0.00    +0.030 C 
ATOM     15  C   UNL     1     -14.344   0.817  31.284  0.00  0.00    +0.017 C 
BRANCH   4   9
ATOM      9  C   UNL     1     -16.143   3.928  31.921  0.00  0.00    +0.088 C 
BRANCH   9   8
ATOM      8  C   UNL     1     -14.995   4.600  32.673  0.00  0.00    +0.003 C 
ATOM     11  C   UNL     1     -14.679   5.973  32.065  0.00  0.00    +0.005 C 
ATOM     12  C   UNL     1     -15.328   4.728  34.166  0.00  0.00    +0.005 C 
ATOM     16  C   UNL     1     -13.570   6.689  32.833  0.00  0.00    +0.000 C 
ATOM     17  C   UNL     1     -14.218   5.446  34.931  0.00  0.00    +0.000 C 
ATOM     18  C   UNL     1     -13.900   6.805  34.318  0.00  0.00    +0.000 C 
ENDBRANCH   9   8
ENDBRANCH   4   9
ENDBRANCH  19  10
TORSDOF 8
ENDMDL
MODEL 3
REMARK VINA RESULT:      -5.8     23.001     26.050
REMARK  Name = 45783411
REMARK  9 active torsions:
REMARK  status: ('A' for Active; 'I' for Inactive)
REMARK    1  A    between atoms: O_2  and  C_22
REMARK    2  A    between atoms: O_2  and  C_26
REMARK    3  A    between atoms: O_3  and  C_27
REMARK    4  A    between atoms: O_3  and  C_28
REMARK    5  A    between atoms: N_4  and  C_9
REMARK    6  A    between atoms: C_8  and  C_9
REMARK    7  A    between atoms: C_10  and  C_19
REMARK    8  A    between atoms: C_20  and  C_21
REMARK    9  A    between atoms: C_26  and  C_27
REMARK                            x       y       z     vdW  Elec       q    Type
REMARK                         _______ _______ _______ _____ _____    ______ ____
ROOT
ATOM      1  O   UNL     1      11.475   3.303   2.573  0.00  0.00    -0.336 OA
ATOM      5  N   UNL     1      11.949   5.474   2.292  0.00  0.00    -0.190 NA
ATOM      6  N   UNL     1      10.464   4.012   3.235  0.00  0.00    -0.056 NA
ATOM     19  C   UNL     1      12.307   4.239   2.046  0.00  0.00    +0.245 A 
ATOM     20  C   UNL     1      10.813   5.285   3.024  0.00  0.00    +0.207 A 
ENDROOT
BRANCH  20  21
ATOM      7  N   UNL     1       9.306   7.725   5.404  0.00  0.00    -0.221 NA
ATOM     21  C   UNL     1      10.050   6.389   3.531  0.00  0.00    +0.084 A 
ATOM     22  C   UNL     1      10.011   6.695   4.882  0.00  0.00    +0.226 A 
ATOM     23  C   UNL     1       9.321   7.189   2.660  0.00  0.00    +0.018 A 
ATOM     24  C   UNL     1       8.584   8.258   3.158  0.00  0.00    +0.021 A 
ATOM     25  C   UNL     1       8.609   8.482   4.526  0.00  0.00    +0.114 A 
BRANCH  22   2
ATOM      2  O   UNL     1      10.712   5.934   5.780  0.00  0.00    -0.474 OA
BRANCH   2  26
ATOM     26  C   UNL     1       9.948   5.176   6.710  0.00  0.00    +0.258 C 
BRANCH  26  27
ATOM     27  C   UNL     1      10.426   5.487   8.115  0.00  0.00    +0.200 C 
BRANCH  27   3
ATOM      3  O   UNL     1      10.180   4.362   8.950  0.00  0.00    -0.380 OA
ATOM     28  C   UNL     1       9.169   4.636   9.909  0.00  0.00    +0.194 C 
ENDBRANCH  27   3
ENDBRANCH  26  27
ENDBRANCH   2  26
ENDBRANCH  22   2
ENDBRANCH  20  21
BRANCH  19  10
ATOM      4  N   UNL     1      13.386   3.980  -0.181  0.00  0.00    -0.291 NA
ATOM     10  C   UNL     1      13.498   3.721   1.268  0.00  0.00    +0.146 C 
ATOM     13  C   UNL     1      14.753   4.112  -0.685  0.00  0.00    +0.085 C 
ATOM     14  C   UNL     1      14.819   4.396   1.685  0.00  0.00    +0.030 C 
ATOM     15  C   UNL     1      15.405   4.951   0.395  0.00  0.00    +0.017 C 
BRANCH   4   9
ATOM      9  C   UNL     1      12.636   2.952  -0.892  0.00  0.00    +0.088 C 
BRANCH   9   8
ATOM      8  C   UNL     1      11.313   3.508  -1.417  0.00  0.00    +0.003 C 
ATOM     11  C   UNL     1      11.320   5.042  -1.385  0.00  0.00    +0.005 C 
ATOM     12  C   UNL     1      11.034   2.992  -2.835  0.00  0.00    +0.005 C 
ATOM     16  C   UNL     1      10.028   5.624  -1.954  0.00  0.00    +0.000 C 
ATOM     17  C   UNL     1       9.742   3.578  -3.402  0.00  0.00    +0.000 C 
ATOM     18  C   UNL     1       9.748   5.102  -3.360  0.00  0.00    +0.000 C 
ENDBRANCH   9   8
ENDBRANCH   4   9
ENDBRANCH  19  10
TORSDOF 8
ENDMDL
MODEL 4
REMARK VINA RESULT:      -5.6      1.745      3.387
REMARK  Name = 45783411
REMARK  9 active torsions:
REMARK  status: ('A' for Active; 'I' for Inactive)
REMARK    1  A    between atoms: O_2  and  C_22
REMARK    2  A    between atoms: O_2  and  C_26
REMARK    3  A    between atoms: O_3  and  C_27
REMARK    4  A    between atoms: O_3  and  C_28
REMARK    5  A    between atoms: N_4  and  C_9
REMARK    6  A    between atoms: C_8  and  C_9
REMARK    7  A    between atoms: C_10  and  C_19
REMARK    8  A    between atoms: C_20  and  C_21
REMARK    9  A    between atoms: C_26  and  C_27
REMARK                            x       y       z     vdW  Elec       q    Type
REMARK                         _______ _______ _______ _____ _____    ______ ____
ROOT
ATOM      1  O   UNL     1      -4.477 -10.016  16.965  0.00  0.00    -0.336 OA
ATOM      5  N   UNL     1      -5.285 -12.073  16.594  0.00  0.00    -0.190 NA
ATOM      6  N   UNL     1      -5.669 -10.104  17.694  0.00  0.00    -0.056 NA
ATOM     19  C   UNL     1      -4.325 -11.217  16.347  0.00  0.00    +0.245 A 
ATOM     20  C   UNL     1      -6.086 -11.345  17.425  0.00  0.00    +0.207 A 
ENDROOT
BRANCH  20  21
ATOM      7  N   UNL     1      -9.677 -12.279  17.780  0.00  0.00    -0.221 NA
ATOM     21  C   UNL     1      -7.298 -11.888  17.968  0.00  0.00    +0.084 A 
ATOM     22  C   UNL     1      -8.511 -11.783  17.306  0.00  0.00    +0.226 A 
ATOM     23  C   UNL     1      -7.279 -12.542  19.194  0.00  0.00    +0.018 A 
ATOM     24  C   UNL     1      -8.457 -13.065  19.715  0.00  0.00    +0.021 A 
ATOM     25  C   UNL     1      -9.619 -12.909  18.976  0.00  0.00    +0.114 A 
BRANCH  22   2
ATOM      2  O   UNL     1      -8.581 -11.146  16.095  0.00  0.00    -0.474 OA
BRANCH   2  26
ATOM     26  C   UNL     1      -9.519 -10.083  15.985  0.00  0.00    +0.258 C 
BRANCH  26  27
ATOM     27  C   UNL     1      -8.905  -8.820  16.560  0.00  0.00    +0.200 C 
BRANCH  27   3
ATOM      3  O   UNL     1      -9.748  -8.322  17.591  0.00  0.00    -0.380 OA
ATOM     28  C   UNL     1     -11.097  -8.725  17.402  0.00  0.00    +0.194 C 
ENDBRANCH  27   3
ENDBRANCH  26  27
ENDBRANCH   2  26
ENDBRANCH  22   2
ENDBRANCH  20  21
BRANCH  19  10
ATOM      4  N   UNL     1      -3.105 -10.496  14.301  0.00  0.00    -0.291 NA
ATOM     10  C   UNL     1      -3.091 -11.380  15.484  0.00  0.00    +0.146 C 
ATOM     13  C   UNL     1      -1.706 -10.208  13.984  0.00  0.00    +0.085 C 
ATOM     14  C   UNL     1      -1.793 -11.017  16.229  0.00  0.00    +0.030 C 
ATOM     15  C   UNL     1      -1.117  -9.967  15.358  0.00  0.00    +0.017 C 
BRANCH   4   9
ATOM      9  C   UNL     1      -3.819 -11.068  13.166  0.00  0.00    +0.088 C 
BRANCH   9   8
ATOM      8  C   UNL     1      -4.046 -10.016  12.081  0.00  0.00    +0.003 C 
ATOM     11  C   UNL     1      -3.408 -10.457  10.757  0.00  0.00    +0.005 C 
ATOM     12  C   UNL     1      -5.545  -9.741  11.900  0.00  0.00    +0.005 C 
ATOM     16  C   UNL     1      -3.668  -9.447   9.642  0.00  0.00    +0.000 C 
ATOM     17  C   UNL     1      -5.801  -8.731  10.783  0.00  0.00    +0.000 C 
ATOM     18  C   UNL     1      -5.157  -9.168   9.471  0.00  0.00    +0.000 C 
ENDBRANCH   9   8
ENDBRANCH   4   9
ENDBRANCH  19  10
TORSDOF 8
ENDMDL
MODEL 5
REMARK VINA RESULT:      -5.5      2.036      6.697
REMARK  Name = 45783411
REMARK  9 active torsions:
REMARK  status: ('A' for Active; 'I' for Inactive)
REMARK    1  A    between atoms: O_2  and  C_22
REMARK    2  A    between atoms: O_2  and  C_26
REMARK    3  A    between atoms: O_3  and  C_27
REMARK    4  A    between atoms: O_3  and  C_28
REMARK    5  A    between atoms: N_4  and  C_9
REMARK    6  A    between atoms: C_8  and  C_9
REMARK    7  A    between atoms: C_10  and  C_19
REMARK    8  A    between atoms: C_20  and  C_21
REMARK    9  A    between atoms: C_26  and  C_27
REMARK                            x       y       z     vdW  Elec       q    Type
REMARK                         _______ _______ _______ _____ _____    ______ ____
ROOT
ATOM      1  O   UNL     1      -8.452 -11.246  13.415  0.00  0.00    -0.336 OA
ATOM      5  N   UNL     1      -7.247  -9.365  13.582  0.00  0.00    -0.190 NA
ATOM      6  N   UNL     1      -7.450 -11.337  12.440  0.00  0.00    -0.056 NA
ATOM     19  C   UNL     1      -8.260 -10.055  14.041  0.00  0.00    +0.245 A 
ATOM     20  C   UNL     1      -6.781 -10.191  12.601  0.00  0.00    +0.207 A 
ENDROOT
BRANCH  20  21
ATOM      7  N   UNL     1      -3.260  -9.940  11.405  0.00  0.00    -0.221 NA
ATOM     21  C   UNL     1      -5.644  -9.842  11.799  0.00  0.00    +0.084 A 
ATOM     22  C   UNL     1      -4.360 -10.244  12.131  0.00  0.00    +0.226 A 
ATOM     23  C   UNL     1      -5.811  -9.079  10.650  0.00  0.00    +0.018 A 
ATOM     24  C   UNL     1      -4.704  -8.745   9.877  0.00  0.00    +0.021 A 
ATOM     25  C   UNL     1      -3.462  -9.196  10.293  0.00  0.00    +0.114 A 
BRANCH  22   2
ATOM      2  O   UNL     1      -4.144 -10.998  13.255  0.00  0.00    -0.474 OA
BRANCH   2  26
ATOM     26  C   UNL     1      -3.078 -11.938  13.199  0.00  0.00    +0.258 C 
BRANCH  26  27
ATOM     27  C   UNL     1      -2.198 -11.762  14.422  0.00  0.00    +0.200 C 
BRANCH  27   3
ATOM      3  O   UNL     1      -1.933 -10.377  14.609  0.00  0.00    -0.380 OA
ATOM     28  C   UNL     1      -0.999 -10.161  15.657  0.00  0.00    +0.194 C 
ENDBRANCH  27   3
ENDBRANCH  26  27
ENDBRANCH   2  26
ENDBRANCH  22   2
ENDBRANCH  20  21
BRANCH  19  10
ATOM      4  N   UNL     1      -8.545  -9.391  16.422  0.00  0.00    -0.291 NA
ATOM     10  C   UNL     1      -9.229  -9.715  15.154  0.00  0.00    +0.146 C 
ATOM     13  C   UNL     1      -9.414  -8.454  17.134  0.00  0.00    +0.085 C 
ATOM     14  C   UNL     1     -10.080  -8.470  14.841  0.00  0.00    +0.030 C 
ATOM     15  C   UNL     1      -9.858  -7.530  16.017  0.00  0.00    +0.017 C 
BRANCH   4   9
ATOM      9  C   UNL     1      -8.237 -10.569  17.224  0.00  0.00    +0.088 C 
BRANCH   9   8
ATOM      8  C   UNL     1      -6.823 -10.482  17.798  0.00  0.00    +0.003 C 
ATOM     11  C   UNL     1      -6.588 -11.592  18.831  0.00  0.00    +0.005 C 
ATOM     12  C   UNL     1      -5.779 -10.550  16.676  0.00  0.00    +0.005 C 
ATOM     16  C   UNL     1      -5.164 -11.559  19.380  0.00  0.00    +0.000 C 
ATOM     17  C   UNL     1      -4.355 -10.518  17.229  0.00  0.00    +0.000 C 
ATOM     18  C   UNL     1      -4.128 -11.617  18.262  0.00  0.00    +0.000 C 
ENDBRANCH   9   8
ENDBRANCH   4   9
ENDBRANCH  19  10
TORSDOF 8
ENDMDL
MODEL 6
REMARK VINA RESULT:      -5.5     24.389     27.676
REMARK  Name = 45783411
REMARK  9 active torsions:
REMARK  status: ('A' for Active; 'I' for Inactive)
REMARK    1  A    between atoms: O_2  and  C_22
REMARK    2  A    between atoms: O_2  and  C_26
REMARK    3  A    between atoms: O_3  and  C_27
REMARK    4  A    between atoms: O_3  and  C_28
REMARK    5  A    between atoms: N_4  and  C_9
REMARK    6  A    between atoms: C_8  and  C_9
REMARK    7  A    between atoms: C_10  and  C_19
REMARK    8  A    between atoms: C_20  and  C_21
REMARK    9  A    between atoms: C_26  and  C_27
REMARK                            x       y       z     vdW  Elec       q    Type
REMARK                         _______ _______ _______ _____ _____    ______ ____
ROOT
ATOM      1  O   UNL     1      11.520   6.769   3.656  0.00  0.00    -0.336 OA
ATOM      5  N   UNL     1      10.946   4.639   3.266  0.00  0.00    -0.190 NA
ATOM      6  N   UNL     1      11.866   6.509   2.324  0.00  0.00    -0.056 NA
ATOM     19  C   UNL     1      10.985   5.616   4.137  0.00  0.00    +0.245 A 
ATOM     20  C   UNL     1      11.496   5.234   2.169  0.00  0.00    +0.207 A 
ENDROOT
BRANCH  20  21
ATOM      7  N   UNL     1      12.895   2.935  -0.410  0.00  0.00    -0.221 NA
ATOM     21  C   UNL     1      11.664   4.526   0.933  0.00  0.00    +0.084 A 
ATOM     22  C   UNL     1      12.698   3.624   0.738  0.00  0.00    +0.226 A 
ATOM     23  C   UNL     1      10.776   4.735  -0.115  0.00  0.00    +0.018 A 
ATOM     24  C   UNL     1      10.944   4.045  -1.310  0.00  0.00    +0.021 A 
ATOM     25  C   UNL     1      12.010   3.164  -1.407  0.00  0.00    +0.114 A 
BRANCH  22   2
ATOM      2  O   UNL     1      13.601   3.385   1.741  0.00  0.00    -0.474 OA
BRANCH   2  26
ATOM     26  C   UNL     1      14.970   3.626   1.440  0.00  0.00    +0.258 C 
BRANCH  26  27
ATOM     27  C   UNL     1      15.187   5.120   1.286  0.00  0.00    +0.200 C 
BRANCH  27   3
ATOM      3  O   UNL     1      15.842   5.369   0.049  0.00  0.00    -0.380 OA
ATOM     28  C   UNL     1      16.315   4.167  -0.542  0.00  0.00    +0.194 C 
ENDBRANCH  27   3
ENDBRANCH  26  27
ENDBRANCH   2  26
ENDBRANCH  22   2
ENDBRANCH  20  21
BRANCH  19  10
ATOM      4  N   UNL     1      10.977   6.841   6.303  0.00  0.00    -0.291 NA
ATOM     10  C   UNL     1      10.524   5.637   5.579  0.00  0.00    +0.146 C 
ATOM     13  C   UNL     1       9.972   7.109   7.331  0.00  0.00    +0.085 C 
ATOM     14  C   UNL     1       8.989   5.655   5.713  0.00  0.00    +0.030 C 
ATOM     15  C   UNL     1       8.680   6.869   6.577  0.00  0.00    +0.017 C 
BRANCH   4   9
ATOM      9  C   UNL     1      12.315   6.704   6.865  0.00  0.00    +0.088 C 
BRANCH   9   8
ATOM      8  C   UNL     1      13.280   7.700   6.224  0.00  0.00    +0.003 C 
ATOM     11  C   UNL     1      13.048   9.112   6.778  0.00  0.00    +0.005 C 
ATOM     12  C   UNL     1      14.734   7.260   6.441  0.00  0.00    +0.005 C 
ATOM     16  C   UNL     1      14.036  10.117   6.192  0.00  0.00    +0.000 C 
ATOM     17  C   UNL     1      15.720   8.269   5.854  0.00  0.00    +0.000 C 
ATOM     18  C   UNL     1      15.480   9.673   6.400  0.00  0.00    +0.000 C 
ENDBRANCH   9   8
ENDBRANCH   4   9
ENDBRANCH  19  10
TORSDOF 8
ENDMDL
MODEL 7
REMARK VINA RESULT:      -5.4      1.679      6.345
REMARK  Name = 45783411
REMARK  9 active torsions:
REMARK  status: ('A' for Active; 'I' for Inactive)
REMARK    1  A    between atoms: O_2  and  C_22
REMARK    2  A    between atoms: O_2  and  C_26
REMARK    3  A    between atoms: O_3  and  C_27
REMARK    4  A    between atoms: O_3  and  C_28
REMARK    5  A    between atoms: N_4  and  C_9
REMARK    6  A    between atoms: C_8  and  C_9
REMARK    7  A    between atoms: C_10  and  C_19
REMARK    8  A    between atoms: C_20  and  C_21
REMARK    9  A    between atoms: C_26  and  C_27
REMARK                            x       y       z     vdW  Elec       q    Type
REMARK                         _______ _______ _______ _____ _____    ______ ____
ROOT
ATOM      1  O   UNL     1      -6.057 -11.979  14.906  0.00  0.00    -0.336 OA
ATOM      5  N   UNL     1      -5.069  -9.991  14.610  0.00  0.00    -0.190 NA
ATOM      6  N   UNL     1      -5.839 -11.853  13.528  0.00  0.00    -0.056 NA
ATOM     19  C   UNL     1      -5.575 -10.840  15.469  0.00  0.00    +0.245 A 
ATOM     20  C   UNL     1      -5.254 -10.656  13.433  0.00  0.00    +0.207 A 
ENDROOT
BRANCH  20  21
ATOM      7  N   UNL     1      -3.325 -10.085  10.296  0.00  0.00    -0.221 NA
ATOM     21  C   UNL     1      -4.842 -10.095  12.178  0.00  0.00    +0.084 A 
ATOM     22  C   UNL     1      -3.749 -10.582  11.480  0.00  0.00    +0.226 A 
ATOM     23  C   UNL     1      -5.547  -9.032  11.627  0.00  0.00    +0.018 A 
ATOM     24  C   UNL     1      -5.142  -8.494  10.410  0.00  0.00    +0.021 A 
ATOM     25  C   UNL     1      -4.035  -9.051   9.790  0.00  0.00    +0.114 A 
BRANCH  22   2
ATOM      2  O   UNL     1      -3.021 -11.629  11.984  0.00  0.00    -0.474 OA
BRANCH   2  26
ATOM     26  C   UNL     1      -1.891 -11.297  12.781  0.00  0.00    +0.258 C 
BRANCH  26  27
ATOM     27  C   UNL     1      -1.726 -12.344  13.866  0.00  0.00    +0.200 C 
BRANCH  27   3
ATOM      3  O   UNL     1      -2.240 -11.830  15.089  0.00  0.00    -0.380 OA
ATOM     28  C   UNL     1      -1.456 -10.748  15.570  0.00  0.00    +0.194 C 
ENDBRANCH  27   3
ENDBRANCH  26  27
ENDBRANCH   2  26
ENDBRANCH  22   2
ENDBRANCH  20  21
BRANCH  19  10
ATOM      4  N   UNL     1      -7.095 -10.642  17.429  0.00  0.00    -0.291 NA
ATOM     10  C   UNL     1      -5.693 -10.729  16.974  0.00  0.00    +0.146 C 
ATOM     13  C   UNL     1      -7.134 -11.233  18.766  0.00  0.00    +0.085 C 
ATOM     14  C   UNL     1      -5.120 -11.957  17.707  0.00  0.00    +0.030 C 
ATOM     15  C   UNL     1      -6.253 -12.454  18.594  0.00  0.00    +0.017 C 
BRANCH   4   9
ATOM      9  C   UNL     1      -7.619  -9.282  17.415  0.00  0.00    +0.088 C 
BRANCH   9   8
ATOM      8  C   UNL     1      -9.027  -9.247  16.822  0.00  0.00    +0.003 C 
ATOM     11  C   UNL     1      -9.793  -8.013  17.318  0.00  0.00    +0.005 C 
ATOM     12  C   UNL     1      -8.969  -9.274  15.289  0.00  0.00    +0.005 C 
ATOM     16  C   UNL     1     -11.186  -7.927  16.697  0.00  0.00    +0.000 C 
ATOM     17  C   UNL     1     -10.364  -9.186  14.672  0.00  0.00    +0.000 C 
ATOM     18  C   UNL     1     -11.125  -7.964  15.174  0.00  0.00    +0.000 C 
ENDBRANCH   9   8
ENDBRANCH   4   9
ENDBRANCH  19  10
TORSDOF 8
ENDMDL
MODEL 8
REMARK VINA RESULT:      -5.4      2.302      3.938
REMARK  Name = 45783411
REMARK  9 active torsions:
REMARK  status: ('A' for Active; 'I' for Inactive)
REMARK    1  A    between atoms: O_2  and  C_22
REMARK    2  A    between atoms: O_2  and  C_26
REMARK    3  A    between atoms: O_3  and  C_27
REMARK    4  A    between atoms: O_3  and  C_28
REMARK    5  A    between atoms: N_4  and  C_9
REMARK    6  A    between atoms: C_8  and  C_9
REMARK    7  A    between atoms: C_10  and  C_19
REMARK    8  A    between atoms: C_20  and  C_21
REMARK    9  A    between atoms: C_26  and  C_27
REMARK                            x       y       z     vdW  Elec       q    Type
REMARK                         _______ _______ _______ _____ _____    ______ ____
ROOT
ATOM      1  O   UNL     1      -2.783 -12.214  14.909  0.00  0.00    -0.336 OA
ATOM      5  N   UNL     1      -4.631 -13.122  15.794  0.00  0.00    -0.190 NA
ATOM      6  N   UNL     1      -3.186 -11.354  15.938  0.00  0.00    -0.056 NA
ATOM     19  C   UNL     1      -3.688 -13.229  14.892  0.00  0.00    +0.245 A 
ATOM     20  C   UNL     1      -4.282 -11.957  16.412  0.00  0.00    +0.207 A 
ENDROOT
BRANCH  20  21
ATOM      7  N   UNL     1      -6.669  -9.826  18.322  0.00  0.00    -0.221 NA
ATOM     21  C   UNL     1      -5.049 -11.421  17.499  0.00  0.00    +0.084 A 
ATOM     22  C   UNL     1      -5.926 -10.362  17.327  0.00  0.00    +0.226 A 
ATOM     23  C   UNL     1      -4.925 -11.964  18.772  0.00  0.00    +0.018 A 
ATOM     24  C   UNL     1      -5.672 -11.439  19.821  0.00  0.00    +0.021 A 
ATOM     25  C   UNL     1      -6.522 -10.380  19.547  0.00  0.00    +0.114 A 
BRANCH  22   2
ATOM      2  O   UNL     1      -6.083  -9.793  16.090  0.00  0.00    -0.474 OA
BRANCH   2  26
ATOM     26  C   UNL     1      -7.216 -10.205  15.335  0.00  0.00    +0.258 C 
BRANCH  26  27
ATOM     27  C   UNL     1      -6.911 -10.047  13.858  0.00  0.00    +0.200 C 
BRANCH  27   3
ATOM      3  O   UNL     1      -6.248 -11.217  13.393  0.00  0.00    -0.380 OA
ATOM     28  C   UNL     1      -7.135 -12.323  13.315  0.00  0.00    +0.194 C 
ENDBRANCH  27   3
ENDBRANCH  26  27
ENDBRANCH   2  26
ENDBRANCH  22   2
ENDBRANCH  20  21
BRANCH  19  10
ATOM      4  N   UNL     1      -2.933 -13.775  12.584  0.00  0.00    -0.291 NA
ATOM     10  C   UNL     1      -3.471 -14.308  13.852  0.00  0.00    +0.146 C 
ATOM     13  C   UNL     1      -2.140 -14.849  11.987  0.00  0.00    +0.085 C 
ATOM     14  C   UNL     1      -2.442 -15.365  14.298  0.00  0.00    +0.030 C 
ATOM     15  C   UNL     1      -1.399 -15.397  13.190  0.00  0.00    +0.017 C 
BRANCH   4   9
ATOM      9  C   UNL     1      -3.970 -13.291  11.681  0.00  0.00    +0.088 C 
BRANCH   9   8
ATOM      8  C   UNL     1      -3.467 -12.103  10.862  0.00  0.00    +0.003 C 
ATOM     11  C   UNL     1      -4.601 -11.509  10.015  0.00  0.00    +0.005 C 
ATOM     12  C   UNL     1      -2.853 -11.036  11.778  0.00  0.00    +0.005 C 
ATOM     16  C   UNL     1      -4.136 -10.287   9.228  0.00  0.00    +0.000 C 
ATOM     17  C   UNL     1      -2.391  -9.814  10.987  0.00  0.00    +0.000 C 
ATOM     18  C   UNL     1      -3.518  -9.232  10.140  0.00  0.00    +0.000 C 
ENDBRANCH   9   8
ENDBRANCH   4   9
ENDBRANCH  19  10
TORSDOF 8
ENDMDL
MODEL 9
REMARK VINA RESULT:      -5.4      2.079      6.909
REMARK  Name = 45783411
REMARK  9 active torsions:
REMARK  status: ('A' for Active; 'I' for Inactive)
REMARK    1  A    between atoms: O_2  and  C_22
REMARK    2  A    between atoms: O_2  and  C_26
REMARK    3  A    between atoms: O_3  and  C_27
REMARK    4  A    between atoms: O_3  and  C_28
REMARK    5  A    between atoms: N_4  and  C_9
REMARK    6  A    between atoms: C_8  and  C_9
REMARK    7  A    between atoms: C_10  and  C_19
REMARK    8  A    between atoms: C_20  and  C_21
REMARK    9  A    between atoms: C_26  and  C_27
REMARK                            x       y       z     vdW  Elec       q    Type
REMARK                         _______ _______ _______ _____ _____    ______ ____
ROOT
ATOM      1  O   UNL     1      -5.126 -12.374  16.219  0.00  0.00    -0.336 OA
ATOM      5  N   UNL     1      -4.659 -10.259  15.649  0.00  0.00    -0.190 NA
ATOM      6  N   UNL     1      -4.564 -12.431  14.937  0.00  0.00    -0.056 NA
ATOM     19  C   UNL     1      -5.145 -11.060  16.563  0.00  0.00    +0.245 A 
ATOM     20  C   UNL     1      -4.315 -11.145  14.670  0.00  0.00    +0.207 A 
ENDROOT
BRANCH  20  21
ATOM      7  N   UNL     1      -3.981  -9.876  11.181  0.00  0.00    -0.221 NA
ATOM     21  C   UNL     1      -3.725 -10.713  13.436  0.00  0.00    +0.084 A 
ATOM     22  C   UNL     1      -4.493 -10.292  12.362  0.00  0.00    +0.226 A 
ATOM     23  C   UNL     1      -2.343 -10.708  13.290  0.00  0.00    +0.018 A 
ATOM     24  C   UNL     1      -1.778 -10.288  12.091  0.00  0.00    +0.021 A 
ATOM     25  C   UNL     1      -2.632  -9.885  11.076  0.00  0.00    +0.114 A 
BRANCH  22   2
ATOM      2  O   UNL     1      -5.860 -10.279  12.458  0.00  0.00    -0.474 OA
BRANCH   2  26
ATOM     26  C   UNL     1      -6.516  -9.073  12.086  0.00  0.00    +0.258 C 
BRANCH  26  27
ATOM     27  C   UNL     1      -7.723  -9.409  11.231  0.00  0.00    +0.200 C 
BRANCH  27   3
ATOM      3  O   UNL     1      -7.739  -8.554  10.094  0.00  0.00    -0.380 OA
ATOM     28  C   UNL     1      -8.482  -9.123   9.025  0.00  0.00    +0.194 C 
ENDBRANCH  27   3
ENDBRANCH  26  27
ENDBRANCH   2  26
ENDBRANCH  22   2
ENDBRANCH  20  21
BRANCH  19  10
ATOM      4  N   UNL     1      -7.183 -10.572  17.906  0.00  0.00    -0.291 NA
ATOM     10  C   UNL     1      -5.715 -10.728  17.926  0.00  0.00    +0.146 C 
ATOM     13  C   UNL     1      -7.660 -10.961  19.233  0.00  0.00    +0.085 C 
ATOM     14  C   UNL     1      -5.455 -11.836  18.965  0.00  0.00    +0.030 C 
ATOM     15  C   UNL     1      -6.827 -12.195  19.516  0.00  0.00    +0.017 C 
BRANCH   4   9
ATOM      9  C   UNL     1      -7.612  -9.228  17.540  0.00  0.00    +0.088 C 
BRANCH   9   8
ATOM      8  C   UNL     1      -8.991  -9.257  16.882  0.00  0.00    +0.003 C 
ATOM     11  C   UNL     1      -9.794  -8.002  17.253  0.00  0.00    +0.005 C 
ATOM     12  C   UNL     1      -8.861  -9.391  15.359  0.00  0.00    +0.005 C 
ATOM     16  C   UNL     1     -11.157  -7.982  16.565  0.00  0.00    +0.000 C 
ATOM     17  C   UNL     1     -10.226  -9.368  14.674  0.00  0.00    +0.000 C 
ATOM     18  C   UNL     1     -11.025  -8.126  15.052  0.00  0.00    +0.000 C 
ENDBRANCH   9   8
ENDBRANCH   4   9
ENDBRANCH  19  10
TORSDOF 8
ENDMDL
MODEL 10
REMARK VINA RESULT:      -5.3      1.780      7.084
REMARK  Name = 45783411
REMARK  9 active torsions:
REMARK  status: ('A' for Active; 'I' for Inactive)
REMARK    1  A    between atoms: O_2  and  C_22
REMARK    2  A    between atoms: O_2  and  C_26
REMARK    3  A    between atoms: O_3  and  C_27
REMARK    4  A    between atoms: O_3  and  C_28
REMARK    5  A    between atoms: N_4  and  C_9
REMARK    6  A    between atoms: C_8  and  C_9
REMARK    7  A    between atoms: C_10  and  C_19
REMARK    8  A    between atoms: C_20  and  C_21
REMARK    9  A    between atoms: C_26  and  C_27
REMARK                            x       y       z     vdW  Elec       q    Type
REMARK                         _______ _______ _______ _____ _____    ______ ____
ROOT
ATOM      1  O   UNL     1      -6.045 -12.426  17.685  0.00  0.00    -0.336 OA
ATOM      5  N   UNL     1      -5.474 -10.333  17.127  0.00  0.00    -0.190 NA
ATOM      6  N   UNL     1      -4.930 -12.537  16.845  0.00  0.00    -0.056 NA
ATOM     19  C   UNL     1      -6.299 -11.096  17.799  0.00  0.00    +0.245 A 
ATOM     20  C   UNL     1      -4.652 -11.261  16.558  0.00  0.00    +0.207 A 
ENDROOT
BRANCH  20  21
ATOM      7  N   UNL     1      -2.699 -10.448  13.490  0.00  0.00    -0.221 NA
ATOM     21  C   UNL     1      -3.562 -10.881  15.707  0.00  0.00    +0.084 A 
ATOM     22  C   UNL     1      -3.698 -10.802  14.330  0.00  0.00    +0.226 A 
ATOM     23  C   UNL     1      -2.322 -10.578  16.257  0.00  0.00    +0.018 A 
ATOM     24  C   UNL     1      -1.270 -10.211  15.426  0.00  0.00    +0.021 A 
ATOM     25  C   UNL     1      -1.507 -10.161  14.062  0.00  0.00    +0.114 A 
BRANCH  22   2
ATOM      2  O   UNL     1      -4.901 -11.091  13.740  0.00  0.00    -0.474 OA
BRANCH   2  26
ATOM     26  C   UNL     1      -5.695  -9.984  13.333  0.00  0.00    +0.258 C 
BRANCH  26  27
ATOM     27  C   UNL     1      -5.867 -10.026  11.826  0.00  0.00    +0.200 C 
BRANCH  27   3
ATOM      3  O   UNL     1      -6.139  -8.713  11.352  0.00  0.00    -0.380 OA
ATOM     28  C   UNL     1      -6.480  -8.716   9.973  0.00  0.00    +0.194 C 
ENDBRANCH  27   3
ENDBRANCH  26  27
ENDBRANCH   2  26
ENDBRANCH  22   2
ENDBRANCH  20  21
BRANCH  19  10
ATOM      4  N   UNL     1      -8.692 -10.416  17.884  0.00  0.00    -0.291 NA
ATOM     10  C   UNL     1      -7.475 -10.706  18.669  0.00  0.00    +0.146 C 
ATOM     13  C   UNL     1      -9.828 -10.752  18.741  0.00  0.00    +0.085 C 
ATOM     14  C   UNL     1      -7.895 -11.828  19.639  0.00  0.00    +0.030 C 
ATOM     15  C   UNL     1      -9.375 -12.056  19.366  0.00  0.00    +0.017 C 
BRANCH   4   9
ATOM      9  C   UNL     1      -8.752  -9.040  17.407  0.00  0.00    +0.088 C 
BRANCH   9   8
ATOM      8  C   UNL     1     -10.048  -8.786  16.639  0.00  0.00    +0.003 C 
ATOM     11  C   UNL     1     -10.603  -7.391  16.958  0.00  0.00    +0.005 C 
ATOM     12  C   UNL     1      -9.824  -8.953  15.130  0.00  0.00    +0.005 C 
ATOM     16  C   UNL     1     -11.871  -7.093  16.161  0.00  0.00    +0.000 C 
ATOM     17  C   UNL     1     -11.094  -8.652  14.336  0.00  0.00    +0.000 C 
ATOM     18  C   UNL     1     -11.647  -7.269  14.663  0.00  0.00    +0.000 C 
ENDBRANCH   9   8
ENDBRANCH   4   9
ENDBRANCH  19  10
TORSDOF 8
ENDMDL
