MODEL 1
REMARK VINA RESULT:      -6.4      0.000      0.000
REMARK  Name = 25390395
REMARK  14 active torsions:
REMARK  status: ('A' for Active; 'I' for Inactive)
REMARK    1  A    between atoms: O_2  and  C_10
REMARK    2  A    between atoms: O_3  and  C_11
REMARK    3  A    between atoms: N_6  and  C_15
REMARK    4  A    between atoms: N_7  and  C_18
REMARK    5  A    between atoms: N_8  and  C_20
REMARK    6  A    between atoms: N_9  and  C_19
REMARK    7  A    between atoms: N_9  and  C_23
REMARK    8  A    between atoms: N_9  and  C_24
REMARK    9  A    between atoms: C_12  and  C_14
REMARK   10  A    between atoms: C_13  and  C_15
REMARK   11  A    between atoms: C_14  and  C_16
REMARK   12  A    between atoms: C_18  and  C_19
REMARK   13  A    between atoms: C_20  and  C_21
REMARK   14  A    between atoms: C_20  and  C_22
REMARK                            x       y       z     vdW  Elec       q    Type
REMARK                         _______ _______ _______ _____ _____    ______ ____
ROOT
ATOM      1  O   UNL     1      11.167   8.603  20.031  0.00  0.00    -0.366 OA
ATOM     10  C   UNL     1      11.914   6.883  21.458  0.00  0.00    +0.175 C 
ATOM     11  C   UNL     1      10.781   7.606  22.155  0.00  0.00    +0.176 C 
ATOM     12  C   UNL     1      11.665   7.254  20.006  0.00  0.00    +0.158 C 
ATOM     13  C   UNL     1      10.702   8.907  21.366  0.00  0.00    +0.167 C 
ENDROOT
BRANCH  10   2
ATOM      2  O   UNL     1      11.893   5.485  21.659  0.00  0.00    -0.387 OA
ATOM     25  H   UNL     1      11.057   5.267  22.104  0.00  0.00    +0.210 HD
ENDBRANCH  10   2
BRANCH  11   3
ATOM      3  O   UNL     1       9.554   6.900  21.969  0.00  0.00    -0.387 OA
ATOM     26  H   UNL     1       9.294   7.010  21.039  0.00  0.00    +0.210 HD
ENDBRANCH  11   3
BRANCH  12  14
ATOM     14  C   UNL     1      12.914   7.187  19.145  0.00  0.00    +0.130 C 
BRANCH  14  16
ATOM      4  O   UNL     1      14.530   8.700  20.120  0.00  0.00    -0.276 OA
ATOM      7  N   UNL     1      14.849   6.409  20.337  0.00  0.00    -0.314 N 
ATOM     16  C   UNL     1      14.173   7.543  19.914  0.00  0.00    +0.216 C 
ATOM     28  H   UNL     1      14.465   5.493  20.122  0.00  0.00    +0.149 HD
BRANCH   7  18
ATOM     18  C   UNL     1      16.081   6.460  21.090  0.00  0.00    +0.119 C 
BRANCH  18  19
ATOM     19  C   UNL     1      17.292   6.409  20.169  0.00  0.00    +0.102 C 
BRANCH  19   9
ATOM      9  N   UNL     1      18.312   7.345  20.623  0.00  0.00    -0.307 NA
ATOM     23  C   UNL     1      19.412   6.634  21.279  0.00  0.00    +0.104 C 
ATOM     24  C   UNL     1      17.736   8.337  21.532  0.00  0.00    +0.104 C 
ENDBRANCH  19   9
ENDBRANCH  18  19
ENDBRANCH   7  18
ENDBRANCH  14  16
ENDBRANCH  12  14
BRANCH  13  15
ATOM     15  C   UNL     1      11.595  10.003  21.931  0.00  0.00    +0.140 C 
BRANCH  15   6
ATOM      5  O   UNL     1      12.501  12.438  23.187  0.00  0.00    -0.253 OA
ATOM      6  N   UNL     1      10.762  11.031  22.581  0.00  0.00    -0.297 N 
ATOM      8  N   UNL     1      10.297  12.958  23.690  0.00  0.00    -0.297 N 
ATOM     17  C   UNL     1      11.303  12.160  23.152  0.00  0.00    +0.300 C 
ATOM     27  H   UNL     1       9.755  10.898  22.595  0.00  0.00    +0.150 HD
ATOM     29  H   UNL     1       9.331  12.682  23.544  0.00  0.00    +0.150 HD
BRANCH   8  20
ATOM     20  C   UNL     1      10.563  14.212  24.356  0.00  0.00    +0.068 C 
ATOM     21  C   UNL     1      10.566  14.018  25.867  0.00  0.00    +0.027 C 
ATOM     22  C   UNL     1       9.547  15.266  23.936  0.00  0.00    +0.027 C 
ENDBRANCH   8  20
ENDBRANCH  15   6
ENDBRANCH  13  15
TORSDOF 10
ENDMDL
MODEL 2
REMARK VINA RESULT:      -6.4      3.686      4.500
REMARK  Name = 25390395
REMARK  14 active torsions:
REMARK  status: ('A' for Active; 'I' for Inactive)
REMARK    1  A    between atoms: O_2  and  C_10
REMARK    2  A    between atoms: O_3  and  C_11
REMARK    3  A    between atoms: N_6  and  C_15
REMARK    4  A    between atoms: N_7  and  C_18
REMARK    5  A    between atoms: N_8  and  C_20
REMARK    6  A    between atoms: N_9  and  C_19
REMARK    7  A    between atoms: N_9  and  C_23
REMARK    8  A    between atoms: N_9  and  C_24
REMARK    9  A    between atoms: C_12  and  C_14
REMARK   10  A    between atoms: C_13  and  C_15
REMARK   11  A    between atoms: C_14  and  C_16
REMARK   12  A    between atoms: C_18  and  C_19
REMARK   13  A    between atoms: C_20  and  C_21
REMARK   14  A    between atoms: C_20  and  C_22
REMARK                            x       y       z     vdW  Elec       q    Type
REMARK                         _______ _______ _______ _____ _____    ______ ____
ROOT
ATOM      1  O   UNL     1      10.590   8.395  20.465  0.00  0.00    -0.366 OA
ATOM     10  C   UNL     1      12.659   7.275  20.611  0.00  0.00    +0.175 C 
ATOM     11  C   UNL     1      11.695   6.598  21.563  0.00  0.00    +0.176 C 
ATOM     12  C   UNL     1      11.705   7.976  19.659  0.00  0.00    +0.158 C 
ATOM     13  C   UNL     1      10.597   7.646  21.702  0.00  0.00    +0.167 C 
ENDROOT
BRANCH  10   2
ATOM      2  O   UNL     1      13.509   6.370  19.939  0.00  0.00    -0.387 OA
ATOM     25  H   UNL     1      13.787   6.794  19.109  0.00  0.00    +0.210 HD
ENDBRANCH  10   2
BRANCH  11   3
ATOM      3  O   UNL     1      11.127   5.440  20.952  0.00  0.00    -0.387 OA
ATOM     26  H   UNL     1      10.161   5.554  20.956  0.00  0.00    +0.210 HD
ENDBRANCH  11   3
BRANCH  12  14
ATOM     14  C   UNL     1      12.320   9.181  18.970  0.00  0.00    +0.130 C 
BRANCH  14  16
ATOM      4  O   UNL     1      12.972   7.751  17.131  0.00  0.00    -0.276 OA
ATOM      7  N   UNL     1      12.828  10.045  16.786  0.00  0.00    -0.314 N 
ATOM     16  C   UNL     1      12.740   8.885  17.542  0.00  0.00    +0.216 C 
ATOM     28  H   UNL     1      12.607  10.937  17.219  0.00  0.00    +0.149 HD
BRANCH   7  18
ATOM     18  C   UNL     1      13.210  10.051  15.393  0.00  0.00    +0.119 C 
BRANCH  18  19
ATOM     19  C   UNL     1      14.451  10.902  15.166  0.00  0.00    +0.102 C 
BRANCH  19   9
ATOM      9  N   UNL     1      14.417  11.504  13.840  0.00  0.00    -0.307 NA
ATOM     23  C   UNL     1      15.756  11.932  13.431  0.00  0.00    +0.104 C 
ATOM     24  C   UNL     1      13.492  12.639  13.811  0.00  0.00    +0.104 C 
ENDBRANCH  19   9
ENDBRANCH  18  19
ENDBRANCH   7  18
ENDBRANCH  14  16
ENDBRANCH  12  14
BRANCH  13  15
ATOM     15  C   UNL     1      10.850   8.627  22.839  0.00  0.00    +0.140 C 
BRANCH  15   6
ATOM      5  O   UNL     1      11.727  11.086  24.069  0.00  0.00    -0.253 OA
ATOM      6  N   UNL     1      10.575  10.000  22.375  0.00  0.00    -0.297 N 
ATOM      8  N   UNL     1      10.644  12.270  22.392  0.00  0.00    -0.297 N 
ATOM     17  C   UNL     1      11.047  11.107  23.043  0.00  0.00    +0.300 C 
ATOM     27  H   UNL     1      10.029  10.122  21.528  0.00  0.00    +0.150 HD
ATOM     29  H   UNL     1      10.150  12.184  21.510  0.00  0.00    +0.150 HD
BRANCH   8  20
ATOM     20  C   UNL     1      10.990  13.590  22.863  0.00  0.00    +0.068 C 
ATOM     21  C   UNL     1       9.917  14.112  23.810  0.00  0.00    +0.027 C 
ATOM     22  C   UNL     1      11.199  14.539  21.690  0.00  0.00    +0.027 C 
ENDBRANCH   8  20
ENDBRANCH  15   6
ENDBRANCH  13  15
TORSDOF 10
ENDMDL
MODEL 3
REMARK VINA RESULT:      -6.0      3.859      7.737
REMARK  Name = 25390395
REMARK  14 active torsions:
REMARK  status: ('A' for Active; 'I' for Inactive)
REMARK    1  A    between atoms: O_2  and  C_10
REMARK    2  A    between atoms: O_3  and  C_11
REMARK    3  A    between atoms: N_6  and  C_15
REMARK    4  A    between atoms: N_7  and  C_18
REMARK    5  A    between atoms: N_8  and  C_20
REMARK    6  A    between atoms: N_9  and  C_19
REMARK    7  A    between atoms: N_9  and  C_23
REMARK    8  A    between atoms: N_9  and  C_24
REMARK    9  A    between atoms: C_12  and  C_14
REMARK   10  A    between atoms: C_13  and  C_15
REMARK   11  A    between atoms: C_14  and  C_16
REMARK   12  A    between atoms: C_18  and  C_19
REMARK   13  A    between atoms: C_20  and  C_21
REMARK   14  A    between atoms: C_20  and  C_22
REMARK                            x       y       z     vdW  Elec       q    Type
REMARK                         _______ _______ _______ _____ _____    ______ ____
ROOT
ATOM      1  O   UNL     1      13.898   8.760  19.617  0.00  0.00    -0.366 OA
ATOM     10  C   UNL     1      12.709   7.869  21.447  0.00  0.00    +0.175 C 
ATOM     11  C   UNL     1      14.176   7.905  21.819  0.00  0.00    +0.176 C 
ATOM     12  C   UNL     1      12.653   8.892  20.326  0.00  0.00    +0.158 C 
ATOM     13  C   UNL     1      14.845   8.062  20.459  0.00  0.00    +0.167 C 
ENDROOT
BRANCH  10   2
ATOM      2  O   UNL     1      11.851   8.207  22.517  0.00  0.00    -0.387 OA
ATOM     25  H   UNL     1      12.354   8.777  23.124  0.00  0.00    +0.210 HD
ENDBRANCH  10   2
BRANCH  11   3
ATOM      3  O   UNL     1      14.462   9.072  22.591  0.00  0.00    -0.387 OA
ATOM     26  H   UNL     1      15.277   9.463  22.234  0.00  0.00    +0.210 HD
ENDBRANCH  11   3
BRANCH  12  14
ATOM     14  C   UNL     1      11.494   8.674  19.368  0.00  0.00    +0.130 C 
BRANCH  14  16
ATOM      4  O   UNL     1      11.943   7.331  17.408  0.00  0.00    -0.276 OA
ATOM      7  N   UNL     1      12.383   9.611  17.343  0.00  0.00    -0.314 N 
ATOM     16  C   UNL     1      11.954   8.436  17.942  0.00  0.00    +0.216 C 
ATOM     28  H   UNL     1      12.345  10.479  17.869  0.00  0.00    +0.149 HD
BRANCH   7  18
ATOM     18  C   UNL     1      12.875   9.671  15.986  0.00  0.00    +0.119 C 
BRANCH  18  19
ATOM     19  C   UNL     1      13.933  10.755  15.830  0.00  0.00    +0.102 C 
BRANCH  19   9
ATOM      9  N   UNL     1      14.207  10.996  14.420  0.00  0.00    -0.307 NA
ATOM     23  C   UNL     1      15.650  11.054  14.176  0.00  0.00    +0.104 C 
ATOM     24  C   UNL     1      13.567  12.235  13.973  0.00  0.00    +0.104 C 
ENDBRANCH  19   9
ENDBRANCH  18  19
ENDBRANCH   7  18
ENDBRANCH  14  16
ENDBRANCH  12  14
BRANCH  13  15
ATOM     15  C   UNL     1      15.166   6.730  19.795  0.00  0.00    +0.140 C 
BRANCH  15   6
ATOM      5  O   UNL     1      17.282   6.164  21.673  0.00  0.00    -0.253 OA
ATOM      6  N   UNL     1      16.610   6.658  19.510  0.00  0.00    -0.297 N 
ATOM      8  N   UNL     1      18.820   6.370  19.948  0.00  0.00    -0.297 N 
ATOM     17  C   UNL     1      17.537   6.379  20.489  0.00  0.00    +0.300 C 
ATOM     27  H   UNL     1      16.922   6.810  18.556  0.00  0.00    +0.150 HD
ATOM     29  H   UNL     1      18.923   6.482  18.945  0.00  0.00    +0.150 HD
BRANCH   8  20
ATOM     20  C   UNL     1      20.000   6.106  20.738  0.00  0.00    +0.068 C 
ATOM     21  C   UNL     1      21.044   7.192  20.510  0.00  0.00    +0.027 C 
ATOM     22  C   UNL     1      20.561   4.726  20.417  0.00  0.00    +0.027 C 
ENDBRANCH   8  20
ENDBRANCH  15   6
ENDBRANCH  13  15
TORSDOF 10
ENDMDL
MODEL 4
REMARK VINA RESULT:      -6.0      2.589      6.677
REMARK  Name = 25390395
REMARK  14 active torsions:
REMARK  status: ('A' for Active; 'I' for Inactive)
REMARK    1  A    between atoms: O_2  and  C_10
REMARK    2  A    between atoms: O_3  and  C_11
REMARK    3  A    between atoms: N_6  and  C_15
REMARK    4  A    between atoms: N_7  and  C_18
REMARK    5  A    between atoms: N_8  and  C_20
REMARK    6  A    between atoms: N_9  and  C_19
REMARK    7  A    between atoms: N_9  and  C_23
REMARK    8  A    between atoms: N_9  and  C_24
REMARK    9  A    between atoms: C_12  and  C_14
REMARK   10  A    between atoms: C_13  and  C_15
REMARK   11  A    between atoms: C_14  and  C_16
REMARK   12  A    between atoms: C_18  and  C_19
REMARK   13  A    between atoms: C_20  and  C_21
REMARK   14  A    between atoms: C_20  and  C_22
REMARK                            x       y       z     vdW  Elec       q    Type
REMARK                         _______ _______ _______ _____ _____    ______ ____
ROOT
ATOM      1  O   UNL     1      12.722  10.143  21.415  0.00  0.00    -0.366 OA
ATOM     10  C   UNL     1      11.424  10.828  23.259  0.00  0.00    +0.175 C 
ATOM     11  C   UNL     1      12.490  11.878  23.024  0.00  0.00    +0.176 C 
ATOM     12  C   UNL     1      11.370  10.141  21.906  0.00  0.00    +0.158 C 
ATOM     13  C   UNL     1      13.486  11.129  22.146  0.00  0.00    +0.167 C 
ENDROOT
BRANCH  10   2
ATOM      2  O   UNL     1      10.175  11.371  23.628  0.00  0.00    -0.387 OA
ATOM     25  H   UNL     1      10.335  12.014  24.340  0.00  0.00    +0.210 HD
ENDBRANCH  10   2
BRANCH  11   3
ATOM      3  O   UNL     1      11.957  12.963  22.265  0.00  0.00    -0.387 OA
ATOM     26  H   UNL     1      11.789  12.632  21.365  0.00  0.00    +0.210 HD
ENDBRANCH  11   3
BRANCH  12  14
ATOM     14  C   UNL     1      10.853   8.715  21.974  0.00  0.00    +0.130 C 
BRANCH  14  16
ATOM      4  O   UNL     1      11.293   6.749  20.635  0.00  0.00    -0.276 OA
ATOM      7  N   UNL     1      10.973   8.793  19.576  0.00  0.00    -0.314 N 
ATOM     16  C   UNL     1      11.066   7.955  20.678  0.00  0.00    +0.216 C 
ATOM     28  H   UNL     1      10.773   9.779  19.718  0.00  0.00    +0.149 HD
BRANCH   7  18
ATOM     18  C   UNL     1      11.137   8.330  18.217  0.00  0.00    +0.119 C 
BRANCH  18  19
ATOM     19  C   UNL     1      12.501   8.718  17.663  0.00  0.00    +0.102 C 
BRANCH  19   9
ATOM      9  N   UNL     1      12.434   8.870  16.216  0.00  0.00    -0.307 NA
ATOM     23  C   UNL     1      13.302   9.963  15.771  0.00  0.00    +0.104 C 
ATOM     24  C   UNL     1      11.056   9.109  15.784  0.00  0.00    +0.104 C 
ENDBRANCH  19   9
ENDBRANCH  18  19
ENDBRANCH   7  18
ENDBRANCH  14  16
ENDBRANCH  12  14
BRANCH  13  15
ATOM     15  C   UNL     1      14.551  10.393  22.947  0.00  0.00    +0.140 C 
BRANCH  15   6
ATOM      5  O   UNL     1      14.752   7.584  22.318  0.00  0.00    -0.253 OA
ATOM      6  N   UNL     1      15.508   9.756  22.023  0.00  0.00    -0.297 N 
ATOM      8  N   UNL     1      16.512   8.066  20.886  0.00  0.00    -0.297 N 
ATOM     17  C   UNL     1      15.514   8.398  21.797  0.00  0.00    +0.300 C 
ATOM     27  H   UNL     1      16.173  10.347  21.535  0.00  0.00    +0.150 HD
ATOM     29  H   UNL     1      17.041   8.817  20.452  0.00  0.00    +0.150 HD
BRANCH   8  20
ATOM     20  C   UNL     1      16.759   6.710  20.454  0.00  0.00    +0.068 C 
ATOM     21  C   UNL     1      18.256   6.455  20.339  0.00  0.00    +0.027 C 
ATOM     22  C   UNL     1      16.050   6.432  19.134  0.00  0.00    +0.027 C 
ENDBRANCH   8  20
ENDBRANCH  15   6
ENDBRANCH  13  15
TORSDOF 10
ENDMDL
MODEL 5
REMARK VINA RESULT:      -6.0      3.192      4.071
REMARK  Name = 25390395
REMARK  14 active torsions:
REMARK  status: ('A' for Active; 'I' for Inactive)
REMARK    1  A    between atoms: O_2  and  C_10
REMARK    2  A    between atoms: O_3  and  C_11
REMARK    3  A    between atoms: N_6  and  C_15
REMARK    4  A    between atoms: N_7  and  C_18
REMARK    5  A    between atoms: N_8  and  C_20
REMARK    6  A    between atoms: N_9  and  C_19
REMARK    7  A    between atoms: N_9  and  C_23
REMARK    8  A    between atoms: N_9  and  C_24
REMARK    9  A    between atoms: C_12  and  C_14
REMARK   10  A    between atoms: C_13  and  C_15
REMARK   11  A    between atoms: C_14  and  C_16
REMARK   12  A    between atoms: C_18  and  C_19
REMARK   13  A    between atoms: C_20  and  C_21
REMARK   14  A    between atoms: C_20  and  C_22
REMARK                            x       y       z     vdW  Elec       q    Type
REMARK                         _______ _______ _______ _____ _____    ______ ____
ROOT
ATOM      1  O   UNL     1      12.380   7.203  19.031  0.00  0.00    -0.366 OA
ATOM     10  C   UNL     1      13.814   7.300  20.899  0.00  0.00    +0.175 C 
ATOM     11  C   UNL     1      12.391   7.208  21.409  0.00  0.00    +0.176 C 
ATOM     12  C   UNL     1      13.668   6.755  19.489  0.00  0.00    +0.158 C 
ATOM     13  C   UNL     1      11.585   7.594  20.174  0.00  0.00    +0.167 C 
ENDROOT
BRANCH  10   2
ATOM      2  O   UNL     1      14.733   6.550  21.664  0.00  0.00    -0.387 OA
ATOM     25  H   UNL     1      15.318   6.084  21.043  0.00  0.00    +0.210 HD
ENDBRANCH  10   2
BRANCH  11   3
ATOM      3  O   UNL     1      12.072   5.858  21.743  0.00  0.00    -0.387 OA
ATOM     26  H   UNL     1      11.268   5.620  21.250  0.00  0.00    +0.210 HD
ENDBRANCH  11   3
BRANCH  12  14
ATOM     14  C   UNL     1      14.746   7.245  18.538  0.00  0.00    +0.130 C 
BRANCH  14  16
ATOM      4  O   UNL     1      13.874   7.957  16.398  0.00  0.00    -0.276 OA
ATOM      7  N   UNL     1      14.201   9.537  18.070  0.00  0.00    -0.314 N 
ATOM     16  C   UNL     1      14.223   8.257  17.536  0.00  0.00    +0.216 C 
ATOM     28  H   UNL     1      14.505   9.680  19.029  0.00  0.00    +0.149 HD
BRANCH   7  18
ATOM     18  C   UNL     1      13.749  10.693  17.330  0.00  0.00    +0.119 C 
BRANCH  18  19
ATOM     19  C   UNL     1      14.911  11.612  16.981  0.00  0.00    +0.102 C 
BRANCH  19   9
ATOM      9  N   UNL     1      14.918  11.899  15.552  0.00  0.00    -0.307 NA
ATOM     23  C   UNL     1      13.777  11.262  14.892  0.00  0.00    +0.104 C 
ATOM     24  C   UNL     1      16.172  11.452  14.941  0.00  0.00    +0.104 C 
ENDBRANCH  19   9
ENDBRANCH  18  19
ENDBRANCH   7  18
ENDBRANCH  14  16
ENDBRANCH  12  14
BRANCH  13  15
ATOM     15  C   UNL     1      11.329   9.092  20.073  0.00  0.00    +0.140 C 
BRANCH  15   6
ATOM      5  O   UNL     1      12.091  11.609  21.260  0.00  0.00    -0.253 OA
ATOM      6  N   UNL     1      10.922   9.612  21.391  0.00  0.00    -0.297 N 
ATOM      8  N   UNL     1      10.815  11.077  23.123  0.00  0.00    -0.297 N 
ATOM     17  C   UNL     1      11.348  10.834  21.860  0.00  0.00    +0.300 C 
ATOM     27  H   UNL     1      10.298   9.048  21.960  0.00  0.00    +0.150 HD
ATOM     29  H   UNL     1      10.150  10.412  23.504  0.00  0.00    +0.150 HD
BRANCH   8  20
ATOM     20  C   UNL     1      11.087  12.284  23.868  0.00  0.00    +0.068 C 
ATOM     21  C   UNL     1      11.009  12.011  25.364  0.00  0.00    +0.027 C 
ATOM     22  C   UNL     1      10.126  13.393  23.459  0.00  0.00    +0.027 C 
ENDBRANCH   8  20
ENDBRANCH  15   6
ENDBRANCH  13  15
TORSDOF 10
ENDMDL
MODEL 6
REMARK VINA RESULT:      -5.9     29.104     30.552
REMARK  Name = 25390395
REMARK  14 active torsions:
REMARK  status: ('A' for Active; 'I' for Inactive)
REMARK    1  A    between atoms: O_2  and  C_10
REMARK    2  A    between atoms: O_3  and  C_11
REMARK    3  A    between atoms: N_6  and  C_15
REMARK    4  A    between atoms: N_7  and  C_18
REMARK    5  A    between atoms: N_8  and  C_20
REMARK    6  A    between atoms: N_9  and  C_19
REMARK    7  A    between atoms: N_9  and  C_23
REMARK    8  A    between atoms: N_9  and  C_24
REMARK    9  A    between atoms: C_12  and  C_14
REMARK   10  A    between atoms: C_13  and  C_15
REMARK   11  A    between atoms: C_14  and  C_16
REMARK   12  A    between atoms: C_18  and  C_19
REMARK   13  A    between atoms: C_20  and  C_21
REMARK   14  A    between atoms: C_20  and  C_22
REMARK                            x       y       z     vdW  Elec       q    Type
REMARK                         _______ _______ _______ _____ _____    ______ ____
ROOT
ATOM      1  O   UNL     1     -13.761   2.598  31.506  0.00  0.00    -0.366 OA
ATOM     10  C   UNL     1     -14.954   0.577  31.284  0.00  0.00    +0.175 C 
ATOM     11  C   UNL     1     -14.303   0.882  29.952  0.00  0.00    +0.176 C 
ATOM     12  C   UNL     1     -14.106   1.406  32.234  0.00  0.00    +0.158 C 
ATOM     13  C   UNL     1     -13.965   2.361  30.094  0.00  0.00    +0.167 C 
ENDROOT
BRANCH  10   2
ATOM      2  O   UNL     1     -14.933  -0.795  31.616  0.00  0.00    -0.387 OA
ATOM     25  H   UNL     1     -15.775  -1.180  31.317  0.00  0.00    +0.210 HD
ENDBRANCH  10   2
BRANCH  11   3
ATOM      3  O   UNL     1     -13.080   0.158  29.821  0.00  0.00    -0.387 OA
ATOM     26  H   UNL     1     -12.872   0.109  28.872  0.00  0.00    +0.210 HD
ENDBRANCH  11   3
BRANCH  12  14
ATOM     14  C   UNL     1     -14.830   1.781  33.516  0.00  0.00    +0.130 C 
BRANCH  14  16
ATOM      4  O   UNL     1     -16.379   3.618  33.238  0.00  0.00    -0.276 OA
ATOM      7  N   UNL     1     -14.209   4.063  33.942  0.00  0.00    -0.314 N 
ATOM     16  C   UNL     1     -15.251   3.239  33.541  0.00  0.00    +0.216 C 
ATOM     28  H   UNL     1     -13.313   3.649  34.180  0.00  0.00    +0.149 HD
BRANCH   7  18
ATOM     18  C   UNL     1     -14.336   5.498  34.052  0.00  0.00    +0.119 C 
BRANCH  18  19
ATOM     19  C   UNL     1     -13.954   6.186  32.749  0.00  0.00    +0.102 C 
BRANCH  19   9
ATOM      9  N   UNL     1     -14.992   7.128  32.351  0.00  0.00    -0.307 NA
ATOM     23  C   UNL     1     -15.836   6.553  31.300  0.00  0.00    +0.104 C 
ATOM     24  C   UNL     1     -14.401   8.387  31.895  0.00  0.00    +0.104 C 
ENDBRANCH  19   9
ENDBRANCH  18  19
ENDBRANCH   7  18
ENDBRANCH  14  16
ENDBRANCH  12  14
BRANCH  13  15
ATOM     15  C   UNL     1     -15.087   3.278  29.625  0.00  0.00    +0.140 C 
BRANCH  15   6
ATOM      5  O   UNL     1     -17.342   3.668  27.868  0.00  0.00    -0.253 OA
ATOM      6  N   UNL     1     -15.060   3.375  28.154  0.00  0.00    -0.297 N 
ATOM      8  N   UNL     1     -15.894   3.620  26.056  0.00  0.00    -0.297 N 
ATOM     17  C   UNL     1     -16.204   3.563  27.412  0.00  0.00    +0.300 C 
ATOM     27  H   UNL     1     -14.163   3.311  27.683  0.00  0.00    +0.150 HD
ATOM     29  H   UNL     1     -14.917   3.600  25.782  0.00  0.00    +0.150 HD
BRANCH   8  20
ATOM     20  C   UNL     1     -16.894   3.809  25.031  0.00  0.00    +0.068 C 
ATOM     21  C   UNL     1     -17.235   2.479  24.372  0.00  0.00    +0.027 C 
ATOM     22  C   UNL     1     -16.420   4.829  24.004  0.00  0.00    +0.027 C 
ENDBRANCH   8  20
ENDBRANCH  15   6
ENDBRANCH  13  15
TORSDOF 10
ENDMDL
MODEL 7
REMARK VINA RESULT:      -5.8     16.007     18.157
REMARK  Name = 25390395
REMARK  14 active torsions:
REMARK  status: ('A' for Active; 'I' for Inactive)
REMARK    1  A    between atoms: O_2  and  C_10
REMARK    2  A    between atoms: O_3  and  C_11
REMARK    3  A    between atoms: N_6  and  C_15
REMARK    4  A    between atoms: N_7  and  C_18
REMARK    5  A    between atoms: N_8  and  C_20
REMARK    6  A    between atoms: N_9  and  C_19
REMARK    7  A    between atoms: N_9  and  C_23
REMARK    8  A    between atoms: N_9  and  C_24
REMARK    9  A    between atoms: C_12  and  C_14
REMARK   10  A    between atoms: C_13  and  C_15
REMARK   11  A    between atoms: C_14  and  C_16
REMARK   12  A    between atoms: C_18  and  C_19
REMARK   13  A    between atoms: C_20  and  C_21
REMARK   14  A    between atoms: C_20  and  C_22
REMARK                            x       y       z     vdW  Elec       q    Type
REMARK                         _______ _______ _______ _____ _____    ______ ____
ROOT
ATOM      1  O   UNL     1       9.736   6.045   5.736  0.00  0.00    -0.366 OA
ATOM     10  C   UNL     1      11.695   6.575   6.935  0.00  0.00    +0.175 C 
ATOM     11  C   UNL     1      10.677   6.040   7.920  0.00  0.00    +0.176 C 
ATOM     12  C   UNL     1      11.169   6.019   5.622  0.00  0.00    +0.158 C 
ATOM     13  C   UNL     1       9.378   6.162   7.133  0.00  0.00    +0.167 C 
ENDROOT
BRANCH  10   2
ATOM      2  O   UNL     1      13.013   6.145   7.203  0.00  0.00    -0.387 OA
ATOM     25  H   UNL     1      13.005   5.173   7.214  0.00  0.00    +0.210 HD
ENDBRANCH  10   2
BRANCH  11   3
ATOM      3  O   UNL     1      10.914   4.656   8.174  0.00  0.00    -0.387 OA
ATOM     26  H   UNL     1      11.730   4.593   8.699  0.00  0.00    +0.210 HD
ENDBRANCH  11   3
BRANCH  12  14
ATOM     14  C   UNL     1      11.600   6.827   4.411  0.00  0.00    +0.130 C 
BRANCH  14  16
ATOM      4  O   UNL     1      11.172   6.639   2.038  0.00  0.00    -0.276 OA
ATOM      7  N   UNL     1      11.481   4.706   3.290  0.00  0.00    -0.314 N 
ATOM     16  C   UNL     1      11.393   6.078   3.107  0.00  0.00    +0.216 C 
ATOM     28  H   UNL     1      11.676   4.340   4.218  0.00  0.00    +0.149 HD
BRANCH   7  18
ATOM     18  C   UNL     1      11.322   3.755   2.214  0.00  0.00    +0.119 C 
BRANCH  18  19
ATOM     19  C   UNL     1      12.671   3.271   1.701  0.00  0.00    +0.102 C 
BRANCH  19   9
ATOM      9  N   UNL     1      12.894   3.744   0.341  0.00  0.00    -0.307 NA
ATOM     23  C   UNL     1      13.736   4.942   0.342  0.00  0.00    +0.104 C 
ATOM     24  C   UNL     1      11.621   4.019  -0.326  0.00  0.00    +0.104 C 
ENDBRANCH  19   9
ENDBRANCH  18  19
ENDBRANCH   7  18
ENDBRANCH  14  16
ENDBRANCH  12  14
BRANCH  13  15
ATOM     15  C   UNL     1       8.687   7.505   7.325  0.00  0.00    +0.140 C 
BRANCH  15   6
ATOM      5  O   UNL     1       8.685   9.919   5.744  0.00  0.00    -0.253 OA
ATOM      6  N   UNL     1       7.844   7.798   6.151  0.00  0.00    -0.297 N 
ATOM      8  N   UNL     1       7.025   9.001   4.408  0.00  0.00    -0.297 N 
ATOM     17  C   UNL     1       7.927   8.990   5.469  0.00  0.00    +0.300 C 
ATOM     27  H   UNL     1       7.191   7.086   5.837  0.00  0.00    +0.150 HD
ATOM     29  H   UNL     1       6.497   8.157   4.213  0.00  0.00    +0.150 HD
BRANCH   8  20
ATOM     20  C   UNL     1       6.886  10.124   3.511  0.00  0.00    +0.068 C 
ATOM     21  C   UNL     1       5.605  10.890   3.817  0.00  0.00    +0.027 C 
ATOM     22  C   UNL     1       6.917   9.658   2.061  0.00  0.00    +0.027 C 
ENDBRANCH   8  20
ENDBRANCH  15   6
ENDBRANCH  13  15
TORSDOF 10
ENDMDL
MODEL 8
REMARK VINA RESULT:      -5.7     27.686     30.349
REMARK  Name = 25390395
REMARK  14 active torsions:
REMARK  status: ('A' for Active; 'I' for Inactive)
REMARK    1  A    between atoms: O_2  and  C_10
REMARK    2  A    between atoms: O_3  and  C_11
REMARK    3  A    between atoms: N_6  and  C_15
REMARK    4  A    between atoms: N_7  and  C_18
REMARK    5  A    between atoms: N_8  and  C_20
REMARK    6  A    between atoms: N_9  and  C_19
REMARK    7  A    between atoms: N_9  and  C_23
REMARK    8  A    between atoms: N_9  and  C_24
REMARK    9  A    between atoms: C_12  and  C_14
REMARK   10  A    between atoms: C_13  and  C_15
REMARK   11  A    between atoms: C_14  and  C_16
REMARK   12  A    between atoms: C_18  and  C_19
REMARK   13  A    between atoms: C_20  and  C_21
REMARK   14  A    between atoms: C_20  and  C_22
REMARK                            x       y       z     vdW  Elec       q    Type
REMARK                         _______ _______ _______ _____ _____    ______ ____
ROOT
ATOM      1  O   UNL     1     -16.835   1.485  28.098  0.00  0.00    -0.366 OA
ATOM     10  C   UNL     1     -15.380   3.191  28.825  0.00  0.00    +0.175 C 
ATOM     11  C   UNL     1     -16.466   3.831  27.986  0.00  0.00    +0.176 C 
ATOM     12  C   UNL     1     -16.039   1.883  29.228  0.00  0.00    +0.158 C 
ATOM     13  C   UNL     1     -17.042   2.632  27.242  0.00  0.00    +0.167 C 
ENDROOT
BRANCH  10   2
ATOM      2  O   UNL     1     -15.010   3.965  29.946  0.00  0.00    -0.387 OA
ATOM     25  H   UNL     1     -15.669   3.804  30.642  0.00  0.00    +0.210 HD
ENDBRANCH  10   2
BRANCH  11   3
ATOM      3  O   UNL     1     -17.489   4.366  28.825  0.00  0.00    -0.387 OA
ATOM     26  H   UNL     1     -17.347   5.327  28.879  0.00  0.00    +0.210 HD
ENDBRANCH  11   3
BRANCH  12  14
ATOM     14  C   UNL     1     -15.044   0.786  29.563  0.00  0.00    +0.130 C 
BRANCH  14  16
ATOM      4  O   UNL     1     -15.155  -0.701  31.468  0.00  0.00    -0.276 OA
ATOM      7  N   UNL     1     -14.865   1.577  31.824  0.00  0.00    -0.314 N 
ATOM     16  C   UNL     1     -15.030   0.444  31.042  0.00  0.00    +0.216 C 
ATOM     28  H   UNL     1     -14.762   2.481  31.373  0.00  0.00    +0.149 HD
BRANCH   7  18
ATOM     18  C   UNL     1     -14.818   1.539  33.268  0.00  0.00    +0.119 C 
BRANCH  18  19
ATOM     19  C   UNL     1     -14.494   2.910  33.845  0.00  0.00    +0.102 C 
BRANCH  19   9
ATOM      9  N   UNL     1     -14.987   3.959  32.963  0.00  0.00    -0.307 NA
ATOM     23  C   UNL     1     -14.096   5.121  32.994  0.00  0.00    +0.104 C 
ATOM     24  C   UNL     1     -16.346   4.353  33.337  0.00  0.00    +0.104 C 
ENDBRANCH  19   9
ENDBRANCH  18  19
ENDBRANCH   7  18
ENDBRANCH  14  16
ENDBRANCH  12  14
BRANCH  13  15
ATOM     15  C   UNL     1     -16.342   2.357  25.919  0.00  0.00    +0.140 C 
BRANCH  15   6
ATOM      5  O   UNL     1     -15.929   3.177  23.183  0.00  0.00    -0.253 OA
ATOM      6  N   UNL     1     -15.675   3.586  25.450  0.00  0.00    -0.297 N 
ATOM      8  N   UNL     1     -14.871   5.093  23.953  0.00  0.00    -0.297 N 
ATOM     17  C   UNL     1     -15.533   3.878  24.113  0.00  0.00    +0.300 C 
ATOM     27  H   UNL     1     -15.322   4.237  26.145  0.00  0.00    +0.150 HD
ATOM     29  H   UNL     1     -14.651   5.637  24.782  0.00  0.00    +0.150 HD
BRANCH   8  20
ATOM     20  C   UNL     1     -14.578   5.660  22.658  0.00  0.00    +0.068 C 
ATOM     21  C   UNL     1     -13.203   5.211  22.182  0.00  0.00    +0.027 C 
ATOM     22  C   UNL     1     -14.676   7.180  22.705  0.00  0.00    +0.027 C 
ENDBRANCH   8  20
ENDBRANCH  15   6
ENDBRANCH  13  15
TORSDOF 10
ENDMDL
MODEL 9
REMARK VINA RESULT:      -5.6     26.109     27.755
REMARK  Name = 25390395
REMARK  14 active torsions:
REMARK  status: ('A' for Active; 'I' for Inactive)
REMARK    1  A    between atoms: O_2  and  C_10
REMARK    2  A    between atoms: O_3  and  C_11
REMARK    3  A    between atoms: N_6  and  C_15
REMARK    4  A    between atoms: N_7  and  C_18
REMARK    5  A    between atoms: N_8  and  C_20
REMARK    6  A    between atoms: N_9  and  C_19
REMARK    7  A    between atoms: N_9  and  C_23
REMARK    8  A    between atoms: N_9  and  C_24
REMARK    9  A    between atoms: C_12  and  C_14
REMARK   10  A    between atoms: C_13  and  C_15
REMARK   11  A    between atoms: C_14  and  C_16
REMARK   12  A    between atoms: C_18  and  C_19
REMARK   13  A    between atoms: C_20  and  C_21
REMARK   14  A    between atoms: C_20  and  C_22
REMARK                            x       y       z     vdW  Elec       q    Type
REMARK                         _______ _______ _______ _____ _____    ______ ____
ROOT
ATOM      1  O   UNL     1      -3.539 -12.312  14.608  0.00  0.00    -0.366 OA
ATOM     10  C   UNL     1      -1.872 -10.828  15.365  0.00  0.00    +0.175 C 
ATOM     11  C   UNL     1      -3.060 -10.707  16.296  0.00  0.00    +0.176 C 
ATOM     12  C   UNL     1      -2.112 -12.192  14.740  0.00  0.00    +0.158 C 
ATOM     13  C   UNL     1      -4.174 -11.343  15.473  0.00  0.00    +0.167 C 
ENDROOT
BRANCH  10   2
ATOM      2  O   UNL     1      -0.629 -10.763  16.032  0.00  0.00    -0.387 OA
ATOM     25  H   UNL     1      -0.796 -10.415  16.925  0.00  0.00    +0.210 HD
ENDBRANCH  10   2
BRANCH  11   3
ATOM      3  O   UNL     1      -2.859 -11.506  17.462  0.00  0.00    -0.387 OA
ATOM     26  H   UNL     1      -2.494 -12.359  17.170  0.00  0.00    +0.210 HD
ENDBRANCH  11   3
BRANCH  12  14
ATOM     14  C   UNL     1      -1.457 -12.355  13.380  0.00  0.00    +0.130 C 
BRANCH  14  16
ATOM      4  O   UNL     1      -1.725 -10.240  12.237  0.00  0.00    -0.276 OA
ATOM      7  N   UNL     1      -2.965 -12.074  11.532  0.00  0.00    -0.314 N 
ATOM     16  C   UNL     1      -2.042 -11.422  12.336  0.00  0.00    +0.216 C 
ATOM     28  H   UNL     1      -3.153 -13.060  11.690  0.00  0.00    +0.149 HD
BRANCH   7  18
ATOM     18  C   UNL     1      -3.676 -11.420  10.457  0.00  0.00    +0.119 C 
BRANCH  18  19
ATOM     19  C   UNL     1      -4.987 -10.822  10.947  0.00  0.00    +0.102 C 
BRANCH  19   9
ATOM      9  N   UNL     1      -4.851  -9.382  11.127  0.00  0.00    -0.307 NA
ATOM     23  C   UNL     1      -6.149  -8.773  11.421  0.00  0.00    +0.104 C 
ATOM     24  C   UNL     1      -4.259  -8.767   9.937  0.00  0.00    +0.104 C 
ENDBRANCH  19   9
ENDBRANCH  18  19
ENDBRANCH   7  18
ENDBRANCH  14  16
ENDBRANCH  12  14
BRANCH  13  15
ATOM     15  C   UNL     1      -4.910 -10.343  14.591  0.00  0.00    +0.140 C 
BRANCH  15   6
ATOM      5  O   UNL     1      -7.686 -10.922  15.123  0.00  0.00    -0.253 OA
ATOM      6  N   UNL     1      -5.840  -9.551  15.416  0.00  0.00    -0.297 N 
ATOM      8  N   UNL     1      -7.802  -9.002  16.421  0.00  0.00    -0.297 N 
ATOM     17  C   UNL     1      -7.152  -9.923  15.603  0.00  0.00    +0.300 C 
ATOM     27  H   UNL     1      -5.490  -8.710  15.865  0.00  0.00    +0.150 HD
ATOM     29  H   UNL     1      -7.257  -8.251  16.832  0.00  0.00    +0.150 HD
BRANCH   8  20
ATOM     20  C   UNL     1      -9.191  -9.130  16.794  0.00  0.00    +0.068 C 
ATOM     21  C   UNL     1      -9.821  -7.754  16.968  0.00  0.00    +0.027 C 
ATOM     22  C   UNL     1      -9.331  -9.965  18.060  0.00  0.00    +0.027 C 
ENDBRANCH   8  20
ENDBRANCH  15   6
ENDBRANCH  13  15
TORSDOF 10
ENDMDL
MODEL 10
REMARK VINA RESULT:      -5.5     27.549     29.663
REMARK  Name = 25390395
REMARK  14 active torsions:
REMARK  status: ('A' for Active; 'I' for Inactive)
REMARK    1  A    between atoms: O_2  and  C_10
REMARK    2  A    between atoms: O_3  and  C_11
REMARK    3  A    between atoms: N_6  and  C_15
REMARK    4  A    between atoms: N_7  and  C_18
REMARK    5  A    between atoms: N_8  and  C_20
REMARK    6  A    between atoms: N_9  and  C_19
REMARK    7  A    between atoms: N_9  and  C_23
REMARK    8  A    between atoms: N_9  and  C_24
REMARK    9  A    between atoms: C_12  and  C_14
REMARK   10  A    between atoms: C_13  and  C_15
REMARK   11  A    between atoms: C_14  and  C_16
REMARK   12  A    between atoms: C_18  and  C_19
REMARK   13  A    between atoms: C_20  and  C_21
REMARK   14  A    between atoms: C_20  and  C_22
REMARK                            x       y       z     vdW  Elec       q    Type
REMARK                         _______ _______ _______ _____ _____    ______ ____
ROOT
ATOM      1  O   UNL     1      -5.546 -10.268  18.158  0.00  0.00    -0.366 OA
ATOM     10  C   UNL     1      -4.957 -12.545  18.003  0.00  0.00    +0.175 C 
ATOM     11  C   UNL     1      -4.401 -11.837  16.786  0.00  0.00    +0.176 C 
ATOM     12  C   UNL     1      -5.147 -11.387  18.968  0.00  0.00    +0.158 C 
ATOM     13  C   UNL     1      -5.201 -10.540  16.780  0.00  0.00    +0.167 C 
ENDROOT
BRANCH  10   2
ATOM      2  O   UNL     1      -4.089 -13.530  18.523  0.00  0.00    -0.387 OA
ATOM     25  H   UNL     1      -4.084 -13.433  19.491  0.00  0.00    +0.210 HD
ENDBRANCH  10   2
BRANCH  11   3
ATOM      3  O   UNL     1      -3.026 -11.510  16.988  0.00  0.00    -0.387 OA
ATOM     26  H   UNL     1      -2.863 -10.660  16.544  0.00  0.00    +0.210 HD
ENDBRANCH  11   3
BRANCH  12  14
ATOM     14  C   UNL     1      -6.203 -11.653  20.027  0.00  0.00    +0.130 C 
BRANCH  14  16
ATOM      4  O   UNL     1      -7.992 -12.918  19.005  0.00  0.00    -0.276 OA
ATOM      7  N   UNL     1      -8.311 -10.659  19.445  0.00  0.00    -0.314 N 
ATOM     16  C   UNL     1      -7.587 -11.842  19.436  0.00  0.00    +0.216 C 
ATOM     28  H   UNL     1      -7.887  -9.821  19.833  0.00  0.00    +0.149 HD
BRANCH   7  18
ATOM     18  C   UNL     1      -9.660 -10.555  18.938  0.00  0.00    +0.119 C 
BRANCH  18  19
ATOM     19  C   UNL     1     -10.681 -10.694  20.058  0.00  0.00    +0.102 C 
BRANCH  19   9
ATOM      9  N   UNL     1     -11.443 -11.926  19.898  0.00  0.00    -0.307 NA
ATOM     23  C   UNL     1     -12.876 -11.672  20.061  0.00  0.00    +0.104 C 
ATOM     24  C   UNL     1     -10.996 -12.939  20.856  0.00  0.00    +0.104 C 
ENDBRANCH  19   9
ENDBRANCH  18  19
ENDBRANCH   7  18
ENDBRANCH  14  16
ENDBRANCH  12  14
BRANCH  13  15
ATOM     15  C   UNL     1      -6.496 -10.641  15.987  0.00  0.00    +0.140 C 
BRANCH  15   6
ATOM      5  O   UNL     1      -9.199 -10.174  15.089  0.00  0.00    -0.253 OA
ATOM      6  N   UNL     1      -7.321  -9.444  16.236  0.00  0.00    -0.297 N 
ATOM      8  N   UNL     1      -9.152  -8.104  16.137  0.00  0.00    -0.297 N 
ATOM     17  C   UNL     1      -8.606  -9.327  15.757  0.00  0.00    +0.300 C 
ATOM     27  H   UNL     1      -6.923  -8.691  16.788  0.00  0.00    +0.150 HD
ATOM     29  H   UNL     1      -8.613  -7.504  16.753  0.00  0.00    +0.150 HD
BRANCH   8  20
ATOM     20  C   UNL     1     -10.492  -7.700  15.779  0.00  0.00    +0.068 C 
ATOM     21  C   UNL     1     -10.547  -6.195  15.551  0.00  0.00    +0.027 C 
ATOM     22  C   UNL     1     -11.485  -8.133  16.849  0.00  0.00    +0.027 C 
ENDBRANCH   8  20
ENDBRANCH  15   6
ENDBRANCH  13  15
TORSDOF 10
ENDMDL
