MODEL 1
REMARK VINA RESULT:      -7.9      0.000      0.000
REMARK  Name = 11879614
REMARK  8 active torsions:
REMARK  status: ('A' for Active; 'I' for Inactive)
REMARK    1  A    between atoms: S_1  and  N_8
REMARK    2  A    between atoms: S_1  and  C_21
REMARK    3  A    between atoms: O_4  and  C_20
REMARK    4  A    between atoms: O_4  and  C_24
REMARK    5  A    between atoms: N_8  and  C_16
REMARK    6  A    between atoms: N_9  and  C_17
REMARK    7  A    between atoms: N_13  and  C_29
REMARK    8  A    between atoms: C_28  and  C_37
REMARK                            x       y       z     vdW  Elec       q    Type
REMARK                         _______ _______ _______ _____ _____    ______ ____
ROOT
ATOM      2  O   UNL     1      -6.655 -10.310  16.470  0.00  0.00    -0.370 OA
ATOM      3  O   UNL     1      -4.819 -10.770  18.934  0.00  0.00    -0.370 OA
ATOM     14  C   UNL     1      -4.943 -11.439  17.673  0.00  0.00    +0.170 C 
ATOM     15  C   UNL     1      -6.421 -11.436  17.337  0.00  0.00    +0.175 C 
ATOM     16  C   UNL     1      -4.307 -10.609  16.587  0.00  0.00    +0.133 C 
ATOM     17  C   UNL     1      -7.132 -11.224  18.669  0.00  0.00    +0.171 C 
ATOM     18  C   UNL     1      -5.412  -9.636  16.227  0.00  0.00    +0.183 C 
ATOM     19  C   UNL     1      -6.005 -11.048  19.684  0.00  0.00    +0.190 C 
ENDROOT
BRANCH  17   9
ATOM      9  N   UNL     1      -8.071 -12.287  19.023  0.00  0.00    -0.187 N 
ATOM     10  N   UNL     1      -7.837 -13.554  18.668  0.00  0.00    -0.041 NA
ATOM     11  N   UNL     1      -9.755 -13.400  19.793  0.00  0.00    -0.071 NA
ATOM     12  N   UNL     1      -8.873 -14.234  19.144  0.00  0.00    -0.020 NA
ATOM     20  C   UNL     1      -9.236 -12.197  19.705  0.00  0.00    +0.342 A 
BRANCH  20   4
ATOM      4  O   UNL     1      -9.745 -11.080  20.190  0.00  0.00    -0.423 OA
BRANCH   4  24
ATOM     24  C   UNL     1     -10.898 -10.500  19.678  0.00  0.00    +0.134 A 
ATOM     27  C   UNL     1     -10.799  -9.661  18.584  0.00  0.00    +0.069 A 
ATOM     29  C   UNL     1     -11.957  -9.080  18.069  0.00  0.00    +0.033 A 
ATOM     32  C   UNL     1     -12.111 -10.779  20.277  0.00  0.00    +0.046 A 
ATOM     35  C   UNL     1     -13.193  -9.348  18.658  0.00  0.00    +0.023 A 
ATOM     36  C   UNL     1     -13.271 -10.197  19.762  0.00  0.00    +0.005 A 
BRANCH  29  13
ATOM      7  O   UNL     1     -11.499  -6.656  14.664  0.00  0.00    -0.377 OA
ATOM     13  N   UNL     1     -11.880  -8.228  16.962  0.00  0.00    -0.325 N 
ATOM     30  C   UNL     1     -12.448  -8.646  15.676  0.00  0.00    +0.133 C 
ATOM     31  C   UNL     1     -10.736  -7.311  16.871  0.00  0.00    +0.133 C 
ATOM     33  C   UNL     1     -12.694  -7.425  14.800  0.00  0.00    +0.178 C 
ATOM     34  C   UNL     1     -11.075  -6.159  15.932  0.00  0.00    +0.178 C 
ENDBRANCH  29  13
ENDBRANCH   4  24
ENDBRANCH  20   4
ENDBRANCH  17   9
BRANCH  16   8
ATOM      8  N   UNL     1      -3.989 -11.462  15.417  0.00  0.00    -0.182 NA
ATOM     38  H   UNL     1      -4.503 -12.350  15.346  0.00  0.00    +0.148 HD
BRANCH   8   1
ATOM      1  S   UNL     1      -2.477 -11.324  14.658  0.00  0.00    +0.059 S 
ATOM      5  O   UNL     1      -1.931 -12.647  14.425  0.00  0.00    -0.153 OA
ATOM      6  O   UNL     1      -1.694 -10.323  15.356  0.00  0.00    -0.153 OA
BRANCH   1  21
ATOM     21  C   UNL     1      -2.916 -10.633  13.092  0.00  0.00    +0.105 A 
ATOM     22  C   UNL     1      -1.915 -10.270  12.208  0.00  0.00    +0.029 A 
ATOM     23  C   UNL     1      -4.254 -10.467  12.776  0.00  0.00    +0.029 A 
ATOM     25  C   UNL     1      -2.261  -9.725  10.972  0.00  0.00    +0.005 A 
ATOM     26  C   UNL     1      -4.601  -9.921  11.540  0.00  0.00    +0.005 A 
ATOM     28  C   UNL     1      -3.604  -9.550  10.638  0.00  0.00    -0.050 A 
ATOM     37  C   UNL     1      -3.974  -8.966   9.317  0.00  0.00    +0.044 C 
ENDBRANCH   1  21
ENDBRANCH   8   1
ENDBRANCH  16   8
TORSDOF 7
ENDMDL
MODEL 2
REMARK VINA RESULT:      -7.7      5.096      9.259
REMARK  Name = 11879614
REMARK  8 active torsions:
REMARK  status: ('A' for Active; 'I' for Inactive)
REMARK    1  A    between atoms: S_1  and  N_8
REMARK    2  A    between atoms: S_1  and  C_21
REMARK    3  A    between atoms: O_4  and  C_20
REMARK    4  A    between atoms: O_4  and  C_24
REMARK    5  A    between atoms: N_8  and  C_16
REMARK    6  A    between atoms: N_9  and  C_17
REMARK    7  A    between atoms: N_13  and  C_29
REMARK    8  A    between atoms: C_28  and  C_37
REMARK                            x       y       z     vdW  Elec       q    Type
REMARK                         _______ _______ _______ _____ _____    ______ ____
ROOT
ATOM      2  O   UNL     1      -6.304 -10.924   9.006  0.00  0.00    -0.370 OA
ATOM      3  O   UNL     1      -7.058  -8.855  11.200  0.00  0.00    -0.370 OA
ATOM     14  C   UNL     1      -6.707  -8.725   9.816  0.00  0.00    +0.170 C 
ATOM     15  C   UNL     1      -5.640  -9.768   9.551  0.00  0.00    +0.175 C 
ATOM     16  C   UNL     1      -7.867  -9.144   8.950  0.00  0.00    +0.133 C 
ATOM     17  C   UNL     1      -5.057 -10.100  10.921  0.00  0.00    +0.171 C 
ATOM     18  C   UNL     1      -7.708 -10.650   8.892  0.00  0.00    +0.183 C 
ATOM     19  C   UNL     1      -5.882  -9.270  11.902  0.00  0.00    +0.190 C 
ENDROOT
BRANCH  17   9
ATOM      9  N   UNL     1      -3.618  -9.869  11.032  0.00  0.00    -0.187 N 
ATOM     10  N   UNL     1      -3.004  -8.978  10.248  0.00  0.00    -0.041 NA
ATOM     11  N   UNL     1      -1.542  -9.948  11.622  0.00  0.00    -0.071 NA
ATOM     12  N   UNL     1      -1.730  -9.030  10.614  0.00  0.00    -0.020 NA
ATOM     20  C   UNL     1      -2.728 -10.456  11.865  0.00  0.00    +0.342 A 
BRANCH  20   4
ATOM      4  O   UNL     1      -3.023 -11.380  12.761  0.00  0.00    -0.423 OA
BRANCH   4  24
ATOM     24  C   UNL     1      -3.006 -11.129  14.126  0.00  0.00    +0.134 A 
ATOM     27  C   UNL     1      -4.204 -10.949  14.791  0.00  0.00    +0.069 A 
ATOM     29  C   UNL     1      -4.187 -10.699  16.162  0.00  0.00    +0.033 A 
ATOM     32  C   UNL     1      -1.791 -11.066  14.781  0.00  0.00    +0.046 A 
ATOM     35  C   UNL     1      -2.971 -10.632  16.844  0.00  0.00    +0.023 A 
ATOM     36  C   UNL     1      -1.774 -10.815  16.154  0.00  0.00    +0.005 A 
BRANCH  29  13
ATOM      7  O   UNL     1      -7.682  -9.929  18.370  0.00  0.00    -0.377 OA
ATOM     13  N   UNL     1      -5.388 -10.515  16.855  0.00  0.00    -0.325 N 
ATOM     30  C   UNL     1      -6.385  -9.563  16.352  0.00  0.00    +0.133 C 
ATOM     31  C   UNL     1      -5.385 -10.704  18.312  0.00  0.00    +0.133 C 
ATOM     33  C   UNL     1      -7.751  -9.886  16.945  0.00  0.00    +0.178 C 
ATOM     34  C   UNL     1      -6.804 -10.969  18.799  0.00  0.00    +0.178 C 
ENDBRANCH  29  13
ENDBRANCH   4  24
ENDBRANCH  20   4
ENDBRANCH  17   9
BRANCH  16   8
ATOM      8  N   UNL     1      -7.719  -8.571   7.591  0.00  0.00    -0.182 NA
ATOM     38  H   UNL     1      -6.842  -8.069   7.400  0.00  0.00    +0.148 HD
BRANCH   8   1
ATOM      1  S   UNL     1      -9.100  -8.188   6.681  0.00  0.00    +0.059 S 
ATOM      5  O   UNL     1     -10.068  -9.262   6.797  0.00  0.00    -0.153 OA
ATOM      6  O   UNL     1      -8.682  -7.720   5.374  0.00  0.00    -0.153 OA
BRANCH   1  21
ATOM     21  C   UNL     1      -9.735  -6.787   7.552  0.00  0.00    +0.105 A 
ATOM     22  C   UNL     1      -8.854  -5.831   8.027  0.00  0.00    +0.029 A 
ATOM     23  C   UNL     1     -11.101  -6.671   7.742  0.00  0.00    +0.029 A 
ATOM     25  C   UNL     1      -9.355  -4.725   8.714  0.00  0.00    +0.005 A 
ATOM     26  C   UNL     1     -11.602  -5.565   8.429  0.00  0.00    +0.005 A 
ATOM     28  C   UNL     1     -10.729  -4.593   8.915  0.00  0.00    -0.050 A 
ATOM     37  C   UNL     1     -11.265  -3.411   9.651  0.00  0.00    +0.044 C 
ENDBRANCH   1  21
ENDBRANCH   8   1
ENDBRANCH  16   8
TORSDOF 7
ENDMDL
MODEL 3
REMARK VINA RESULT:      -7.6     27.958     30.715
REMARK  Name = 11879614
REMARK  8 active torsions:
REMARK  status: ('A' for Active; 'I' for Inactive)
REMARK    1  A    between atoms: S_1  and  N_8
REMARK    2  A    between atoms: S_1  and  C_21
REMARK    3  A    between atoms: O_4  and  C_20
REMARK    4  A    between atoms: O_4  and  C_24
REMARK    5  A    between atoms: N_8  and  C_16
REMARK    6  A    between atoms: N_9  and  C_17
REMARK    7  A    between atoms: N_13  and  C_29
REMARK    8  A    between atoms: C_28  and  C_37
REMARK                            x       y       z     vdW  Elec       q    Type
REMARK                         _______ _______ _______ _____ _____    ______ ____
ROOT
ATOM      2  O   UNL     1      15.055   9.743  21.506  0.00  0.00    -0.370 OA
ATOM      3  O   UNL     1      15.468  12.819  21.662  0.00  0.00    -0.370 OA
ATOM     14  C   UNL     1      16.041  11.721  22.383  0.00  0.00    +0.170 C 
ATOM     15  C   UNL     1      14.928  10.709  22.566  0.00  0.00    +0.175 C 
ATOM     16  C   UNL     1      17.055  11.014  21.520  0.00  0.00    +0.133 C 
ATOM     17  C   UNL     1      13.636  11.502  22.396  0.00  0.00    +0.171 C 
ATOM     18  C   UNL     1      16.192  10.078  20.698  0.00  0.00    +0.183 C 
ATOM     19  C   UNL     1      14.095  12.917  22.053  0.00  0.00    +0.190 C 
ENDROOT
BRANCH  17   9
ATOM      9  N   UNL     1      12.742  11.445  23.550  0.00  0.00    -0.187 N 
ATOM     10  N   UNL     1      13.165  11.809  24.764  0.00  0.00    -0.041 NA
ATOM     11  N   UNL     1      11.034  11.159  24.843  0.00  0.00    -0.071 NA
ATOM     12  N   UNL     1      12.113  11.633  25.554  0.00  0.00    -0.020 NA
ATOM     20  C   UNL     1      11.448  11.051  23.602  0.00  0.00    +0.342 A 
BRANCH  20   4
ATOM      4  O   UNL     1      10.742  10.632  22.568  0.00  0.00    -0.423 OA
BRANCH   4  24
ATOM     24  C   UNL     1      11.034   9.455  21.891  0.00  0.00    +0.134 A 
ATOM     27  C   UNL     1      11.531   9.526  20.604  0.00  0.00    +0.069 A 
ATOM     29  C   UNL     1      11.825   8.344  19.926  0.00  0.00    +0.033 A 
ATOM     32  C   UNL     1      10.819   8.247  22.526  0.00  0.00    +0.046 A 
ATOM     35  C   UNL     1      11.616   7.112  20.547  0.00  0.00    +0.023 A 
ATOM     36  C   UNL     1      11.113   7.063  21.847  0.00  0.00    +0.005 A 
BRANCH  29  13
ATOM      7  O   UNL     1      13.267   8.226  15.977  0.00  0.00    -0.377 OA
ATOM     13  N   UNL     1      12.330   8.393  18.622  0.00  0.00    -0.325 N 
ATOM     30  C   UNL     1      11.430   8.671  17.498  0.00  0.00    +0.133 C 
ATOM     31  C   UNL     1      13.494   7.557  18.297  0.00  0.00    +0.133 C 
ATOM     33  C   UNL     1      12.236   9.159  16.300  0.00  0.00    +0.178 C 
ATOM     34  C   UNL     1      14.191   8.106  17.058  0.00  0.00    +0.178 C 
ENDBRANCH  29  13
ENDBRANCH   4  24
ENDBRANCH  20   4
ENDBRANCH  17   9
BRANCH  16   8
ATOM      8  N   UNL     1      17.982  10.227  22.367  0.00  0.00    -0.182 NA
ATOM     38  H   UNL     1      17.665  10.024  23.324  0.00  0.00    +0.148 HD
BRANCH   8   1
ATOM      1  S   UNL     1      19.647  10.246  22.040  0.00  0.00    +0.059 S 
ATOM      5  O   UNL     1      20.378  10.491  23.269  0.00  0.00    -0.153 OA
ATOM      6  O   UNL     1      19.884  11.073  20.873  0.00  0.00    -0.153 OA
BRANCH   1  21
ATOM     21  C   UNL     1      19.944   8.573  21.555  0.00  0.00    +0.105 A 
ATOM     22  C   UNL     1      21.229   8.186  21.215  0.00  0.00    +0.029 A 
ATOM     23  C   UNL     1      18.887   7.680  21.523  0.00  0.00    +0.029 A 
ATOM     25  C   UNL     1      21.463   6.865  20.832  0.00  0.00    +0.005 A 
ATOM     26  C   UNL     1      19.121   6.360  21.140  0.00  0.00    +0.005 A 
ATOM     28  C   UNL     1      20.409   5.952  20.794  0.00  0.00    -0.050 A 
ATOM     37  C   UNL     1      20.659   4.540  20.383  0.00  0.00    +0.044 C 
ENDBRANCH   1  21
ENDBRANCH   8   1
ENDBRANCH  16   8
TORSDOF 7
ENDMDL
MODEL 4
REMARK VINA RESULT:      -7.5     26.676     30.436
REMARK  Name = 11879614
REMARK  8 active torsions:
REMARK  status: ('A' for Active; 'I' for Inactive)
REMARK    1  A    between atoms: S_1  and  N_8
REMARK    2  A    between atoms: S_1  and  C_21
REMARK    3  A    between atoms: O_4  and  C_20
REMARK    4  A    between atoms: O_4  and  C_24
REMARK    5  A    between atoms: N_8  and  C_16
REMARK    6  A    between atoms: N_9  and  C_17
REMARK    7  A    between atoms: N_13  and  C_29
REMARK    8  A    between atoms: C_28  and  C_37
REMARK                            x       y       z     vdW  Elec       q    Type
REMARK                         _______ _______ _______ _____ _____    ______ ____
ROOT
ATOM      2  O   UNL     1      14.429   6.984   6.563  0.00  0.00    -0.370 OA
ATOM      3  O   UNL     1      12.405   9.256   7.199  0.00  0.00    -0.370 OA
ATOM     14  C   UNL     1      12.390   8.171   6.263  0.00  0.00    +0.170 C 
ATOM     15  C   UNL     1      13.815   8.018   5.771  0.00  0.00    +0.175 C 
ATOM     16  C   UNL     1      12.098   6.878   6.981  0.00  0.00    +0.133 C 
ATOM     17  C   UNL     1      14.483   9.359   6.057  0.00  0.00    +0.171 C 
ATOM     18  C   UNL     1      13.465   6.471   7.494  0.00  0.00    +0.183 C 
ATOM     19  C   UNL     1      13.408  10.181   6.766  0.00  0.00    +0.190 C 
ENDROOT
BRANCH  17   9
ATOM      9  N   UNL     1      15.032  10.019   4.875  0.00  0.00    -0.187 N 
ATOM     10  N   UNL     1      16.296  10.455   4.858  0.00  0.00    -0.041 NA
ATOM     11  N   UNL     1      15.292  10.893   2.916  0.00  0.00    -0.071 NA
ATOM     12  N   UNL     1      16.451  10.990   3.653  0.00  0.00    -0.020 NA
ATOM     20  C   UNL     1      14.427  10.287   3.694  0.00  0.00    +0.342 A 
BRANCH  20   4
ATOM      4  O   UNL     1      13.177   9.981   3.398  0.00  0.00    -0.423 OA
BRANCH   4  24
ATOM     24  C   UNL     1      12.844   9.117   2.364  0.00  0.00    +0.134 A 
ATOM     27  C   UNL     1      13.288   7.810   2.412  0.00  0.00    +0.069 A 
ATOM     29  C   UNL     1      12.953   6.942   1.374  0.00  0.00    +0.033 A 
ATOM     32  C   UNL     1      12.077   9.590   1.316  0.00  0.00    +0.046 A 
ATOM     35  C   UNL     1      12.179   7.398   0.306  0.00  0.00    +0.023 A 
ATOM     36  C   UNL     1      11.742   8.721   0.277  0.00  0.00    +0.005 A 
BRANCH  29  13
ATOM      7  O   UNL     1      14.357   2.993   1.718  0.00  0.00    -0.377 OA
ATOM     13  N   UNL     1      13.391   5.613   1.403  0.00  0.00    -0.325 N 
ATOM     30  C   UNL     1      12.534   4.572   1.980  0.00  0.00    +0.133 C 
ATOM     31  C   UNL     1      14.835   5.361   1.505  0.00  0.00    +0.133 C 
ATOM     33  C   UNL     1      12.968   3.205   1.467  0.00  0.00    +0.178 C 
ATOM     34  C   UNL     1      15.146   3.952   1.015  0.00  0.00    +0.178 C 
ENDBRANCH  29  13
ENDBRANCH   4  24
ENDBRANCH  20   4
ENDBRANCH  17   9
BRANCH  16   8
ATOM      8  N   UNL     1      11.601   5.865   6.020  0.00  0.00    -0.182 NA
ATOM     38  H   UNL     1      12.155   5.738   5.163  0.00  0.00    +0.148 HD
BRANCH   8   1
ATOM      1  S   UNL     1       9.955   5.454   6.003  0.00  0.00    +0.059 S 
ATOM      5  O   UNL     1       9.358   5.797   7.279  0.00  0.00    -0.153 OA
ATOM      6  O   UNL     1       9.814   4.113   5.468  0.00  0.00    -0.153 OA
BRANCH   1  21
ATOM     21  C   UNL     1       9.313   6.563   4.786  0.00  0.00    +0.105 A 
ATOM     22  C   UNL     1       8.333   7.470   5.149  0.00  0.00    +0.029 A 
ATOM     23  C   UNL     1       9.802   6.506   3.492  0.00  0.00    +0.029 A 
ATOM     25  C   UNL     1       7.826   8.346   4.189  0.00  0.00    +0.005 A 
ATOM     26  C   UNL     1       9.296   7.382   2.532  0.00  0.00    +0.005 A 
ATOM     28  C   UNL     1       8.307   8.302   2.881  0.00  0.00    -0.050 A 
ATOM     37  C   UNL     1       7.765   9.238   1.854  0.00  0.00    +0.044 C 
ENDBRANCH   1  21
ENDBRANCH   8   1
ENDBRANCH  16   8
TORSDOF 7
ENDMDL
MODEL 5
REMARK VINA RESULT:      -7.4     24.983     30.444
REMARK  Name = 11879614
REMARK  8 active torsions:
REMARK  status: ('A' for Active; 'I' for Inactive)
REMARK    1  A    between atoms: S_1  and  N_8
REMARK    2  A    between atoms: S_1  and  C_21
REMARK    3  A    between atoms: O_4  and  C_20
REMARK    4  A    between atoms: O_4  and  C_24
REMARK    5  A    between atoms: N_8  and  C_16
REMARK    6  A    between atoms: N_9  and  C_17
REMARK    7  A    between atoms: N_13  and  C_29
REMARK    8  A    between atoms: C_28  and  C_37
REMARK                            x       y       z     vdW  Elec       q    Type
REMARK                         _______ _______ _______ _____ _____    ______ ____
ROOT
ATOM      2  O   UNL     1      15.273   7.256   5.497  0.00  0.00    -0.370 OA
ATOM      3  O   UNL     1      13.592   9.386   3.981  0.00  0.00    -0.370 OA
ATOM     14  C   UNL     1      13.462   7.967   4.130  0.00  0.00    +0.170 C 
ATOM     15  C   UNL     1      14.872   7.410   4.122  0.00  0.00    +0.175 C 
ATOM     16  C   UNL     1      12.935   7.640   5.503  0.00  0.00    +0.133 C 
ATOM     17  C   UNL     1      15.721   8.483   3.449  0.00  0.00    +0.171 C 
ATOM     18  C   UNL     1      14.191   7.655   6.350  0.00  0.00    +0.183 C 
ATOM     19  C   UNL     1      14.748   9.627   3.173  0.00  0.00    +0.190 C 
ENDROOT
BRANCH  17   9
ATOM      9  N   UNL     1      16.431   8.025   2.257  0.00  0.00    -0.187 N 
ATOM     10  N   UNL     1      17.759   8.141   2.163  0.00  0.00    -0.041 NA
ATOM     11  N   UNL     1      16.924   7.203   0.321  0.00  0.00    -0.071 NA
ATOM     12  N   UNL     1      18.057   7.634   0.973  0.00  0.00    -0.020 NA
ATOM     20  C   UNL     1      15.927   7.455   1.137  0.00  0.00    +0.342 A 
BRANCH  20   4
ATOM      4  O   UNL     1      14.649   7.205   0.923  0.00  0.00    -0.423 OA
BRANCH   4  24
ATOM     24  C   UNL     1      14.154   5.917   0.775  0.00  0.00    +0.134 A 
ATOM     27  C   UNL     1      13.190   5.675  -0.185  0.00  0.00    +0.069 A 
ATOM     29  C   UNL     1      12.694   4.380  -0.335  0.00  0.00    +0.033 A 
ATOM     32  C   UNL     1      14.640   4.914   1.591  0.00  0.00    +0.046 A 
ATOM     35  C   UNL     1      13.171   3.352   0.478  0.00  0.00    +0.023 A 
ATOM     36  C   UNL     1      14.143   3.618   1.441  0.00  0.00    +0.005 A 
BRANCH  29  13
ATOM      7  O   UNL     1       9.658   3.383  -3.069  0.00  0.00    -0.377 OA
ATOM     13  N   UNL     1      11.718   4.112  -1.301  0.00  0.00    -0.325 N 
ATOM     30  C   UNL     1      10.402   4.755  -1.211  0.00  0.00    +0.133 C 
ATOM     31  C   UNL     1      11.726   2.792  -1.947  0.00  0.00    +0.133 C 
ATOM     33  C   UNL     1       9.718   4.720  -2.572  0.00  0.00    +0.178 C 
ATOM     34  C   UNL     1      10.972   2.864  -3.270  0.00  0.00    +0.178 C 
ENDBRANCH  29  13
ENDBRANCH   4  24
ENDBRANCH  20   4
ENDBRANCH  17   9
BRANCH  16   8
ATOM      8  N   UNL     1      12.342   6.282   5.510  0.00  0.00    -0.182 NA
ATOM     38  H   UNL     1      12.983   5.503   5.308  0.00  0.00    +0.148 HD
BRANCH   8   1
ATOM      1  S   UNL     1      10.684   6.082   5.206  0.00  0.00    +0.059 S 
ATOM      5  O   UNL     1      10.487   4.940   4.333  0.00  0.00    -0.153 OA
ATOM      6  O   UNL     1      10.114   7.370   4.861  0.00  0.00    -0.153 OA
BRANCH   1  21
ATOM     21  C   UNL     1      10.067   5.658   6.806  0.00  0.00    +0.105 A 
ATOM     22  C   UNL     1       9.544   6.652   7.614  0.00  0.00    +0.029 A 
ATOM     23  C   UNL     1      10.117   4.338   7.223  0.00  0.00    +0.029 A 
ATOM     25  C   UNL     1       9.057   6.317   8.878  0.00  0.00    +0.005 A 
ATOM     26  C   UNL     1       9.630   4.003   8.486  0.00  0.00    +0.005 A 
ATOM     28  C   UNL     1       9.100   4.993   9.314  0.00  0.00    -0.050 A 
ATOM     37  C   UNL     1       8.580   4.634  10.665  0.00  0.00    +0.044 C 
ENDBRANCH   1  21
ENDBRANCH   8   1
ENDBRANCH  16   8
TORSDOF 7
ENDMDL
MODEL 6
REMARK VINA RESULT:      -7.4      1.811      3.284
REMARK  Name = 11879614
REMARK  8 active torsions:
REMARK  status: ('A' for Active; 'I' for Inactive)
REMARK    1  A    between atoms: S_1  and  N_8
REMARK    2  A    between atoms: S_1  and  C_21
REMARK    3  A    between atoms: O_4  and  C_20
REMARK    4  A    between atoms: O_4  and  C_24
REMARK    5  A    between atoms: N_8  and  C_16
REMARK    6  A    between atoms: N_9  and  C_17
REMARK    7  A    between atoms: N_13  and  C_29
REMARK    8  A    between atoms: C_28  and  C_37
REMARK                            x       y       z     vdW  Elec       q    Type
REMARK                         _______ _______ _______ _____ _____    ______ ____
ROOT
ATOM      2  O   UNL     1      -6.584 -10.374  16.400  0.00  0.00    -0.370 OA
ATOM      3  O   UNL     1      -4.824 -10.686  18.943  0.00  0.00    -0.370 OA
ATOM     14  C   UNL     1      -4.911 -11.429  17.720  0.00  0.00    +0.170 C 
ATOM     15  C   UNL     1      -6.378 -11.446  17.340  0.00  0.00    +0.175 C 
ATOM     16  C   UNL     1      -4.241 -10.665  16.607  0.00  0.00    +0.133 C 
ATOM     17  C   UNL     1      -7.129 -11.155  18.635  0.00  0.00    +0.171 C 
ATOM     18  C   UNL     1      -5.333  -9.716  16.156  0.00  0.00    +0.183 C 
ATOM     19  C   UNL     1      -6.033 -10.919  19.671  0.00  0.00    +0.190 C 
ENDROOT
BRANCH  17   9
ATOM      9  N   UNL     1      -8.079 -12.196  19.022  0.00  0.00    -0.187 N 
ATOM     10  N   UNL     1      -7.867 -13.474  18.696  0.00  0.00    -0.041 NA
ATOM     11  N   UNL     1      -9.772 -13.264  19.836  0.00  0.00    -0.071 NA
ATOM     12  N   UNL     1      -8.909 -14.127  19.198  0.00  0.00    -0.020 NA
ATOM     20  C   UNL     1      -9.236 -12.072  19.714  0.00  0.00    +0.342 A 
BRANCH  20   4
ATOM      4  O   UNL     1      -9.724 -10.936  20.177  0.00  0.00    -0.423 OA
BRANCH   4  24
ATOM     24  C   UNL     1     -10.900 -10.376  19.696  0.00  0.00    +0.134 A 
ATOM     27  C   UNL     1     -12.050 -10.475  20.455  0.00  0.00    +0.069 A 
ATOM     29  C   UNL     1     -13.230  -9.912  19.972  0.00  0.00    +0.033 A 
ATOM     32  C   UNL     1     -10.885  -9.736  18.472  0.00  0.00    +0.046 A 
ATOM     35  C   UNL     1     -13.238  -9.259  18.738  0.00  0.00    +0.023 A 
ATOM     36  C   UNL     1     -12.066  -9.172  17.988  0.00  0.00    +0.005 A 
BRANCH  29  13
ATOM      7  O   UNL     1     -16.895 -10.259  22.003  0.00  0.00    -0.377 OA
ATOM     13  N   UNL     1     -14.407  -9.999  20.724  0.00  0.00    -0.325 N 
ATOM     30  C   UNL     1     -14.813 -11.286  21.300  0.00  0.00    +0.133 C 
ATOM     31  C   UNL     1     -15.510  -9.086  20.396  0.00  0.00    +0.133 C 
ATOM     33  C   UNL     1     -15.793 -11.052  22.443  0.00  0.00    +0.178 C 
ATOM     34  C   UNL     1     -16.451  -8.968  21.589  0.00  0.00    +0.178 C 
ENDBRANCH  29  13
ENDBRANCH   4  24
ENDBRANCH  20   4
ENDBRANCH  17   9
BRANCH  16   8
ATOM      8  N   UNL     1      -3.889 -11.586  15.500  0.00  0.00    -0.182 NA
ATOM     38  H   UNL     1      -4.366 -12.497  15.495  0.00  0.00    +0.148 HD
BRANCH   8   1
ATOM      1  S   UNL     1      -2.385 -11.440  14.726  0.00  0.00    +0.059 S 
ATOM      5  O   UNL     1      -1.847 -12.761  14.464  0.00  0.00    -0.153 OA
ATOM      6  O   UNL     1      -1.590 -10.455  15.434  0.00  0.00    -0.153 OA
BRANCH   1  21
ATOM     21  C   UNL     1      -2.839 -10.720  13.178  0.00  0.00    +0.105 A 
ATOM     22  C   UNL     1      -4.179 -10.591  12.859  0.00  0.00    +0.029 A 
ATOM     23  C   UNL     1      -1.845 -10.297  12.311  0.00  0.00    +0.029 A 
ATOM     25  C   UNL     1      -4.537 -10.023  11.636  0.00  0.00    +0.005 A 
ATOM     26  C   UNL     1      -2.203  -9.728  11.089  0.00  0.00    +0.005 A 
ATOM     28  C   UNL     1      -3.549  -9.592  10.751  0.00  0.00    -0.050 A 
ATOM     37  C   UNL     1      -3.932  -8.984   9.444  0.00  0.00    +0.044 C 
ENDBRANCH   1  21
ENDBRANCH   8   1
ENDBRANCH  16   8
TORSDOF 7
ENDMDL
MODEL 7
REMARK VINA RESULT:      -7.4     18.443     22.000
REMARK  Name = 11879614
REMARK  8 active torsions:
REMARK  status: ('A' for Active; 'I' for Inactive)
REMARK    1  A    between atoms: S_1  and  N_8
REMARK    2  A    between atoms: S_1  and  C_21
REMARK    3  A    between atoms: O_4  and  C_20
REMARK    4  A    between atoms: O_4  and  C_24
REMARK    5  A    between atoms: N_8  and  C_16
REMARK    6  A    between atoms: N_9  and  C_17
REMARK    7  A    between atoms: N_13  and  C_29
REMARK    8  A    between atoms: C_28  and  C_37
REMARK                            x       y       z     vdW  Elec       q    Type
REMARK                         _______ _______ _______ _____ _____    ______ ____
ROOT
ATOM      2  O   UNL     1     -16.331   3.893  31.914  0.00  0.00    -0.370 OA
ATOM      3  O   UNL     1     -14.478   2.606  34.051  0.00  0.00    -0.370 OA
ATOM     14  C   UNL     1     -14.264   3.614  33.055  0.00  0.00    +0.170 C 
ATOM     15  C   UNL     1     -15.075   3.192  31.847  0.00  0.00    +0.175 C 
ATOM     16  C   UNL     1     -14.891   4.912  33.496  0.00  0.00    +0.133 C 
ATOM     17  C   UNL     1     -15.303   1.695  32.022  0.00  0.00    +0.171 C 
ATOM     18  C   UNL     1     -16.336   4.740  33.072  0.00  0.00    +0.183 C 
ATOM     19  C   UNL     1     -14.663   1.362  33.368  0.00  0.00    +0.190 C 
ENDROOT
BRANCH  17   9
ATOM      9  N   UNL     1     -14.796   0.878  30.921  0.00  0.00    -0.187 N 
ATOM     10  N   UNL     1     -13.610   0.270  31.008  0.00  0.00    -0.041 NA
ATOM     11  N   UNL     1     -14.568  -0.164  29.043  0.00  0.00    -0.071 NA
ATOM     12  N   UNL     1     -13.474  -0.369  29.853  0.00  0.00    -0.020 NA
ATOM     20  C   UNL     1     -15.375   0.613  29.727  0.00  0.00    +0.342 A 
BRANCH  20   4
ATOM      4  O   UNL     1     -16.551   1.068  29.337  0.00  0.00    -0.423 OA
BRANCH   4  24
ATOM     24  C   UNL     1     -16.708   1.866  28.212  0.00  0.00    +0.134 A 
ATOM     27  C   UNL     1     -17.119   1.284  27.028  0.00  0.00    +0.069 A 
ATOM     29  C   UNL     1     -17.278   2.086  25.898  0.00  0.00    +0.033 A 
ATOM     32  C   UNL     1     -16.449   3.220  28.309  0.00  0.00    +0.046 A 
ATOM     35  C   UNL     1     -17.022   3.456  25.974  0.00  0.00    +0.023 A 
ATOM     36  C   UNL     1     -16.607   4.022  27.178  0.00  0.00    +0.005 A 
BRANCH  29  13
ATOM      7  O   UNL     1     -18.788   0.403  22.353  0.00  0.00    -0.377 OA
ATOM     13  N   UNL     1     -17.694   1.518  24.690  0.00  0.00    -0.325 N 
ATOM     30  C   UNL     1     -18.100   2.382  23.576  0.00  0.00    +0.133 C 
ATOM     31  C   UNL     1     -18.347   0.202  24.730  0.00  0.00    +0.133 C 
ATOM     33  C   UNL     1     -18.025   1.606  22.267  0.00  0.00    +0.178 C 
ATOM     34  C   UNL     1     -18.256  -0.458  23.359  0.00  0.00    +0.178 C 
ENDBRANCH  29  13
ENDBRANCH   4  24
ENDBRANCH  20   4
ENDBRANCH  17   9
BRANCH  16   8
ATOM      8  N   UNL     1     -14.284   6.045  32.759  0.00  0.00    -0.182 NA
ATOM     38  H   UNL     1     -13.605   5.802  32.026  0.00  0.00    +0.148 HD
BRANCH   8   1
ATOM      1  S   UNL     1     -14.192   7.575  33.489  0.00  0.00    +0.059 S 
ATOM      5  O   UNL     1     -13.316   7.508  34.643  0.00  0.00    -0.153 OA
ATOM      6  O   UNL     1     -15.533   8.110  33.621  0.00  0.00    -0.153 OA
BRANCH   1  21
ATOM     21  C   UNL     1     -13.379   8.527  32.242  0.00  0.00    +0.105 A 
ATOM     22  C   UNL     1     -14.137   9.304  31.383  0.00  0.00    +0.029 A 
ATOM     23  C   UNL     1     -11.999   8.479  32.146  0.00  0.00    +0.029 A 
ATOM     25  C   UNL     1     -13.495  10.056  30.399  0.00  0.00    +0.005 A 
ATOM     26  C   UNL     1     -11.357   9.231  31.162  0.00  0.00    +0.005 A 
ATOM     28  C   UNL     1     -12.105  10.019  30.288  0.00  0.00    -0.050 A 
ATOM     37  C   UNL     1     -11.419  10.821  29.235  0.00  0.00    +0.044 C 
ENDBRANCH   1  21
ENDBRANCH   8   1
ENDBRANCH  16   8
TORSDOF 7
ENDMDL
MODEL 8
REMARK VINA RESULT:      -7.4      2.704      3.712
REMARK  Name = 11879614
REMARK  8 active torsions:
REMARK  status: ('A' for Active; 'I' for Inactive)
REMARK    1  A    between atoms: S_1  and  N_8
REMARK    2  A    between atoms: S_1  and  C_21
REMARK    3  A    between atoms: O_4  and  C_20
REMARK    4  A    between atoms: O_4  and  C_24
REMARK    5  A    between atoms: N_8  and  C_16
REMARK    6  A    between atoms: N_9  and  C_17
REMARK    7  A    between atoms: N_13  and  C_29
REMARK    8  A    between atoms: C_28  and  C_37
REMARK                            x       y       z     vdW  Elec       q    Type
REMARK                         _______ _______ _______ _____ _____    ______ ____
ROOT
ATOM      2  O   UNL     1      -2.414 -10.791  16.506  0.00  0.00    -0.370 OA
ATOM      3  O   UNL     1      -4.181 -13.169  15.566  0.00  0.00    -0.370 OA
ATOM     14  C   UNL     1      -4.070 -11.807  15.135  0.00  0.00    +0.170 C 
ATOM     15  C   UNL     1      -3.836 -10.986  16.387  0.00  0.00    +0.175 C 
ATOM     16  C   UNL     1      -2.813 -11.626  14.324  0.00  0.00    +0.133 C 
ATOM     17  C   UNL     1      -4.341 -11.854  17.534  0.00  0.00    +0.171 C 
ATOM     18  C   UNL     1      -1.759 -11.417  15.393  0.00  0.00    +0.183 C 
ATOM     19  C   UNL     1      -4.773 -13.158  16.869  0.00  0.00    +0.190 C 
ENDROOT
BRANCH  17   9
ATOM      9  N   UNL     1      -5.394 -11.234  18.336  0.00  0.00    -0.187 N 
ATOM     10  N   UNL     1      -5.526 -11.520  19.634  0.00  0.00    -0.041 NA
ATOM     11  N   UNL     1      -7.080 -10.055  18.996  0.00  0.00    -0.071 NA
ATOM     12  N   UNL     1      -6.562 -10.794  20.036  0.00  0.00    -0.020 NA
ATOM     20  C   UNL     1      -6.339 -10.345  17.951  0.00  0.00    +0.342 A 
BRANCH  20   4
ATOM      4  O   UNL     1      -6.475  -9.864  16.729  0.00  0.00    -0.423 OA
BRANCH   4  24
ATOM     24  C   UNL     1      -7.638 -10.023  15.989  0.00  0.00    +0.134 A 
ATOM     27  C   UNL     1      -8.549  -8.985  15.938  0.00  0.00    +0.069 A 
ATOM     29  C   UNL     1      -9.717  -9.144  15.194  0.00  0.00    +0.033 A 
ATOM     32  C   UNL     1      -7.852 -11.215  15.324  0.00  0.00    +0.046 A 
ATOM     35  C   UNL     1      -9.952 -10.339  14.513  0.00  0.00    +0.023 A 
ATOM     36  C   UNL     1      -9.021 -11.374  14.578  0.00  0.00    +0.005 A 
BRANCH  29  13
ATOM      7  O   UNL     1     -12.718  -6.201  15.090  0.00  0.00    -0.377 OA
ATOM     13  N   UNL     1     -10.652  -8.106  15.128  0.00  0.00    -0.325 N 
ATOM     30  C   UNL     1     -10.951  -7.312  16.325  0.00  0.00    +0.133 C 
ATOM     31  C   UNL     1     -11.758  -8.228  14.168  0.00  0.00    +0.133 C 
ATOM     33  C   UNL     1     -11.577  -5.984  15.920  0.00  0.00    +0.178 C 
ATOM     34  C   UNL     1     -12.339  -6.850  13.877  0.00  0.00    +0.178 C 
ENDBRANCH  29  13
ENDBRANCH   4  24
ENDBRANCH  20   4
ENDBRANCH  17   9
BRANCH  16   8
ATOM      8  N   UNL     1      -2.922 -10.410  13.483  0.00  0.00    -0.182 NA
ATOM     38  H   UNL     1      -3.530  -9.662  13.839  0.00  0.00    +0.148 HD
BRANCH   8   1
ATOM      1  S   UNL     1      -2.633 -10.510  11.813  0.00  0.00    +0.059 S 
ATOM      5  O   UNL     1      -2.543 -11.904  11.421  0.00  0.00    -0.153 OA
ATOM      6  O   UNL     1      -1.571  -9.585  11.468  0.00  0.00    -0.153 OA
BRANCH   1  21
ATOM     21  C   UNL     1      -4.129  -9.851  11.143  0.00  0.00    +0.105 A 
ATOM     22  C   UNL     1      -5.233  -9.711  11.965  0.00  0.00    +0.029 A 
ATOM     23  C   UNL     1      -4.169  -9.487   9.808  0.00  0.00    +0.029 A 
ATOM     25  C   UNL     1      -6.414  -9.191  11.435  0.00  0.00    +0.005 A 
ATOM     26  C   UNL     1      -5.350  -8.967   9.278  0.00  0.00    +0.005 A 
ATOM     28  C   UNL     1      -6.473  -8.819  10.092  0.00  0.00    -0.050 A 
ATOM     37  C   UNL     1      -7.736  -8.264   9.526  0.00  0.00    +0.044 C 
ENDBRANCH   1  21
ENDBRANCH   8   1
ENDBRANCH  16   8
TORSDOF 7
ENDMDL
MODEL 9
REMARK VINA RESULT:      -7.4      2.703      8.624
REMARK  Name = 11879614
REMARK  8 active torsions:
REMARK  status: ('A' for Active; 'I' for Inactive)
REMARK    1  A    between atoms: S_1  and  N_8
REMARK    2  A    between atoms: S_1  and  C_21
REMARK    3  A    between atoms: O_4  and  C_20
REMARK    4  A    between atoms: O_4  and  C_24
REMARK    5  A    between atoms: N_8  and  C_16
REMARK    6  A    between atoms: N_9  and  C_17
REMARK    7  A    between atoms: N_13  and  C_29
REMARK    8  A    between atoms: C_28  and  C_37
REMARK                            x       y       z     vdW  Elec       q    Type
REMARK                         _______ _______ _______ _____ _____    ______ ____
ROOT
ATOM      2  O   UNL     1      -6.749 -11.028  15.399  0.00  0.00    -0.370 OA
ATOM      3  O   UNL     1      -5.898 -13.707  16.726  0.00  0.00    -0.370 OA
ATOM     14  C   UNL     1      -6.208 -12.411  17.256  0.00  0.00    +0.170 C 
ATOM     15  C   UNL     1      -5.660 -11.407  16.262  0.00  0.00    +0.175 C 
ATOM     16  C   UNL     1      -7.699 -12.191  17.232  0.00  0.00    +0.133 C 
ATOM     17  C   UNL     1      -4.604 -12.167  15.467  0.00  0.00    +0.171 C 
ATOM     18  C   UNL     1      -7.938 -11.714  15.814  0.00  0.00    +0.183 C 
ATOM     19  C   UNL     1      -4.663 -13.592  16.012  0.00  0.00    +0.190 C 
ENDROOT
BRANCH  17   9
ATOM      9  N   UNL     1      -3.268 -11.577  15.527  0.00  0.00    -0.187 N 
ATOM     10  N   UNL     1      -2.790 -11.079  16.671  0.00  0.00    -0.041 NA
ATOM     11  N   UNL     1      -1.294 -10.852  15.034  0.00  0.00    -0.071 NA
ATOM     12  N   UNL     1      -1.577 -10.635  16.363  0.00  0.00    -0.020 NA
ATOM     20  C   UNL     1      -2.358 -11.438  14.535  0.00  0.00    +0.342 A 
BRANCH  20   4
ATOM      4  O   UNL     1      -2.531 -11.831  13.287  0.00  0.00    -0.423 OA
BRANCH   4  24
ATOM     24  C   UNL     1      -2.814 -10.944  12.257  0.00  0.00    +0.134 A 
ATOM     27  C   UNL     1      -4.104 -10.876  11.765  0.00  0.00    +0.069 A 
ATOM     29  C   UNL     1      -4.388  -9.985  10.732  0.00  0.00    +0.033 A 
ATOM     32  C   UNL     1      -1.798 -10.155  11.754  0.00  0.00    +0.046 A 
ATOM     35  C   UNL     1      -3.377  -9.178  10.209  0.00  0.00    +0.023 A 
ATOM     36  C   UNL     1      -2.082  -9.263  10.719  0.00  0.00    +0.005 A 
BRANCH  29  13
ATOM      7  O   UNL     1      -8.360  -9.938   9.352  0.00  0.00    -0.377 OA
ATOM     13  N   UNL     1      -5.687  -9.899  10.219  0.00  0.00    -0.325 N 
ATOM     30  C   UNL     1      -6.713  -9.145  10.947  0.00  0.00    +0.133 C 
ATOM     31  C   UNL     1      -6.189 -11.018   9.411  0.00  0.00    +0.133 C 
ATOM     33  C   UNL     1      -7.849  -8.774  10.002  0.00  0.00    +0.178 C 
ATOM     34  C   UNL     1      -7.352 -10.546   8.546  0.00  0.00    +0.178 C 
ENDBRANCH  29  13
ENDBRANCH   4  24
ENDBRANCH  20   4
ENDBRANCH  17   9
BRANCH  16   8
ATOM      8  N   UNL     1      -8.068 -11.122  18.190  0.00  0.00    -0.182 NA
ATOM     38  H   UNL     1      -7.301 -10.720  18.745  0.00  0.00    +0.148 HD
BRANCH   8   1
ATOM      1  S   UNL     1      -9.651 -11.044  18.800  0.00  0.00    +0.059 S 
ATOM      5  O   UNL     1      -9.608 -10.733  20.216  0.00  0.00    -0.153 OA
ATOM      6  O   UNL     1     -10.389 -12.200  18.329  0.00  0.00    -0.153 OA
BRANCH   1  21
ATOM     21  C   UNL     1     -10.301  -9.637  17.952  0.00  0.00    +0.105 A 
ATOM     22  C   UNL     1     -11.672  -9.494  17.833  0.00  0.00    +0.029 A 
ATOM     23  C   UNL     1      -9.427  -8.703  17.421  0.00  0.00    +0.029 A 
ATOM     25  C   UNL     1     -12.186  -8.383  17.164  0.00  0.00    +0.005 A 
ATOM     26  C   UNL     1      -9.941  -7.592  16.752  0.00  0.00    +0.005 A 
ATOM     28  C   UNL     1     -11.320  -7.432  16.623  0.00  0.00    -0.050 A 
ATOM     37  C   UNL     1     -11.869  -6.245  15.906  0.00  0.00    +0.044 C 
ENDBRANCH   1  21
ENDBRANCH   8   1
ENDBRANCH  16   8
TORSDOF 7
ENDMDL
MODEL 10
REMARK VINA RESULT:      -7.3      1.611      2.321
REMARK  Name = 11879614
REMARK  8 active torsions:
REMARK  status: ('A' for Active; 'I' for Inactive)
REMARK    1  A    between atoms: S_1  and  N_8
REMARK    2  A    between atoms: S_1  and  C_21
REMARK    3  A    between atoms: O_4  and  C_20
REMARK    4  A    between atoms: O_4  and  C_24
REMARK    5  A    between atoms: N_8  and  C_16
REMARK    6  A    between atoms: N_9  and  C_17
REMARK    7  A    between atoms: N_13  and  C_29
REMARK    8  A    between atoms: C_28  and  C_37
REMARK                            x       y       z     vdW  Elec       q    Type
REMARK                         _______ _______ _______ _____ _____    ______ ____
ROOT
ATOM      2  O   UNL     1      -6.405 -12.549  15.074  0.00  0.00    -0.370 OA
ATOM      3  O   UNL     1      -5.919  -9.491  15.339  0.00  0.00    -0.370 OA
ATOM     14  C   UNL     1      -5.043 -10.624  15.376  0.00  0.00    +0.170 C 
ATOM     15  C   UNL     1      -5.804 -11.723  16.089  0.00  0.00    +0.175 C 
ATOM     16  C   UNL     1      -4.830 -11.155  13.981  0.00  0.00    +0.133 C 
ATOM     17  C   UNL     1      -6.888 -11.006  16.886  0.00  0.00    +0.171 C 
ATOM     18  C   UNL     1      -6.040 -12.046  13.781  0.00  0.00    +0.183 C 
ATOM     19  C   UNL     1      -6.722  -9.532  16.522  0.00  0.00    +0.190 C 
ENDROOT
BRANCH  17   9
ATOM      9  N   UNL     1      -6.838 -11.257  18.325  0.00  0.00    -0.187 N 
ATOM     10  N   UNL     1      -5.734 -10.994  19.030  0.00  0.00    -0.041 NA
ATOM     11  N   UNL     1      -7.329 -11.812  20.355  0.00  0.00    -0.071 NA
ATOM     12  N   UNL     1      -6.039 -11.336  20.275  0.00  0.00    -0.020 NA
ATOM     20  C   UNL     1      -7.804 -11.754  19.133  0.00  0.00    +0.342 A 
BRANCH  20   4
ATOM      4  O   UNL     1      -9.012 -12.112  18.737  0.00  0.00    -0.423 OA
BRANCH   4  24
ATOM     24  C   UNL     1     -10.108 -11.264  18.821  0.00  0.00    +0.134 A 
ATOM     27  C   UNL     1     -10.264 -10.273  17.871  0.00  0.00    +0.069 A 
ATOM     29  C   UNL     1     -11.365  -9.422  17.955  0.00  0.00    +0.033 A 
ATOM     32  C   UNL     1     -11.011 -11.436  19.853  0.00  0.00    +0.046 A 
ATOM     35  C   UNL     1     -12.290  -9.578  18.988  0.00  0.00    +0.023 A 
ATOM     36  C   UNL     1     -12.113 -10.584  19.937  0.00  0.00    +0.005 A 
BRANCH  29  13
ATOM      7  O   UNL     1     -12.049  -6.249  15.282  0.00  0.00    -0.377 OA
ATOM     13  N   UNL     1     -11.544  -8.412  17.003  0.00  0.00    -0.325 N 
ATOM     30  C   UNL     1     -10.653  -7.247  16.996  0.00  0.00    +0.133 C 
ATOM     31  C   UNL     1     -12.903  -8.163  16.503  0.00  0.00    +0.133 C 
ATOM     33  C   UNL     1     -10.703  -6.568  15.633  0.00  0.00    +0.178 C 
ATOM     34  C   UNL     1     -12.832  -7.436  15.165  0.00  0.00    +0.178 C 
ENDBRANCH  29  13
ENDBRANCH   4  24
ENDBRANCH  20   4
ENDBRANCH  17   9
BRANCH  16   8
ATOM      8  N   UNL     1      -3.594 -11.970  13.932  0.00  0.00    -0.182 NA
ATOM     38  H   UNL     1      -3.416 -12.580  14.741  0.00  0.00    +0.148 HD
BRANCH   8   1
ATOM      1  S   UNL     1      -2.282 -11.458  12.984  0.00  0.00    +0.059 S 
ATOM      5  O   UNL     1      -1.355 -12.560  12.807  0.00  0.00    -0.153 OA
ATOM      6  O   UNL     1      -1.812 -10.182  13.489  0.00  0.00    -0.153 OA
BRANCH   1  21
ATOM     21  C   UNL     1      -3.056 -11.143  11.427  0.00  0.00    +0.105 A 
ATOM     22  C   UNL     1      -3.588 -12.201  10.711  0.00  0.00    +0.029 A 
ATOM     23  C   UNL     1      -3.117  -9.844  10.952  0.00  0.00    +0.029 A 
ATOM     25  C   UNL     1      -4.199 -11.952   9.482  0.00  0.00    +0.005 A 
ATOM     26  C   UNL     1      -3.728  -9.595   9.724  0.00  0.00    +0.005 A 
ATOM     28  C   UNL     1      -4.269 -10.649   8.988  0.00  0.00    -0.050 A 
ATOM     37  C   UNL     1      -4.921 -10.383   7.673  0.00  0.00    +0.044 C 
ENDBRANCH   1  21
ENDBRANCH   8   1
ENDBRANCH  16   8
TORSDOF 7
ENDMDL
