MODEL 1
REMARK VINA RESULT:      -6.7      0.000      0.000
REMARK  Name = 38028516
REMARK  15 active torsions:
REMARK  status: ('A' for Active; 'I' for Inactive)
REMARK    1  A    between atoms: N_3  and  C_13
REMARK    2  A    between atoms: N_4  and  C_25
REMARK    3  A    between atoms: C_6  and  C_10
REMARK    4  A    between atoms: C_7  and  C_13
REMARK    5  A    between atoms: C_9  and  C_14
REMARK    6  A    between atoms: C_10  and  C_15
REMARK    7  A    between atoms: C_10  and  C_16
REMARK    8  A    between atoms: C_11  and  C_17
REMARK    9  A    between atoms: C_14  and  C_18
REMARK   10  A    between atoms: C_19  and  C_20
REMARK   11  A    between atoms: C_20  and  C_21
REMARK   12  A    between atoms: C_21  and  C_22
REMARK   13  A    between atoms: C_21  and  C_23
REMARK   14  A    between atoms: C_21  and  C_24
REMARK   15  A    between atoms: C_25  and  C_26
REMARK                            x       y       z     vdW  Elec       q    Type
REMARK                         _______ _______ _______ _____ _____    ______ ____
ROOT
ATOM      6  C   UNL     1      15.165   8.233  20.343  0.00  0.00    +0.000 C 
ATOM      7  C   UNL     1      14.333   7.280  19.447  0.00  0.00    +0.032 C 
ATOM      8  C   UNL     1      14.560   8.308  21.753  0.00  0.00    +0.012 C 
ATOM      9  C   UNL     1      13.101   8.802  21.737  0.00  0.00    +0.023 C 
ATOM     11  C   UNL     1      12.278   8.089  20.684  0.00  0.00    -0.073 C 
ATOM     12  C   UNL     1      12.846   7.403  19.675  0.00  0.00    -0.022 C 
ATOM     17  C   UNL     1      10.783   8.144  20.841  0.00  0.00    +0.039 C 
ENDROOT
BRANCH   6  10
ATOM     10  C   UNL     1      16.631   7.797  20.428  0.00  0.00    -0.013 C 
ATOM     15  C   UNL     1      17.457   8.853  21.156  0.00  0.00    +0.007 C 
ATOM     16  C   UNL     1      16.744   6.446  21.127  0.00  0.00    +0.007 C 
ENDBRANCH   6  10
BRANCH   7  13
ATOM     13  C   UNL     1      14.642   7.506  17.963  0.00  0.00    +0.112 C 
BRANCH  13   3
ATOM      2  O   UNL     1      13.621   8.369  15.394  0.00  0.00    -0.276 OA
ATOM      3  N   UNL     1      14.298   8.837  17.570  0.00  0.00    -0.315 N 
ATOM     19  C   UNL     1      13.810   9.170  16.308  0.00  0.00    +0.214 C 
ATOM     31  H   UNL     1      14.364   9.569  18.270  0.00  0.00    +0.149 HD
BRANCH  19  20
ATOM     20  C   UNL     1      13.529  10.654  16.138  0.00  0.00    +0.102 C 
BRANCH  20  21
ATOM     21  C   UNL     1      14.704  11.471  15.550  0.00  0.00    -0.029 C 
ATOM     22  C   UNL     1      14.193  12.709  14.793  0.00  0.00    +0.011 C 
ATOM     23  C   UNL     1      15.587  11.947  16.720  0.00  0.00    +0.011 C 
ATOM     24  C   UNL     1      15.566  10.619  14.605  0.00  0.00    +0.011 C 
ENDBRANCH  20  21
ENDBRANCH  19  20
ENDBRANCH  13   3
ENDBRANCH   7  13
BRANCH   9  14
ATOM     14  C   UNL     1      13.036  10.322  21.549  0.00  0.00    +0.103 C 
BRANCH  14  18
ATOM      1  O   UNL     1      11.035  11.645  21.860  0.00  0.00    -0.276 OA
ATOM      4  N   UNL     1      12.028  10.622  23.695  0.00  0.00    -0.311 N 
ATOM     18  C   UNL     1      11.916  10.946  22.352  0.00  0.00    +0.214 C 
ATOM     32  H   UNL     1      12.793  10.032  24.008  0.00  0.00    +0.149 HD
BRANCH   4  25
ATOM     25  C   UNL     1      11.094  11.084  24.698  0.00  0.00    +0.141 C 
BRANCH  25  26
ATOM      5  N   UNL     1      13.326  13.715  26.246  0.00  0.00    -0.263 NA
ATOM     26  C   UNL     1      11.537  12.373  25.327  0.00  0.00    -0.012 A 
ATOM     27  C   UNL     1      10.631  13.397  25.580  0.00  0.00    +0.008 A 
ATOM     28  C   UNL     1      12.861  12.580  25.677  0.00  0.00    +0.115 A 
ATOM     29  C   UNL     1      11.070  14.579  26.165  0.00  0.00    +0.020 A 
ATOM     30  C   UNL     1      12.416  14.687  26.476  0.00  0.00    +0.111 A 
ENDBRANCH  25  26
ENDBRANCH   4  25
ENDBRANCH  14  18
ENDBRANCH   9  14
TORSDOF 9
ENDMDL
MODEL 2
REMARK VINA RESULT:      -6.5     26.984     29.591
REMARK  Name = 38028516
REMARK  15 active torsions:
REMARK  status: ('A' for Active; 'I' for Inactive)
REMARK    1  A    between atoms: N_3  and  C_13
REMARK    2  A    between atoms: N_4  and  C_25
REMARK    3  A    between atoms: C_6  and  C_10
REMARK    4  A    between atoms: C_7  and  C_13
REMARK    5  A    between atoms: C_9  and  C_14
REMARK    6  A    between atoms: C_10  and  C_15
REMARK    7  A    between atoms: C_10  and  C_16
REMARK    8  A    between atoms: C_11  and  C_17
REMARK    9  A    between atoms: C_14  and  C_18
REMARK   10  A    between atoms: C_19  and  C_20
REMARK   11  A    between atoms: C_20  and  C_21
REMARK   12  A    between atoms: C_21  and  C_22
REMARK   13  A    between atoms: C_21  and  C_23
REMARK   14  A    between atoms: C_21  and  C_24
REMARK   15  A    between atoms: C_25  and  C_26
REMARK                            x       y       z     vdW  Elec       q    Type
REMARK                         _______ _______ _______ _____ _____    ______ ____
ROOT
ATOM      6  C   UNL     1      -5.543 -10.421  10.479  0.00  0.00    +0.000 C 
ATOM      7  C   UNL     1      -4.856  -9.505   9.435  0.00  0.00    +0.032 C 
ATOM      8  C   UNL     1      -5.074 -10.064  11.897  0.00  0.00    +0.012 C 
ATOM      9  C   UNL     1      -3.548 -10.199  12.058  0.00  0.00    +0.023 C 
ATOM     11  C   UNL     1      -2.802  -9.545  10.914  0.00  0.00    -0.073 C 
ATOM     12  C   UNL     1      -3.406  -9.231   9.753  0.00  0.00    -0.022 C 
ATOM     17  C   UNL     1      -1.353  -9.219  11.148  0.00  0.00    +0.039 C 
ENDROOT
BRANCH   6  10
ATOM     10  C   UNL     1      -7.070 -10.329  10.398  0.00  0.00    -0.013 C 
ATOM     15  C   UNL     1      -7.709 -11.029  11.594  0.00  0.00    +0.007 C 
ATOM     16  C   UNL     1      -7.512  -8.871  10.326  0.00  0.00    +0.007 C 
ENDBRANCH   6  10
BRANCH   7  13
ATOM     13  C   UNL     1      -4.967 -10.095   8.024  0.00  0.00    +0.112 C 
BRANCH  13   3
ATOM      2  O   UNL     1      -6.759 -10.871   5.885  0.00  0.00    -0.276 OA
ATOM      3  N   UNL     1      -5.725  -9.232   7.173  0.00  0.00    -0.315 N 
ATOM     19  C   UNL     1      -6.569  -9.688   6.162  0.00  0.00    +0.214 C 
ATOM     31  H   UNL     1      -5.685  -8.233   7.353  0.00  0.00    +0.149 HD
BRANCH  19  20
ATOM     20  C   UNL     1      -7.256  -8.570   5.394  0.00  0.00    +0.102 C 
BRANCH  20  21
ATOM     21  C   UNL     1      -8.543  -8.026   6.058  0.00  0.00    -0.029 C 
ATOM     22  C   UNL     1      -8.223  -6.871   7.021  0.00  0.00    +0.011 C 
ATOM     23  C   UNL     1      -9.466  -7.491   4.945  0.00  0.00    +0.011 C 
ATOM     24  C   UNL     1      -9.294  -9.130   6.821  0.00  0.00    +0.011 C 
ENDBRANCH  20  21
ENDBRANCH  19  20
ENDBRANCH  13   3
ENDBRANCH   7  13
BRANCH   9  14
ATOM     14  C   UNL     1      -3.138 -11.667  12.214  0.00  0.00    +0.103 C 
BRANCH  14  18
ATOM      1  O   UNL     1      -2.779 -13.193  14.057  0.00  0.00    -0.276 OA
ATOM      4  N   UNL     1      -2.779 -10.903  14.450  0.00  0.00    -0.311 N 
ATOM     18  C   UNL     1      -2.881 -12.036  13.658  0.00  0.00    +0.214 C 
ATOM     32  H   UNL     1      -2.874  -9.984  14.026  0.00  0.00    +0.149 HD
BRANCH   4  25
ATOM     25  C   UNL     1      -2.536 -10.954  15.875  0.00  0.00    +0.141 C 
BRANCH  25  26
ATOM      5  N   UNL     1      -6.056  -9.962  16.833  0.00  0.00    -0.263 NA
ATOM     26  C   UNL     1      -3.805 -10.827  16.665  0.00  0.00    -0.012 A 
ATOM     27  C   UNL     1      -3.932 -11.417  17.918  0.00  0.00    +0.008 A 
ATOM     28  C   UNL     1      -4.887 -10.116  16.172  0.00  0.00    +0.115 A 
ATOM     29  C   UNL     1      -5.119 -11.281  18.629  0.00  0.00    +0.020 A 
ATOM     30  C   UNL     1      -6.142 -10.551  18.047  0.00  0.00    +0.111 A 
ENDBRANCH  25  26
ENDBRANCH   4  25
ENDBRANCH  14  18
ENDBRANCH   9  14
TORSDOF 9
ENDMDL
MODEL 3
REMARK VINA RESULT:      -6.5     26.970     30.130
REMARK  Name = 38028516
REMARK  15 active torsions:
REMARK  status: ('A' for Active; 'I' for Inactive)
REMARK    1  A    between atoms: N_3  and  C_13
REMARK    2  A    between atoms: N_4  and  C_25
REMARK    3  A    between atoms: C_6  and  C_10
REMARK    4  A    between atoms: C_7  and  C_13
REMARK    5  A    between atoms: C_9  and  C_14
REMARK    6  A    between atoms: C_10  and  C_15
REMARK    7  A    between atoms: C_10  and  C_16
REMARK    8  A    between atoms: C_11  and  C_17
REMARK    9  A    between atoms: C_14  and  C_18
REMARK   10  A    between atoms: C_19  and  C_20
REMARK   11  A    between atoms: C_20  and  C_21
REMARK   12  A    between atoms: C_21  and  C_22
REMARK   13  A    between atoms: C_21  and  C_23
REMARK   14  A    between atoms: C_21  and  C_24
REMARK   15  A    between atoms: C_25  and  C_26
REMARK                            x       y       z     vdW  Elec       q    Type
REMARK                         _______ _______ _______ _____ _____    ______ ____
ROOT
ATOM      6  C   UNL     1      -5.789 -10.622  15.319  0.00  0.00    +0.000 C 
ATOM      7  C   UNL     1      -6.572 -10.558  16.655  0.00  0.00    +0.032 C 
ATOM      8  C   UNL     1      -4.840 -11.829  15.311  0.00  0.00    +0.012 C 
ATOM      9  C   UNL     1      -3.827 -11.782  16.470  0.00  0.00    +0.023 C 
ATOM     11  C   UNL     1      -4.495 -11.455  17.790  0.00  0.00    -0.073 C 
ATOM     12  C   UNL     1      -5.728 -10.920  17.853  0.00  0.00    -0.022 C 
ATOM     17  C   UNL     1      -3.732 -11.799  19.039  0.00  0.00    +0.039 C 
ENDROOT
BRANCH   6  10
ATOM     10  C   UNL     1      -6.730 -10.692  14.112  0.00  0.00    -0.013 C 
ATOM     15  C   UNL     1      -6.317  -9.670  13.057  0.00  0.00    +0.007 C 
ATOM     16  C   UNL     1      -6.739 -12.100  13.526  0.00  0.00    +0.007 C 
ENDBRANCH   6  10
BRANCH   7  13
ATOM     13  C   UNL     1      -7.192  -9.172  16.867  0.00  0.00    +0.112 C 
BRANCH  13   3
ATOM      2  O   UNL     1      -9.948  -9.299  15.986  0.00  0.00    -0.276 OA
ATOM      3  N   UNL     1      -8.360  -9.259  17.686  0.00  0.00    -0.315 N 
ATOM     19  C   UNL     1      -9.658  -9.317  17.181  0.00  0.00    +0.214 C 
ATOM     31  H   UNL     1      -8.230  -9.337  18.690  0.00  0.00    +0.149 HD
BRANCH  19  20
ATOM     20  C   UNL     1     -10.726  -9.397  18.259  0.00  0.00    +0.102 C 
BRANCH  20  21
ATOM     21  C   UNL     1     -10.960 -10.816  18.832  0.00  0.00    -0.029 C 
ATOM     22  C   UNL     1     -10.554 -11.896  17.816  0.00  0.00    +0.011 C 
ATOM     23  C   UNL     1     -10.082 -10.975  20.089  0.00  0.00    +0.011 C 
ATOM     24  C   UNL     1     -12.429 -11.025  19.235  0.00  0.00    +0.011 C 
ENDBRANCH  20  21
ENDBRANCH  19  20
ENDBRANCH  13   3
ENDBRANCH   7  13
BRANCH   9  14
ATOM     14  C   UNL     1      -2.692 -10.796  16.171  0.00  0.00    +0.103 C 
BRANCH  14  18
ATOM      1  O   UNL     1      -1.363 -12.171  14.689  0.00  0.00    -0.276 OA
ATOM      4  N   UNL     1      -2.114 -10.097  13.959  0.00  0.00    -0.311 N 
ATOM     18  C   UNL     1      -1.978 -11.126  14.879  0.00  0.00    +0.214 C 
ATOM     32  H   UNL     1      -2.647  -9.268  14.208  0.00  0.00    +0.149 HD
BRANCH   4  25
ATOM     25  C   UNL     1      -1.532 -10.138  12.636  0.00  0.00    +0.141 C 
BRANCH  25  26
ATOM      5  N   UNL     1      -3.707  -9.433   9.626  0.00  0.00    -0.263 NA
ATOM     26  C   UNL     1      -2.573 -10.314  11.570  0.00  0.00    -0.012 A 
ATOM     27  C   UNL     1      -3.357 -11.462  11.515  0.00  0.00    +0.008 A 
ATOM     28  C   UNL     1      -2.787  -9.338  10.611  0.00  0.00    +0.115 A 
ATOM     29  C   UNL     1      -4.315 -11.597  10.517  0.00  0.00    +0.020 A 
ATOM     30  C   UNL     1      -4.449 -10.563   9.604  0.00  0.00    +0.111 A 
ENDBRANCH  25  26
ENDBRANCH   4  25
ENDBRANCH  14  18
ENDBRANCH   9  14
TORSDOF 9
ENDMDL
MODEL 4
REMARK VINA RESULT:      -6.4     14.224     18.553
REMARK  Name = 38028516
REMARK  15 active torsions:
REMARK  status: ('A' for Active; 'I' for Inactive)
REMARK    1  A    between atoms: N_3  and  C_13
REMARK    2  A    between atoms: N_4  and  C_25
REMARK    3  A    between atoms: C_6  and  C_10
REMARK    4  A    between atoms: C_7  and  C_13
REMARK    5  A    between atoms: C_9  and  C_14
REMARK    6  A    between atoms: C_10  and  C_15
REMARK    7  A    between atoms: C_10  and  C_16
REMARK    8  A    between atoms: C_11  and  C_17
REMARK    9  A    between atoms: C_14  and  C_18
REMARK   10  A    between atoms: C_19  and  C_20
REMARK   11  A    between atoms: C_20  and  C_21
REMARK   12  A    between atoms: C_21  and  C_22
REMARK   13  A    between atoms: C_21  and  C_23
REMARK   14  A    between atoms: C_21  and  C_24
REMARK   15  A    between atoms: C_25  and  C_26
REMARK                            x       y       z     vdW  Elec       q    Type
REMARK                         _______ _______ _______ _____ _____    ______ ____
ROOT
ATOM      6  C   UNL     1       8.831   8.494   5.365  0.00  0.00    +0.000 C 
ATOM      7  C   UNL     1       8.670   8.364   6.901  0.00  0.00    +0.032 C 
ATOM      8  C   UNL     1       8.438   7.181   4.672  0.00  0.00    +0.012 C 
ATOM      9  C   UNL     1       9.287   5.990   5.154  0.00  0.00    +0.023 C 
ATOM     11  C   UNL     1       9.397   5.951   6.664  0.00  0.00    -0.073 C 
ATOM     12  C   UNL     1       9.105   7.019   7.429  0.00  0.00    -0.022 C 
ATOM     17  C   UNL     1       9.808   4.643   7.280  0.00  0.00    +0.039 C 
ENDROOT
BRANCH   6  10
ATOM     10  C   UNL     1       7.998   9.649   4.801  0.00  0.00    -0.013 C 
ATOM     15  C   UNL     1       8.909  10.758   4.283  0.00  0.00    +0.007 C 
ATOM     16  C   UNL     1       7.073   9.148   3.697  0.00  0.00    +0.007 C 
ENDBRANCH   6  10
BRANCH   7  13
ATOM     13  C   UNL     1       9.436   9.472   7.633  0.00  0.00    +0.112 C 
BRANCH  13   3
ATOM      2  O   UNL     1      11.557  11.039   6.433  0.00  0.00    -0.276 OA
ATOM      3  N   UNL     1      10.838   9.192   7.651  0.00  0.00    -0.315 N 
ATOM     19  C   UNL     1      11.799  10.001   7.047  0.00  0.00    +0.214 C 
ATOM     31  H   UNL     1      11.153   8.385   8.182  0.00  0.00    +0.149 HD
BRANCH  19  20
ATOM     20  C   UNL     1      13.218   9.479   7.203  0.00  0.00    +0.102 C 
BRANCH  20  21
ATOM     21  C   UNL     1      13.587   8.318   6.248  0.00  0.00    -0.029 C 
ATOM     22  C   UNL     1      12.933   8.507   4.869  0.00  0.00    +0.011 C 
ATOM     23  C   UNL     1      15.118   8.320   6.065  0.00  0.00    +0.011 C 
ATOM     24  C   UNL     1      13.169   6.957   6.827  0.00  0.00    +0.011 C 
ENDBRANCH  20  21
ENDBRANCH  19  20
ENDBRANCH  13   3
ENDBRANCH   7  13
BRANCH   9  14
ATOM     14  C   UNL     1      10.674   6.002   4.502  0.00  0.00    +0.103 C 
BRANCH  14  18
ATOM      1  O   UNL     1      10.097   5.797   2.162  0.00  0.00    -0.276 OA
ATOM      4  N   UNL     1      11.396   4.155   3.169  0.00  0.00    -0.311 N 
ATOM     18  C   UNL     1      10.672   5.337   3.144  0.00  0.00    +0.214 C 
ATOM     32  H   UNL     1      11.841   3.856   4.032  0.00  0.00    +0.149 HD
BRANCH   4  25
ATOM     25  C   UNL     1      11.562   3.306   2.010  0.00  0.00    +0.141 C 
BRANCH  25  26
ATOM      5  N   UNL     1      13.860   4.434  -0.772  0.00  0.00    -0.263 NA
ATOM     26  C   UNL     1      12.818   3.627   1.254  0.00  0.00    -0.012 A 
ATOM     27  C   UNL     1      14.070   3.429   1.827  0.00  0.00    +0.008 A 
ATOM     28  C   UNL     1      12.768   4.126  -0.037  0.00  0.00    +0.115 A 
ATOM     29  C   UNL     1      15.217   3.734   1.102  0.00  0.00    +0.020 A 
ATOM     30  C   UNL     1      15.059   4.230  -0.182  0.00  0.00    +0.111 A 
ENDBRANCH  25  26
ENDBRANCH   4  25
ENDBRANCH  14  18
ENDBRANCH   9  14
TORSDOF 9
ENDMDL
MODEL 5
REMARK VINA RESULT:      -6.3     27.198     30.997
REMARK  Name = 38028516
REMARK  15 active torsions:
REMARK  status: ('A' for Active; 'I' for Inactive)
REMARK    1  A    between atoms: N_3  and  C_13
REMARK    2  A    between atoms: N_4  and  C_25
REMARK    3  A    between atoms: C_6  and  C_10
REMARK    4  A    between atoms: C_7  and  C_13
REMARK    5  A    between atoms: C_9  and  C_14
REMARK    6  A    between atoms: C_10  and  C_15
REMARK    7  A    between atoms: C_10  and  C_16
REMARK    8  A    between atoms: C_11  and  C_17
REMARK    9  A    between atoms: C_14  and  C_18
REMARK   10  A    between atoms: C_19  and  C_20
REMARK   11  A    between atoms: C_20  and  C_21
REMARK   12  A    between atoms: C_21  and  C_22
REMARK   13  A    between atoms: C_21  and  C_23
REMARK   14  A    between atoms: C_21  and  C_24
REMARK   15  A    between atoms: C_25  and  C_26
REMARK                            x       y       z     vdW  Elec       q    Type
REMARK                         _______ _______ _______ _____ _____    ______ ____
ROOT
ATOM      6  C   UNL     1      -3.685 -10.553  11.616  0.00  0.00    +0.000 C 
ATOM      7  C   UNL     1      -4.872 -10.175  12.538  0.00  0.00    +0.032 C 
ATOM      8  C   UNL     1      -3.663  -9.650  10.373  0.00  0.00    +0.012 C 
ATOM      9  C   UNL     1      -4.965  -9.747   9.558  0.00  0.00    +0.023 C 
ATOM     11  C   UNL     1      -6.191  -9.651  10.442  0.00  0.00    -0.073 C 
ATOM     12  C   UNL     1      -6.128  -9.832  11.774  0.00  0.00    -0.022 C 
ATOM     17  C   UNL     1      -7.488  -9.296   9.767  0.00  0.00    +0.039 C 
ENDROOT
BRANCH   6  10
ATOM     10  C   UNL     1      -2.344 -10.461  12.349  0.00  0.00    -0.013 C 
ATOM     15  C   UNL     1      -1.817 -11.857  12.670  0.00  0.00    +0.007 C 
ATOM     16  C   UNL     1      -1.333  -9.681  11.515  0.00  0.00    +0.007 C 
ENDBRANCH   6  10
BRANCH   7  13
ATOM     13  C   UNL     1      -5.173 -11.295  13.540  0.00  0.00    +0.112 C 
BRANCH  13   3
ATOM      2  O   UNL     1      -3.329 -11.405  15.771  0.00  0.00    -0.276 OA
ATOM      3  N   UNL     1      -5.368 -10.763  14.852  0.00  0.00    -0.315 N 
ATOM     19  C   UNL     1      -4.426 -10.858  15.875  0.00  0.00    +0.214 C 
ATOM     31  H   UNL     1      -6.220 -10.239  15.029  0.00  0.00    +0.149 HD
BRANCH  19  20
ATOM     20  C   UNL     1      -4.877 -10.218  17.178  0.00  0.00    +0.102 C 
BRANCH  20  21
ATOM     21  C   UNL     1      -5.313 -11.221  18.272  0.00  0.00    -0.029 C 
ATOM     22  C   UNL     1      -6.097 -12.397  17.665  0.00  0.00    +0.011 C 
ATOM     23  C   UNL     1      -4.043 -11.779  18.944  0.00  0.00    +0.011 C 
ATOM     24  C   UNL     1      -6.174 -10.541  19.350  0.00  0.00    +0.011 C 
ENDBRANCH  20  21
ENDBRANCH  19  20
ENDBRANCH  13   3
ENDBRANCH   7  13
BRANCH   9  14
ATOM     14  C   UNL     1      -4.995 -11.028   8.716  0.00  0.00    +0.103 C 
BRANCH  14  18
ATOM      1  O   UNL     1      -5.663  -9.730   6.787  0.00  0.00    -0.276 OA
ATOM      4  N   UNL     1      -4.544 -11.743   6.480  0.00  0.00    -0.311 N 
ATOM     18  C   UNL     1      -5.120 -10.734   7.237  0.00  0.00    +0.214 C 
ATOM     32  H   UNL     1      -4.114 -12.538   6.946  0.00  0.00    +0.149 HD
BRANCH   4  25
ATOM     25  C   UNL     1      -4.518 -11.729   5.035  0.00  0.00    +0.141 C 
BRANCH  25  26
ATOM      5  N   UNL     1      -1.977 -13.094   2.591  0.00  0.00    -0.263 NA
ATOM     26  C   UNL     1      -3.357 -12.506   4.486  0.00  0.00    -0.012 A 
ATOM     27  C   UNL     1      -2.599 -13.336   5.305  0.00  0.00    +0.008 A 
ATOM     28  C   UNL     1      -3.008 -12.421   3.148  0.00  0.00    +0.115 A 
ATOM     29  C   UNL     1      -1.530 -14.045   4.768  0.00  0.00    +0.020 A 
ATOM     30  C   UNL     1      -1.262 -13.890   3.418  0.00  0.00    +0.111 A 
ENDBRANCH  25  26
ENDBRANCH   4  25
ENDBRANCH  14  18
ENDBRANCH   9  14
TORSDOF 9
ENDMDL
MODEL 6
REMARK VINA RESULT:      -6.2     14.307     18.574
REMARK  Name = 38028516
REMARK  15 active torsions:
REMARK  status: ('A' for Active; 'I' for Inactive)
REMARK    1  A    between atoms: N_3  and  C_13
REMARK    2  A    between atoms: N_4  and  C_25
REMARK    3  A    between atoms: C_6  and  C_10
REMARK    4  A    between atoms: C_7  and  C_13
REMARK    5  A    between atoms: C_9  and  C_14
REMARK    6  A    between atoms: C_10  and  C_15
REMARK    7  A    between atoms: C_10  and  C_16
REMARK    8  A    between atoms: C_11  and  C_17
REMARK    9  A    between atoms: C_14  and  C_18
REMARK   10  A    between atoms: C_19  and  C_20
REMARK   11  A    between atoms: C_20  and  C_21
REMARK   12  A    between atoms: C_21  and  C_22
REMARK   13  A    between atoms: C_21  and  C_23
REMARK   14  A    between atoms: C_21  and  C_24
REMARK   15  A    between atoms: C_25  and  C_26
REMARK                            x       y       z     vdW  Elec       q    Type
REMARK                         _______ _______ _______ _____ _____    ______ ____
ROOT
ATOM      6  C   UNL     1       8.967   8.481   4.801  0.00  0.00    +0.000 C 
ATOM      7  C   UNL     1       8.676   9.167   6.160  0.00  0.00    +0.032 C 
ATOM      8  C   UNL     1       8.444   7.037   4.807  0.00  0.00    +0.012 C 
ATOM      9  C   UNL     1       9.078   6.191   5.928  0.00  0.00    +0.023 C 
ATOM     11  C   UNL     1       9.069   6.920   7.256  0.00  0.00    -0.073 C 
ATOM     12  C   UNL     1       8.875   8.248   7.341  0.00  0.00    -0.022 C 
ATOM     17  C   UNL     1       9.245   6.079   8.491  0.00  0.00    +0.039 C 
ENDROOT
BRANCH   6  10
ATOM     10  C   UNL     1       8.350   9.252   3.631  0.00  0.00    -0.013 C 
ATOM     15  C   UNL     1       8.502   8.462   2.335  0.00  0.00    +0.007 C 
ATOM     16  C   UNL     1       6.882   9.557   3.910  0.00  0.00    +0.007 C 
ENDBRANCH   6  10
BRANCH   7  13
ATOM     13  C   UNL     1       9.535  10.424   6.340  0.00  0.00    +0.112 C 
BRANCH  13   3
ATOM      2  O   UNL     1      11.854  10.421   8.076  0.00  0.00    -0.276 OA
ATOM      3  N   UNL     1      10.893  10.167   5.973  0.00  0.00    -0.315 N 
ATOM     19  C   UNL     1      11.956  10.185   6.874  0.00  0.00    +0.214 C 
ATOM     31  H   UNL     1      11.081   9.904   5.010  0.00  0.00    +0.149 HD
BRANCH  19  20
ATOM     20  C   UNL     1      13.301   9.887   6.232  0.00  0.00    +0.102 C 
BRANCH  20  21
ATOM     21  C   UNL     1      13.611   8.382   6.051  0.00  0.00    -0.029 C 
ATOM     22  C   UNL     1      13.183   7.892   4.657  0.00  0.00    +0.011 C 
ATOM     23  C   UNL     1      15.134   8.188   6.188  0.00  0.00    +0.011 C 
ATOM     24  C   UNL     1      12.914   7.530   7.124  0.00  0.00    +0.011 C 
ENDBRANCH  20  21
ENDBRANCH  19  20
ENDBRANCH  13   3
ENDBRANCH   7  13
BRANCH   9  14
ATOM     14  C   UNL     1      10.498   5.753   5.552  0.00  0.00    +0.103 C 
BRANCH  14  18
ATOM      1  O   UNL     1       9.952   3.453   5.038  0.00  0.00    -0.276 OA
ATOM      4  N   UNL     1      11.199   4.699   3.524  0.00  0.00    -0.311 N 
ATOM     18  C   UNL     1      10.501   4.499   4.705  0.00  0.00    +0.214 C 
ATOM     32  H   UNL     1      11.618   5.606   3.335  0.00  0.00    +0.149 HD
BRANCH   4  25
ATOM     25  C   UNL     1      11.367   3.670   2.522  0.00  0.00    +0.141 C 
BRANCH  25  26
ATOM      5  N   UNL     1      11.808   4.292  -1.180  0.00  0.00    -0.263 NA
ATOM     26  C   UNL     1      11.125   4.191   1.136  0.00  0.00    -0.012 A 
ATOM     27  C   UNL     1      10.049   5.028   0.862  0.00  0.00    +0.008 A 
ATOM     28  C   UNL     1      11.968   3.856   0.089  0.00  0.00    +0.115 A 
ATOM     29  C   UNL     1       9.851   5.497  -0.432  0.00  0.00    +0.020 A 
ATOM     30  C   UNL     1      10.751   5.103  -1.409  0.00  0.00    +0.111 A 
ENDBRANCH  25  26
ENDBRANCH   4  25
ENDBRANCH  14  18
ENDBRANCH   9  14
TORSDOF 9
ENDMDL
MODEL 7
REMARK VINA RESULT:      -6.2      2.466      5.017
REMARK  Name = 38028516
REMARK  15 active torsions:
REMARK  status: ('A' for Active; 'I' for Inactive)
REMARK    1  A    between atoms: N_3  and  C_13
REMARK    2  A    between atoms: N_4  and  C_25
REMARK    3  A    between atoms: C_6  and  C_10
REMARK    4  A    between atoms: C_7  and  C_13
REMARK    5  A    between atoms: C_9  and  C_14
REMARK    6  A    between atoms: C_10  and  C_15
REMARK    7  A    between atoms: C_10  and  C_16
REMARK    8  A    between atoms: C_11  and  C_17
REMARK    9  A    between atoms: C_14  and  C_18
REMARK   10  A    between atoms: C_19  and  C_20
REMARK   11  A    between atoms: C_20  and  C_21
REMARK   12  A    between atoms: C_21  and  C_22
REMARK   13  A    between atoms: C_21  and  C_23
REMARK   14  A    between atoms: C_21  and  C_24
REMARK   15  A    between atoms: C_25  and  C_26
REMARK                            x       y       z     vdW  Elec       q    Type
REMARK                         _______ _______ _______ _____ _____    ______ ____
ROOT
ATOM      6  C   UNL     1      13.661   8.407  20.054  0.00  0.00    +0.000 C 
ATOM      7  C   UNL     1      14.034   7.455  18.889  0.00  0.00    +0.032 C 
ATOM      8  C   UNL     1      12.711   9.510  19.563  0.00  0.00    +0.012 C 
ATOM      9  C   UNL     1      13.329  10.347  18.427  0.00  0.00    +0.023 C 
ATOM     11  C   UNL     1      13.959   9.472  17.362  0.00  0.00    -0.073 C 
ATOM     12  C   UNL     1      14.255   8.179  17.583  0.00  0.00    -0.022 C 
ATOM     17  C   UNL     1      14.201  10.107  16.021  0.00  0.00    +0.039 C 
ENDROOT
BRANCH   6  10
ATOM     10  C   UNL     1      13.019   7.651  21.222  0.00  0.00    -0.013 C 
ATOM     15  C   UNL     1      12.317   8.625  22.164  0.00  0.00    +0.007 C 
ATOM     16  C   UNL     1      12.041   6.602  20.703  0.00  0.00    +0.007 C 
ENDBRANCH   6  10
BRANCH   7  13
ATOM     13  C   UNL     1      15.276   6.624  19.230  0.00  0.00    +0.112 C 
BRANCH  13   3
ATOM      2  O   UNL     1      16.616   6.229  21.767  0.00  0.00    -0.276 OA
ATOM      3  N   UNL     1      16.292   7.445  19.811  0.00  0.00    -0.315 N 
ATOM     19  C   UNL     1      16.889   7.184  21.043  0.00  0.00    +0.214 C 
ATOM     31  H   UNL     1      16.632   8.233  19.268  0.00  0.00    +0.149 HD
BRANCH  19  20
ATOM     20  C   UNL     1      17.934   8.213  21.441  0.00  0.00    +0.102 C 
BRANCH  20  21
ATOM     21  C   UNL     1      19.380   7.666  21.521  0.00  0.00    -0.029 C 
ATOM     22  C   UNL     1      19.666   7.057  22.904  0.00  0.00    +0.011 C 
ATOM     23  C   UNL     1      19.531   6.558  20.460  0.00  0.00    +0.011 C 
ATOM     24  C   UNL     1      20.415   8.765  21.227  0.00  0.00    +0.011 C 
ENDBRANCH  20  21
ENDBRANCH  19  20
ENDBRANCH  13   3
ENDBRANCH   7  13
BRANCH   9  14
ATOM     14  C   UNL     1      14.340  11.360  18.975  0.00  0.00    +0.103 C 
BRANCH  14  18
ATOM      1  O   UNL     1      12.861  13.236  19.356  0.00  0.00    -0.276 OA
ATOM      4  N   UNL     1      14.110  12.386  21.121  0.00  0.00    -0.311 N 
ATOM     18  C   UNL     1      13.675  12.435  19.805  0.00  0.00    +0.214 C 
ATOM     32  H   UNL     1      14.786  11.681  21.401  0.00  0.00    +0.149 HD
BRANCH   4  25
ATOM     25  C   UNL     1      13.642  13.298  22.141  0.00  0.00    +0.141 C 
BRANCH  25  26
ATOM      5  N   UNL     1      12.463  11.761  25.388  0.00  0.00    -0.263 NA
ATOM     26  C   UNL     1      12.762  12.613  23.146  0.00  0.00    -0.012 A 
ATOM     27  C   UNL     1      11.479  12.197  22.809  0.00  0.00    +0.008 A 
ATOM     28  C   UNL     1      13.203  12.373  24.437  0.00  0.00    +0.115 A 
ATOM     29  C   UNL     1      10.686  11.563  23.760  0.00  0.00    +0.020 A 
ATOM     30  C   UNL     1      11.220  11.371  25.024  0.00  0.00    +0.111 A 
ENDBRANCH  25  26
ENDBRANCH   4  25
ENDBRANCH  14  18
ENDBRANCH   9  14
TORSDOF 9
ENDMDL
MODEL 8
REMARK VINA RESULT:      -6.1     24.496     27.109
REMARK  Name = 38028516
REMARK  15 active torsions:
REMARK  status: ('A' for Active; 'I' for Inactive)
REMARK    1  A    between atoms: N_3  and  C_13
REMARK    2  A    between atoms: N_4  and  C_25
REMARK    3  A    between atoms: C_6  and  C_10
REMARK    4  A    between atoms: C_7  and  C_13
REMARK    5  A    between atoms: C_9  and  C_14
REMARK    6  A    between atoms: C_10  and  C_15
REMARK    7  A    between atoms: C_10  and  C_16
REMARK    8  A    between atoms: C_11  and  C_17
REMARK    9  A    between atoms: C_14  and  C_18
REMARK   10  A    between atoms: C_19  and  C_20
REMARK   11  A    between atoms: C_20  and  C_21
REMARK   12  A    between atoms: C_21  and  C_22
REMARK   13  A    between atoms: C_21  and  C_23
REMARK   14  A    between atoms: C_21  and  C_24
REMARK   15  A    between atoms: C_25  and  C_26
REMARK                            x       y       z     vdW  Elec       q    Type
REMARK                         _______ _______ _______ _____ _____    ______ ____
ROOT
ATOM      6  C   UNL     1     -10.750  10.425  17.150  0.00  0.00    +0.000 C 
ATOM      7  C   UNL     1     -10.312   8.971  16.843  0.00  0.00    +0.032 C 
ATOM      8  C   UNL     1     -10.473  10.770  18.621  0.00  0.00    +0.012 C 
ATOM      9  C   UNL     1     -11.207   9.824  19.590  0.00  0.00    +0.023 C 
ATOM     11  C   UNL     1     -11.041   8.372  19.192  0.00  0.00    -0.073 C 
ATOM     12  C   UNL     1     -10.628   8.010  17.964  0.00  0.00    -0.022 C 
ATOM     17  C   UNL     1     -11.319   7.343  20.253  0.00  0.00    +0.039 C 
ENDROOT
BRANCH   6  10
ATOM     10  C   UNL     1     -10.046  11.435  16.238  0.00  0.00    -0.013 C 
ATOM     15  C   UNL     1     -11.055  12.106  15.311  0.00  0.00    +0.007 C 
ATOM     16  C   UNL     1      -9.302  12.474  17.070  0.00  0.00    +0.007 C 
ENDBRANCH   6  10
BRANCH   7  13
ATOM     13  C   UNL     1     -10.946   8.465  15.543  0.00  0.00    +0.112 C 
BRANCH  13   3
ATOM      2  O   UNL     1     -13.292   9.296  14.060  0.00  0.00    -0.276 OA
ATOM      3  N   UNL     1     -12.299   8.059  15.763  0.00  0.00    -0.315 N 
ATOM     19  C   UNL     1     -13.376   8.507  15.000  0.00  0.00    +0.214 C 
ATOM     31  H   UNL     1     -12.474   7.363  16.481  0.00  0.00    +0.149 HD
BRANCH  19  20
ATOM     20  C   UNL     1     -14.713   7.933  15.441  0.00  0.00    +0.102 C 
BRANCH  20  21
ATOM     21  C   UNL     1     -15.386   8.689  16.611  0.00  0.00    -0.029 C 
ATOM     22  C   UNL     1     -16.916   8.705  16.453  0.00  0.00    +0.011 C 
ATOM     23  C   UNL     1     -15.040   7.951  17.920  0.00  0.00    +0.011 C 
ATOM     24  C   UNL     1     -14.872  10.134  16.719  0.00  0.00    +0.011 C 
ENDBRANCH  20  21
ENDBRANCH  19  20
ENDBRANCH  13   3
ENDBRANCH   7  13
BRANCH   9  14
ATOM     14  C   UNL     1     -12.690  10.195  19.706  0.00  0.00    +0.103 C 
BRANCH  14  18
ATOM      1  O   UNL     1     -12.683  10.546  22.100  0.00  0.00    -0.276 OA
ATOM      4  N   UNL     1     -14.340   9.229  21.140  0.00  0.00    -0.311 N 
ATOM     18  C   UNL     1     -13.209  10.031  21.117  0.00  0.00    +0.214 C 
ATOM     32  H   UNL     1     -14.704   8.849  20.271  0.00  0.00    +0.149 HD
BRANCH   4  25
ATOM     25  C   UNL     1     -15.049   8.899  22.357  0.00  0.00    +0.141 C 
BRANCH  25  26
ATOM      5  N   UNL     1     -16.221   5.553  23.670  0.00  0.00    -0.263 NA
ATOM     26  C   UNL     1     -15.151   7.416  22.562  0.00  0.00    -0.012 A 
ATOM     27  C   UNL     1     -14.314   6.538  21.881  0.00  0.00    +0.008 A 
ATOM     28  C   UNL     1     -16.079   6.877  23.438  0.00  0.00    +0.115 A 
ATOM     29  C   UNL     1     -14.430   5.169  22.093  0.00  0.00    +0.020 A 
ATOM     30  C   UNL     1     -15.392   4.731  22.989  0.00  0.00    +0.111 A 
ENDBRANCH  25  26
ENDBRANCH   4  25
ENDBRANCH  14  18
ENDBRANCH   9  14
TORSDOF 9
ENDMDL
MODEL 9
REMARK VINA RESULT:      -6.0     27.636     29.766
REMARK  Name = 38028516
REMARK  15 active torsions:
REMARK  status: ('A' for Active; 'I' for Inactive)
REMARK    1  A    between atoms: N_3  and  C_13
REMARK    2  A    between atoms: N_4  and  C_25
REMARK    3  A    between atoms: C_6  and  C_10
REMARK    4  A    between atoms: C_7  and  C_13
REMARK    5  A    between atoms: C_9  and  C_14
REMARK    6  A    between atoms: C_10  and  C_15
REMARK    7  A    between atoms: C_10  and  C_16
REMARK    8  A    between atoms: C_11  and  C_17
REMARK    9  A    between atoms: C_14  and  C_18
REMARK   10  A    between atoms: C_19  and  C_20
REMARK   11  A    between atoms: C_20  and  C_21
REMARK   12  A    between atoms: C_21  and  C_22
REMARK   13  A    between atoms: C_21  and  C_23
REMARK   14  A    between atoms: C_21  and  C_24
REMARK   15  A    between atoms: C_25  and  C_26
REMARK                            x       y       z     vdW  Elec       q    Type
REMARK                         _______ _______ _______ _____ _____    ______ ____
ROOT
ATOM      6  C   UNL     1      -5.350 -12.052  15.925  0.00  0.00    +0.000 C 
ATOM      7  C   UNL     1      -4.455 -12.980  15.065  0.00  0.00    +0.032 C 
ATOM      8  C   UNL     1      -6.833 -12.394  15.719  0.00  0.00    +0.012 C 
ATOM      9  C   UNL     1      -7.263 -12.260  14.246  0.00  0.00    +0.023 C 
ATOM     11  C   UNL     1      -6.277 -12.928  13.309  0.00  0.00    -0.073 C 
ATOM     12  C   UNL     1      -5.031 -13.254  13.696  0.00  0.00    -0.022 C 
ATOM     17  C   UNL     1      -6.771 -13.254  11.926  0.00  0.00    +0.039 C 
ENDROOT
BRANCH   6  10
ATOM     10  C   UNL     1      -4.997 -12.142  17.413  0.00  0.00    -0.013 C 
ATOM     15  C   UNL     1      -4.910 -10.746  18.023  0.00  0.00    +0.007 C 
ATOM     16  C   UNL     1      -6.025 -12.992  18.152  0.00  0.00    +0.007 C 
ENDBRANCH   6  10
BRANCH   7  13
ATOM     13  C   UNL     1      -3.041 -12.406  14.918  0.00  0.00    +0.112 C 
BRANCH  13   3
ATOM      2  O   UNL     1      -1.777  -9.952  14.039  0.00  0.00    -0.276 OA
ATOM      3  N   UNL     1      -2.800 -11.989  13.572  0.00  0.00    -0.315 N 
ATOM     19  C   UNL     1      -2.183 -10.787  13.232  0.00  0.00    +0.214 C 
ATOM     31  H   UNL     1      -3.046 -12.633  12.826  0.00  0.00    +0.149 HD
BRANCH  19  20
ATOM     20  C   UNL     1      -2.051 -10.574  11.733  0.00  0.00    +0.102 C 
BRANCH  20  21
ATOM     21  C   UNL     1      -3.386 -10.296  11.001  0.00  0.00    -0.029 C 
ATOM     22  C   UNL     1      -3.226  -9.166   9.970  0.00  0.00    +0.011 C 
ATOM     23  C   UNL     1      -3.799 -11.580  10.255  0.00  0.00    +0.011 C 
ATOM     24  C   UNL     1      -4.505  -9.927  11.989  0.00  0.00    +0.011 C 
ENDBRANCH  20  21
ENDBRANCH  19  20
ENDBRANCH  13   3
ENDBRANCH   7  13
BRANCH   9  14
ATOM     14  C   UNL     1      -7.475 -10.791  13.864  0.00  0.00    +0.103 C 
BRANCH  14  18
ATOM      1  O   UNL     1      -9.818 -10.407  14.325  0.00  0.00    -0.276 OA
ATOM      4  N   UNL     1      -8.207  -9.327  15.606  0.00  0.00    -0.311 N 
ATOM     18  C   UNL     1      -8.644 -10.175  14.599  0.00  0.00    +0.214 C 
ATOM     32  H   UNL     1      -7.211  -9.201  15.759  0.00  0.00    +0.149 HD
BRANCH   4  25
ATOM     25  C   UNL     1      -9.109  -8.599  16.471  0.00  0.00    +0.141 C 
BRANCH  25  26
ATOM      5  N   UNL     1     -11.126  -9.940  19.373  0.00  0.00    -0.263 NA
ATOM     26  C   UNL     1      -9.481  -9.392  17.689  0.00  0.00    -0.012 A 
ATOM     27  C   UNL     1      -8.583 -10.284  18.267  0.00  0.00    +0.008 A 
ATOM     28  C   UNL     1     -10.728  -9.258  18.276  0.00  0.00    +0.115 A 
ATOM     29  C   UNL     1      -8.955 -11.004  19.396  0.00  0.00    +0.020 A 
ATOM     30  C   UNL     1     -10.227 -10.798  19.906  0.00  0.00    +0.111 A 
ENDBRANCH  25  26
ENDBRANCH   4  25
ENDBRANCH  14  18
ENDBRANCH   9  14
TORSDOF 9
ENDMDL
MODEL 10
REMARK VINA RESULT:      -6.0     27.880     30.616
REMARK  Name = 38028516
REMARK  15 active torsions:
REMARK  status: ('A' for Active; 'I' for Inactive)
REMARK    1  A    between atoms: N_3  and  C_13
REMARK    2  A    between atoms: N_4  and  C_25
REMARK    3  A    between atoms: C_6  and  C_10
REMARK    4  A    between atoms: C_7  and  C_13
REMARK    5  A    between atoms: C_9  and  C_14
REMARK    6  A    between atoms: C_10  and  C_15
REMARK    7  A    between atoms: C_10  and  C_16
REMARK    8  A    between atoms: C_11  and  C_17
REMARK    9  A    between atoms: C_14  and  C_18
REMARK   10  A    between atoms: C_19  and  C_20
REMARK   11  A    between atoms: C_20  and  C_21
REMARK   12  A    between atoms: C_21  and  C_22
REMARK   13  A    between atoms: C_21  and  C_23
REMARK   14  A    between atoms: C_21  and  C_24
REMARK   15  A    between atoms: C_25  and  C_26
REMARK                            x       y       z     vdW  Elec       q    Type
REMARK                         _______ _______ _______ _____ _____    ______ ____
ROOT
ATOM      6  C   UNL     1      -5.517 -11.665  17.563  0.00  0.00    +0.000 C 
ATOM      7  C   UNL     1      -6.994 -11.389  17.182  0.00  0.00    +0.032 C 
ATOM      8  C   UNL     1      -4.613 -10.527  17.066  0.00  0.00    +0.012 C 
ATOM      9  C   UNL     1      -4.697 -10.341  15.539  0.00  0.00    +0.023 C 
ATOM     11  C   UNL     1      -6.131 -10.328  15.052  0.00  0.00    -0.073 C 
ATOM     12  C   UNL     1      -7.146 -10.788  15.805  0.00  0.00    -0.022 C 
ATOM     17  C   UNL     1      -6.379  -9.731  13.694  0.00  0.00    +0.039 C 
ENDROOT
BRANCH   6  10
ATOM     10  C   UNL     1      -5.344 -11.843  19.075  0.00  0.00    -0.013 C 
ATOM     15  C   UNL     1      -3.869 -12.013  19.424  0.00  0.00    +0.007 C 
ATOM     16  C   UNL     1      -5.944 -10.657  19.822  0.00  0.00    +0.007 C 
ENDBRANCH   6  10
BRANCH   7  13
ATOM     13  C   UNL     1      -7.838 -12.664  17.279  0.00  0.00    +0.112 C 
BRANCH  13   3
ATOM      2  O   UNL     1      -9.221 -12.037  19.746  0.00  0.00    -0.276 OA
ATOM      3  N   UNL     1      -9.222 -12.345  17.440  0.00  0.00    -0.315 N 
ATOM     19  C   UNL     1      -9.813 -12.053  18.668  0.00  0.00    +0.214 C 
ATOM     31  H   UNL     1      -9.792 -12.274  16.602  0.00  0.00    +0.149 HD
BRANCH  19  20
ATOM     20  C   UNL     1     -11.300 -11.754  18.571  0.00  0.00    +0.102 C 
BRANCH  20  21
ATOM     21  C   UNL     1     -11.675 -10.268  18.781  0.00  0.00    -0.029 C 
ATOM     22  C   UNL     1     -10.576  -9.338  18.239  0.00  0.00    +0.011 C 
ATOM     23  C   UNL     1     -12.976  -9.988  18.003  0.00  0.00    +0.011 C 
ATOM     24  C   UNL     1     -11.919  -9.952  20.266  0.00  0.00    +0.011 C 
ENDBRANCH  20  21
ENDBRANCH  19  20
ENDBRANCH  13   3
ENDBRANCH   7  13
BRANCH   9  14
ATOM     14  C   UNL     1      -3.877 -11.409  14.807  0.00  0.00    +0.103 C 
BRANCH  14  18
ATOM      1  O   UNL     1      -1.905 -10.255  14.014  0.00  0.00    -0.276 OA
ATOM      4  N   UNL     1      -3.503 -10.973  12.487  0.00  0.00    -0.311 N 
ATOM     18  C   UNL     1      -2.970 -10.810  13.756  0.00  0.00    +0.214 C 
ATOM     32  H   UNL     1      -4.393 -11.451  12.374  0.00  0.00    +0.149 HD
BRANCH   4  25
ATOM     25  C   UNL     1      -2.850 -10.496  11.289  0.00  0.00    +0.141 C 
BRANCH  25  26
ATOM      5  N   UNL     1      -4.984 -10.343   8.172  0.00  0.00    -0.263 NA
ATOM     26  C   UNL     1      -3.836 -10.001  10.271  0.00  0.00    -0.012 A 
ATOM     27  C   UNL     1      -4.501  -8.792  10.445  0.00  0.00    +0.008 A 
ATOM     28  C   UNL     1      -4.110 -10.731   9.127  0.00  0.00    +0.115 A 
ATOM     29  C   UNL     1      -5.407  -8.358   9.485  0.00  0.00    +0.020 A 
ATOM     30  C   UNL     1      -5.612  -9.164   8.376  0.00  0.00    +0.111 A 
ENDBRANCH  25  26
ENDBRANCH   4  25
ENDBRANCH  14  18
ENDBRANCH   9  14
TORSDOF 9
ENDMDL
