MODEL 1
REMARK VINA RESULT:      -6.9      0.000      0.000
REMARK  Name = 11867216
REMARK  4 active torsions:
REMARK  status: ('A' for Active; 'I' for Inactive)
REMARK    1  A    between atoms: S_1  and  N_9
REMARK    2  A    between atoms: S_1  and  C_25
REMARK    3  A    between atoms: N_9  and  C_20
REMARK    4  A    between atoms: C_19  and  C_22
REMARK                            x       y       z     vdW  Elec       q    Type
REMARK                         _______ _______ _______ _____ _____    ______ ____
ROOT
ATOM      3  O   UNL     1      -6.437  -9.625  13.840  0.00  0.00    -0.266 OA
ATOM      4  O   UNL     1      -5.387 -14.456  12.286  0.00  0.00    -0.270 OA
ATOM      7  N   UNL     1      -3.348 -13.340  12.563  0.00  0.00    -0.297 N 
ATOM      8  N   UNL     1      -4.276 -10.513  13.663  0.00  0.00    -0.310 N 
ATOM     10  C   UNL     1      -3.200 -11.131  11.423  0.00  0.00    +0.027 C 
ATOM     11  C   UNL     1      -1.967 -11.512  13.521  0.00  0.00    +0.054 C 
ATOM     12  C   UNL     1      -1.883 -10.858  12.142  0.00  0.00    +0.018 C 
ATOM     13  C   UNL     1      -3.428 -12.647  11.277  0.00  0.00    +0.113 C 
ATOM     14  C   UNL     1      -4.335 -10.449  12.196  0.00  0.00    +0.130 C 
ATOM     15  C   UNL     1      -2.149 -13.035  13.360  0.00  0.00    +0.117 C 
ATOM     16  C   UNL     1      -3.119 -10.942  14.326  0.00  0.00    +0.027 A 
ATOM     17  C   UNL     1      -3.042 -10.886  15.669  0.00  0.00    +0.024 A 
ATOM     18  C   UNL     1      -5.400 -10.029  14.365  0.00  0.00    +0.274 A 
ATOM     19  C   UNL     1      -4.382 -14.196  12.947  0.00  0.00    +0.247 C 
ATOM     20  C   UNL     1      -5.264 -10.016  15.843  0.00  0.00    +0.112 A 
ATOM     21  C   UNL     1      -4.147 -10.410  16.456  0.00  0.00    +0.031 A 
ENDROOT
BRANCH  19  22
ATOM      2  F   UNL     1      -4.024 -16.647  17.960  0.00  0.00    -0.205 F 
ATOM     22  C   UNL     1      -4.288 -14.838  14.263  0.00  0.00    +0.037 A 
ATOM     23  C   UNL     1      -4.865 -14.230  15.374  0.00  0.00    +0.016 A 
ATOM     24  C   UNL     1      -3.623 -16.055  14.393  0.00  0.00    +0.016 A 
ATOM     26  C   UNL     1      -4.775 -14.842  16.625  0.00  0.00    +0.039 A 
ATOM     27  C   UNL     1      -3.534 -16.667  15.643  0.00  0.00    +0.039 A 
ATOM     28  C   UNL     1      -4.110 -16.060  16.760  0.00  0.00    +0.123 A 
ENDBRANCH  19  22
BRANCH  20   9
ATOM      9  N   UNL     1      -6.327  -9.568  16.647  0.00  0.00    -0.211 N 
ATOM     34  H   UNL     1      -6.100  -8.707  17.165  0.00  0.00    +0.174 HD
BRANCH   9   1
ATOM      1  S   UNL     1      -7.155 -10.735  17.549  0.00  0.00    +0.072 S 
ATOM      5  O   UNL     1      -7.306 -11.945  16.763  0.00  0.00    -0.150 OA
ATOM      6  O   UNL     1      -6.603 -10.799  18.890  0.00  0.00    -0.150 OA
BRANCH   1  25
ATOM     25  C   UNL     1      -8.752  -9.985  17.672  0.00  0.00    +0.108 A 
ATOM     29  C   UNL     1      -9.743 -10.622  18.398  0.00  0.00    +0.029 A 
ATOM     30  C   UNL     1      -8.980  -8.776  17.038  0.00  0.00    +0.029 A 
ATOM     31  C   UNL     1     -11.003 -10.031  18.494  0.00  0.00    +0.002 A 
ATOM     32  C   UNL     1     -10.240  -8.185  17.135  0.00  0.00    +0.002 A 
ATOM     33  C   UNL     1     -11.251  -8.812  17.862  0.00  0.00    +0.000 A 
ENDBRANCH   1  25
ENDBRANCH   9   1
ENDBRANCH  20   9
TORSDOF 4
ENDMDL
MODEL 2
REMARK VINA RESULT:      -6.9      3.417      7.751
REMARK  Name = 11867216
REMARK  4 active torsions:
REMARK  status: ('A' for Active; 'I' for Inactive)
REMARK    1  A    between atoms: S_1  and  N_9
REMARK    2  A    between atoms: S_1  and  C_25
REMARK    3  A    between atoms: N_9  and  C_20
REMARK    4  A    between atoms: C_19  and  C_22
REMARK                            x       y       z     vdW  Elec       q    Type
REMARK                         _______ _______ _______ _____ _____    ______ ____
ROOT
ATOM      3  O   UNL     1      -6.096 -13.919  14.760  0.00  0.00    -0.266 OA
ATOM      4  O   UNL     1      -9.653 -12.171  18.097  0.00  0.00    -0.270 OA
ATOM      7  N   UNL     1      -7.633 -11.097  18.587  0.00  0.00    -0.297 N 
ATOM      8  N   UNL     1      -5.716 -12.211  16.318  0.00  0.00    -0.310 N 
ATOM     10  C   UNL     1      -5.676 -12.613  18.847  0.00  0.00    +0.027 C 
ATOM     11  C   UNL     1      -5.351 -10.338  17.964  0.00  0.00    +0.054 C 
ATOM     12  C   UNL     1      -4.751 -11.402  18.882  0.00  0.00    +0.018 C 
ATOM     13  C   UNL     1      -7.085 -12.228  19.333  0.00  0.00    +0.113 C 
ATOM     14  C   UNL     1      -5.692 -13.181  17.423  0.00  0.00    +0.130 C 
ATOM     15  C   UNL     1      -6.742  -9.928  18.488  0.00  0.00    +0.117 C 
ATOM     16  C   UNL     1      -5.472 -10.850  16.541  0.00  0.00    +0.027 A 
ATOM     17  C   UNL     1      -5.384  -9.994  15.505  0.00  0.00    +0.024 A 
ATOM     18  C   UNL     1      -5.894 -12.733  15.020  0.00  0.00    +0.274 A 
ATOM     19  C   UNL     1      -8.904 -11.198  18.019  0.00  0.00    +0.247 C 
ATOM     20  C   UNL     1      -5.811 -11.738  13.922  0.00  0.00    +0.112 A 
ATOM     21  C   UNL     1      -5.560 -10.448  14.152  0.00  0.00    +0.031 A 
ENDROOT
BRANCH  19  22
ATOM      2  F   UNL     1     -10.801  -6.856  15.050  0.00  0.00    -0.205 F 
ATOM     22  C   UNL     1      -9.401 -10.059  17.240  0.00  0.00    +0.037 A 
ATOM     23  C   UNL     1      -9.110  -9.968  15.881  0.00  0.00    +0.016 A 
ATOM     24  C   UNL     1     -10.164  -9.074  17.862  0.00  0.00    +0.016 A 
ATOM     26  C   UNL     1      -9.583  -8.885  15.141  0.00  0.00    +0.039 A 
ATOM     27  C   UNL     1     -10.638  -7.991  17.122  0.00  0.00    +0.039 A 
ATOM     28  C   UNL     1     -10.347  -7.896  15.761  0.00  0.00    +0.123 A 
ENDBRANCH  19  22
BRANCH  20   9
ATOM      9  N   UNL     1      -5.989 -12.140  12.587  0.00  0.00    -0.211 N 
ATOM     34  H   UNL     1      -6.803 -12.759  12.461  0.00  0.00    +0.174 HD
BRANCH   9   1
ATOM      1  S   UNL     1      -4.606 -12.611  11.734  0.00  0.00    +0.072 S 
ATOM      5  O   UNL     1      -3.481 -12.713  12.644  0.00  0.00    -0.150 OA
ATOM      6  O   UNL     1      -4.931 -13.714  10.848  0.00  0.00    -0.150 OA
BRANCH   1  25
ATOM     25  C   UNL     1      -4.339 -11.184  10.724  0.00  0.00    +0.108 A 
ATOM     29  C   UNL     1      -3.301 -10.323  11.034  0.00  0.00    +0.029 A 
ATOM     30  C   UNL     1      -5.174 -10.956   9.645  0.00  0.00    +0.029 A 
ATOM     31  C   UNL     1      -3.092  -9.197  10.239  0.00  0.00    +0.002 A 
ATOM     32  C   UNL     1      -4.963  -9.830   8.849  0.00  0.00    +0.002 A 
ATOM     33  C   UNL     1      -3.923  -8.950   9.145  0.00  0.00    +0.000 A 
ENDBRANCH   1  25
ENDBRANCH   9   1
ENDBRANCH  20   9
TORSDOF 4
ENDMDL
MODEL 3
REMARK VINA RESULT:      -6.8      2.949      4.824
REMARK  Name = 11867216
REMARK  4 active torsions:
REMARK  status: ('A' for Active; 'I' for Inactive)
REMARK    1  A    between atoms: S_1  and  N_9
REMARK    2  A    between atoms: S_1  and  C_25
REMARK    3  A    between atoms: N_9  and  C_20
REMARK    4  A    between atoms: C_19  and  C_22
REMARK                            x       y       z     vdW  Elec       q    Type
REMARK                         _______ _______ _______ _____ _____    ______ ____
ROOT
ATOM      3  O   UNL     1      -4.219 -10.863  16.705  0.00  0.00    -0.266 OA
ATOM      4  O   UNL     1      -1.581 -10.047  12.320  0.00  0.00    -0.270 OA
ATOM      7  N   UNL     1      -2.774 -12.045  12.070  0.00  0.00    -0.297 N 
ATOM      8  N   UNL     1      -4.400 -12.199  14.789  0.00  0.00    -0.310 N 
ATOM     10  C   UNL     1      -2.491 -13.674  13.930  0.00  0.00    +0.027 C 
ATOM     11  C   UNL     1      -4.619 -13.584  12.695  0.00  0.00    +0.054 C 
ATOM     12  C   UNL     1      -3.607 -14.530  13.341  0.00  0.00    +0.018 C 
ATOM     13  C   UNL     1      -1.811 -12.843  12.827  0.00  0.00    +0.113 C 
ATOM     14  C   UNL     1      -3.078 -12.792  15.038  0.00  0.00    +0.130 C 
ATOM     15  C   UNL     1      -3.937 -12.792  11.562  0.00  0.00    +0.117 C 
ATOM     16  C   UNL     1      -5.196 -12.622  13.716  0.00  0.00    +0.027 A 
ATOM     17  C   UNL     1      -6.449 -12.152  13.569  0.00  0.00    +0.024 A 
ATOM     18  C   UNL     1      -4.863 -11.262  15.736  0.00  0.00    +0.274 A 
ATOM     19  C   UNL     1      -2.551 -10.677  11.899  0.00  0.00    +0.247 C 
ATOM     20  C   UNL     1      -6.241 -10.761  15.506  0.00  0.00    +0.112 A 
ATOM     21  C   UNL     1      -6.991 -11.190  14.490  0.00  0.00    +0.031 A 
ENDROOT
BRANCH  19  22
ATOM      2  F   UNL     1      -6.400  -7.720   9.124  0.00  0.00    -0.205 F 
ATOM     22  C   UNL     1      -3.561  -9.902  11.172  0.00  0.00    +0.037 A 
ATOM     23  C   UNL     1      -4.755  -9.557  11.799  0.00  0.00    +0.016 A 
ATOM     24  C   UNL     1      -3.320  -9.512   9.856  0.00  0.00    +0.016 A 
ATOM     26  C   UNL     1      -5.716  -8.820  11.107  0.00  0.00    +0.039 A 
ATOM     27  C   UNL     1      -4.280  -8.774   9.164  0.00  0.00    +0.039 A 
ATOM     28  C   UNL     1      -5.478  -8.428   9.789  0.00  0.00    +0.123 A 
ENDBRANCH  19  22
BRANCH  20   9
ATOM      9  N   UNL     1      -6.804  -9.811  16.377  0.00  0.00    -0.211 N 
ATOM     34  H   UNL     1      -6.169  -9.024  16.574  0.00  0.00    +0.174 HD
BRANCH   9   1
ATOM      1  S   UNL     1      -7.634 -10.401  17.728  0.00  0.00    +0.072 S 
ATOM      5  O   UNL     1      -7.917 -11.813  17.550  0.00  0.00    -0.150 OA
ATOM      6  O   UNL     1      -6.989  -9.933  18.941  0.00  0.00    -0.150 OA
BRANCH   1  25
ATOM     25  C   UNL     1      -9.168  -9.534  17.577  0.00  0.00    +0.108 A 
ATOM     29  C   UNL     1     -10.303 -10.062  18.168  0.00  0.00    +0.029 A 
ATOM     30  C   UNL     1      -9.204  -8.345  16.871  0.00  0.00    +0.029 A 
ATOM     31  C   UNL     1     -11.512  -9.379  18.048  0.00  0.00    +0.002 A 
ATOM     32  C   UNL     1     -10.414  -7.662  16.752  0.00  0.00    +0.002 A 
ATOM     33  C   UNL     1     -11.568  -8.178  17.339  0.00  0.00    +0.000 A 
ENDBRANCH   1  25
ENDBRANCH   9   1
ENDBRANCH  20   9
TORSDOF 4
ENDMDL
MODEL 4
REMARK VINA RESULT:      -6.8     25.228     28.277
REMARK  Name = 11867216
REMARK  4 active torsions:
REMARK  status: ('A' for Active; 'I' for Inactive)
REMARK    1  A    between atoms: S_1  and  N_9
REMARK    2  A    between atoms: S_1  and  C_25
REMARK    3  A    between atoms: N_9  and  C_20
REMARK    4  A    between atoms: C_19  and  C_22
REMARK                            x       y       z     vdW  Elec       q    Type
REMARK                         _______ _______ _______ _____ _____    ______ ____
ROOT
ATOM      3  O   UNL     1      12.127  10.628   5.908  0.00  0.00    -0.266 OA
ATOM      4  O   UNL     1      13.196   8.646   1.241  0.00  0.00    -0.270 OA
ATOM      7  N   UNL     1      14.948   8.062   2.678  0.00  0.00    -0.297 N 
ATOM      8  N   UNL     1      13.958   9.239   5.453  0.00  0.00    -0.310 N 
ATOM     10  C   UNL     1      15.919   9.956   3.970  0.00  0.00    +0.027 C 
ATOM     11  C   UNL     1      15.886   7.697   4.949  0.00  0.00    +0.054 C 
ATOM     12  C   UNL     1      16.726   8.965   4.802  0.00  0.00    +0.018 C 
ATOM     13  C   UNL     1      15.606   9.364   2.583  0.00  0.00    +0.113 C 
ATOM     14  C   UNL     1      14.645  10.325   4.740  0.00  0.00    +0.130 C 
ATOM     15  C   UNL     1      15.619   7.089   3.557  0.00  0.00    +0.117 C 
ATOM     16  C   UNL     1      14.568   7.991   5.639  0.00  0.00    +0.027 A 
ATOM     17  C   UNL     1      13.973   7.047   6.391  0.00  0.00    +0.024 A 
ATOM     18  C   UNL     1      12.705   9.548   6.022  0.00  0.00    +0.274 A 
ATOM     19  C   UNL     1      13.762   7.838   1.977  0.00  0.00    +0.247 C 
ATOM     20  C   UNL     1      12.088   8.459   6.819  0.00  0.00    +0.112 A 
ATOM     21  C   UNL     1      12.692   7.284   7.001  0.00  0.00    +0.031 A 
ENDROOT
BRANCH  19  22
ATOM      2  F   UNL     1      11.265   2.870   2.572  0.00  0.00    -0.205 F 
ATOM     22  C   UNL     1      13.107   6.535   2.132  0.00  0.00    +0.037 A 
ATOM     23  C   UNL     1      13.526   5.452   1.364  0.00  0.00    +0.016 A 
ATOM     24  C   UNL     1      12.070   6.386   3.050  0.00  0.00    +0.016 A 
ATOM     26  C   UNL     1      12.903   4.213   1.512  0.00  0.00    +0.039 A 
ATOM     27  C   UNL     1      11.447   5.147   3.199  0.00  0.00    +0.039 A 
ATOM     28  C   UNL     1      11.864   4.060   2.430  0.00  0.00    +0.123 A 
ENDBRANCH  19  22
BRANCH  20   9
ATOM      9  N   UNL     1      10.831   8.647   7.422  0.00  0.00    -0.211 N 
ATOM     34  H   UNL     1      10.864   8.559   8.448  0.00  0.00    +0.174 HD
BRANCH   9   1
ATOM      1  S   UNL     1       9.506   7.892   6.691  0.00  0.00    +0.072 S 
ATOM      5  O   UNL     1       8.286   8.591   7.049  0.00  0.00    -0.150 OA
ATOM      6  O   UNL     1       9.808   7.614   5.299  0.00  0.00    -0.150 OA
BRANCH   1  25
ATOM     25  C   UNL     1       9.495   6.344   7.547  0.00  0.00    +0.108 A 
ATOM     29  C   UNL     1       9.829   5.190   6.860  0.00  0.00    +0.029 A 
ATOM     30  C   UNL     1       9.152   6.317   8.888  0.00  0.00    +0.029 A 
ATOM     31  C   UNL     1       9.819   3.970   7.535  0.00  0.00    +0.002 A 
ATOM     32  C   UNL     1       9.143   5.096   9.562  0.00  0.00    +0.002 A 
ATOM     33  C   UNL     1       9.476   3.923   8.887  0.00  0.00    +0.000 A 
ENDBRANCH   1  25
ENDBRANCH   9   1
ENDBRANCH  20   9
TORSDOF 4
ENDMDL
MODEL 5
REMARK VINA RESULT:      -6.7     26.143     29.566
REMARK  Name = 11867216
REMARK  4 active torsions:
REMARK  status: ('A' for Active; 'I' for Inactive)
REMARK    1  A    between atoms: S_1  and  N_9
REMARK    2  A    between atoms: S_1  and  C_25
REMARK    3  A    between atoms: N_9  and  C_20
REMARK    4  A    between atoms: C_19  and  C_22
REMARK                            x       y       z     vdW  Elec       q    Type
REMARK                         _______ _______ _______ _____ _____    ______ ____
ROOT
ATOM      3  O   UNL     1      12.481   7.215   3.365  0.00  0.00    -0.266 OA
ATOM      4  O   UNL     1       8.687   9.755   5.815  0.00  0.00    -0.270 OA
ATOM      7  N   UNL     1       9.065   7.756   6.972  0.00  0.00    -0.297 N 
ATOM      8  N   UNL     1      11.510   6.513   5.378  0.00  0.00    -0.310 N 
ATOM     10  C   UNL     1       9.084   5.711   5.552  0.00  0.00    +0.027 C 
ATOM     11  C   UNL     1      10.488   5.812   7.572  0.00  0.00    +0.054 C 
ATOM     12  C   UNL     1       9.587   4.900   6.741  0.00  0.00    +0.018 C 
ATOM     13  C   UNL     1       8.293   6.940   6.036  0.00  0.00    +0.113 C 
ATOM     14  C   UNL     1      10.283   6.104   4.680  0.00  0.00    +0.130 C 
ATOM     15  C   UNL     1       9.672   7.014   8.089  0.00  0.00    +0.117 C 
ATOM     16  C   UNL     1      11.666   6.307   6.755  0.00  0.00    +0.027 A 
ATOM     17  C   UNL     1      12.838   6.582   7.357  0.00  0.00    +0.024 A 
ATOM     18  C   UNL     1      12.552   7.027   4.579  0.00  0.00    +0.274 A 
ATOM     19  C   UNL     1       9.191   9.128   6.746  0.00  0.00    +0.247 C 
ATOM     20  C   UNL     1      13.810   7.334   5.303  0.00  0.00    +0.112 A 
ATOM     21  C   UNL     1      13.947   7.114   6.612  0.00  0.00    +0.031 A 
ENDROOT
BRANCH  19  22
ATOM      2  F   UNL     1      12.312  12.094  10.313  0.00  0.00    -0.205 F 
ATOM     22  C   UNL     1      10.010   9.906   7.681  0.00  0.00    +0.037 A 
ATOM     23  C   UNL     1      11.376  10.051   7.452  0.00  0.00    +0.016 A 
ATOM     24  C   UNL     1       9.418  10.497   8.794  0.00  0.00    +0.016 A 
ATOM     26  C   UNL     1      12.154  10.791   8.342  0.00  0.00    +0.039 A 
ATOM     27  C   UNL     1      10.196  11.237   9.684  0.00  0.00    +0.039 A 
ATOM     28  C   UNL     1      11.565  11.384   9.458  0.00  0.00    +0.123 A 
ENDBRANCH  19  22
BRANCH  20   9
ATOM      9  N   UNL     1      14.914   7.866   4.612  0.00  0.00    -0.211 N 
ATOM     34  H   UNL     1      15.789   7.359   4.808  0.00  0.00    +0.174 HD
BRANCH   9   1
ATOM      1  S   UNL     1      15.066   9.550   4.584  0.00  0.00    +0.072 S 
ATOM      5  O   UNL     1      15.251  10.002   3.218  0.00  0.00    -0.150 OA
ATOM      6  O   UNL     1      14.040  10.148   5.419  0.00  0.00    -0.150 OA
BRANCH   1  25
ATOM     25  C   UNL     1      16.611   9.755   5.420  0.00  0.00    +0.108 A 
ATOM     29  C   UNL     1      17.456   8.667   5.553  0.00  0.00    +0.029 A 
ATOM     30  C   UNL     1      16.946  11.000   5.925  0.00  0.00    +0.029 A 
ATOM     31  C   UNL     1      18.674   8.828   6.214  0.00  0.00    +0.002 A 
ATOM     32  C   UNL     1      18.164  11.160   6.584  0.00  0.00    +0.002 A 
ATOM     33  C   UNL     1      19.028  10.076   6.729  0.00  0.00    +0.000 A 
ENDBRANCH   1  25
ENDBRANCH   9   1
ENDBRANCH  20   9
TORSDOF 4
ENDMDL
MODEL 6
REMARK VINA RESULT:      -6.7     25.558     28.643
REMARK  Name = 11867216
REMARK  4 active torsions:
REMARK  status: ('A' for Active; 'I' for Inactive)
REMARK    1  A    between atoms: S_1  and  N_9
REMARK    2  A    between atoms: S_1  and  C_25
REMARK    3  A    between atoms: N_9  and  C_20
REMARK    4  A    between atoms: C_19  and  C_22
REMARK                            x       y       z     vdW  Elec       q    Type
REMARK                         _______ _______ _______ _____ _____    ______ ____
ROOT
ATOM      3  O   UNL     1       8.296   7.836   3.059  0.00  0.00    -0.266 OA
ATOM      4  O   UNL     1      11.585  10.262   6.245  0.00  0.00    -0.270 OA
ATOM      7  N   UNL     1      11.095   8.175   7.184  0.00  0.00    -0.297 N 
ATOM      8  N   UNL     1       9.232   6.867   4.975  0.00  0.00    -0.310 N 
ATOM     10  C   UNL     1       8.668   7.644   7.349  0.00  0.00    +0.027 C 
ATOM     11  C   UNL     1      10.298   5.829   7.009  0.00  0.00    +0.054 C 
ATOM     12  C   UNL     1       9.016   6.214   7.747  0.00  0.00    +0.018 C 
ATOM     13  C   UNL     1       9.810   8.602   7.736  0.00  0.00    +0.113 C 
ATOM     14  C   UNL     1       8.370   7.679   5.846  0.00  0.00    +0.130 C 
ATOM     15  C   UNL     1      11.444   6.768   7.440  0.00  0.00    +0.117 C 
ATOM     16  C   UNL     1      10.108   5.912   5.507  0.00  0.00    +0.027 A 
ATOM     17  C   UNL     1      10.806   5.098   4.692  0.00  0.00    +0.024 A 
ATOM     18  C   UNL     1       9.059   7.027   3.584  0.00  0.00    +0.274 A 
ATOM     19  C   UNL     1      11.870   9.084   6.462  0.00  0.00    +0.247 C 
ATOM     20  C   UNL     1       9.874   6.120   2.738  0.00  0.00    +0.112 A 
ATOM     21  C   UNL     1      10.689   5.203   3.262  0.00  0.00    +0.031 A 
ENDROOT
BRANCH  19  22
ATOM      2  F   UNL     1      16.679   7.263   4.266  0.00  0.00    -0.205 F 
ATOM     22  C   UNL     1      13.131   8.607   5.886  0.00  0.00    +0.037 A 
ATOM     23  C   UNL     1      14.322   8.776   6.588  0.00  0.00    +0.016 A 
ATOM     24  C   UNL     1      13.133   7.985   4.640  0.00  0.00    +0.016 A 
ATOM     26  C   UNL     1      15.521   8.322   6.040  0.00  0.00    +0.039 A 
ATOM     27  C   UNL     1      14.332   7.530   4.092  0.00  0.00    +0.039 A 
ATOM     28  C   UNL     1      15.527   7.699   4.792  0.00  0.00    +0.123 A 
ENDBRANCH  19  22
BRANCH  20   9
ATOM      9  N   UNL     1       9.796   6.199   1.336  0.00  0.00    -0.211 N 
ATOM     34  H   UNL     1       9.490   5.316   0.903  0.00  0.00    +0.174 HD
BRANCH   9   1
ATOM      1  S   UNL     1      11.072   6.971   0.537  0.00  0.00    +0.072 S 
ATOM      5  O   UNL     1      10.671   7.303  -0.817  0.00  0.00    -0.150 OA
ATOM      6  O   UNL     1      11.646   7.987   1.399  0.00  0.00    -0.150 OA
BRANCH   1  25
ATOM     25  C   UNL     1      12.241   5.648   0.430  0.00  0.00    +0.108 A 
ATOM     29  C   UNL     1      13.511   5.826   0.950  0.00  0.00    +0.029 A 
ATOM     30  C   UNL     1      11.864   4.461  -0.174  0.00  0.00    +0.029 A 
ATOM     31  C   UNL     1      14.434   4.784   0.864  0.00  0.00    +0.002 A 
ATOM     32  C   UNL     1      12.787   3.419  -0.259  0.00  0.00    +0.002 A 
ATOM     33  C   UNL     1      14.072   3.580   0.260  0.00  0.00    +0.000 A 
ENDBRANCH   1  25
ENDBRANCH   9   1
ENDBRANCH  20   9
TORSDOF 4
ENDMDL
MODEL 7
REMARK VINA RESULT:      -6.6     21.505     24.537
REMARK  Name = 11867216
REMARK  4 active torsions:
REMARK  status: ('A' for Active; 'I' for Inactive)
REMARK    1  A    between atoms: S_1  and  N_9
REMARK    2  A    between atoms: S_1  and  C_25
REMARK    3  A    between atoms: N_9  and  C_20
REMARK    4  A    between atoms: C_19  and  C_22
REMARK                            x       y       z     vdW  Elec       q    Type
REMARK                         _______ _______ _______ _____ _____    ______ ____
ROOT
ATOM      3  O   UNL     1     -14.889   9.232  24.823  0.00  0.00    -0.266 OA
ATOM      4  O   UNL     1     -12.263   6.310  21.444  0.00  0.00    -0.270 OA
ATOM      7  N   UNL     1     -14.231   7.016  20.393  0.00  0.00    -0.297 N 
ATOM      8  N   UNL     1     -15.530   8.893  22.595  0.00  0.00    -0.310 N 
ATOM     10  C   UNL     1     -16.315   6.626  21.699  0.00  0.00    +0.027 C 
ATOM     11  C   UNL     1     -16.166   8.558  20.180  0.00  0.00    +0.054 C 
ATOM     12  C   UNL     1     -17.095   7.456  20.686  0.00  0.00    +0.018 C 
ATOM     13  C   UNL     1     -15.069   6.006  21.040  0.00  0.00    +0.113 C 
ATOM     14  C   UNL     1     -15.952   7.517  22.893  0.00  0.00    +0.130 C 
ATOM     15  C   UNL     1     -14.946   7.925  19.481  0.00  0.00    +0.117 C 
ATOM     16  C   UNL     1     -15.699   9.445  21.319  0.00  0.00    +0.027 A 
ATOM     17  C   UNL     1     -15.413  10.741  21.093  0.00  0.00    +0.024 A 
ATOM     18  C   UNL     1     -15.044   9.655  23.678  0.00  0.00    +0.274 A 
ATOM     19  C   UNL     1     -12.867   7.066  20.684  0.00  0.00    +0.247 C 
ATOM     20  C   UNL     1     -14.723  11.069  23.361  0.00  0.00    +0.112 A 
ATOM     21  C   UNL     1     -14.908  11.582  22.144  0.00  0.00    +0.031 A 
ENDROOT
BRANCH  19  22
ATOM      2  F   UNL     1      -9.819  11.083  18.267  0.00  0.00    -0.205 F 
ATOM     22  C   UNL     1     -12.067   8.120  20.051  0.00  0.00    +0.037 A 
ATOM     23  C   UNL     1     -12.025   9.392  20.615  0.00  0.00    +0.016 A 
ATOM     24  C   UNL     1     -11.354   7.843  18.887  0.00  0.00    +0.016 A 
ATOM     26  C   UNL     1     -11.265  10.394  20.012  0.00  0.00    +0.039 A 
ATOM     27  C   UNL     1     -10.593   8.844  18.284  0.00  0.00    +0.039 A 
ATOM     28  C   UNL     1     -10.548  10.121  18.846  0.00  0.00    +0.123 A 
ENDBRANCH  19  22
BRANCH  20   9
ATOM      9  N   UNL     1     -14.216  11.921  24.358  0.00  0.00    -0.211 N 
ATOM     34  H   UNL     1     -14.766  12.786  24.462  0.00  0.00    +0.174 HD
BRANCH   9   1
ATOM      1  S   UNL     1     -12.540  12.143  24.403  0.00  0.00    +0.072 S 
ATOM      5  O   UNL     1     -11.920  11.413  23.312  0.00  0.00    -0.150 OA
ATOM      6  O   UNL     1     -12.238  13.547  24.607  0.00  0.00    -0.150 OA
BRANCH   1  25
ATOM     25  C   UNL     1     -12.135  11.293  25.901  0.00  0.00    +0.108 A 
ATOM     29  C   UNL     1     -13.029  11.323  26.957  0.00  0.00    +0.029 A 
ATOM     30  C   UNL     1     -10.932  10.615  25.988  0.00  0.00    +0.029 A 
ATOM     31  C   UNL     1     -12.710  10.655  28.138  0.00  0.00    +0.002 A 
ATOM     32  C   UNL     1     -10.613   9.946  27.169  0.00  0.00    +0.002 A 
ATOM     33  C   UNL     1     -11.501   9.965  28.244  0.00  0.00    +0.000 A 
ENDBRANCH   1  25
ENDBRANCH   9   1
ENDBRANCH  20   9
TORSDOF 4
ENDMDL
MODEL 8
REMARK VINA RESULT:      -6.6     25.957     27.964
REMARK  Name = 11867216
REMARK  4 active torsions:
REMARK  status: ('A' for Active; 'I' for Inactive)
REMARK    1  A    between atoms: S_1  and  N_9
REMARK    2  A    between atoms: S_1  and  C_25
REMARK    3  A    between atoms: N_9  and  C_20
REMARK    4  A    between atoms: C_19  and  C_22
REMARK                            x       y       z     vdW  Elec       q    Type
REMARK                         _______ _______ _______ _____ _____    ______ ____
ROOT
ATOM      3  O   UNL     1      18.860  -1.962  30.123  0.00  0.00    -0.266 OA
ATOM      4  O   UNL     1      19.889  -0.328  25.315  0.00  0.00    -0.270 OA
ATOM      7  N   UNL     1      20.604  -2.550  25.478  0.00  0.00    -0.297 N 
ATOM      8  N   UNL     1      19.707  -3.328  28.419  0.00  0.00    -0.310 N 
ATOM     10  C   UNL     1      22.056  -3.043  27.440  0.00  0.00    +0.027 C 
ATOM     11  C   UNL     1      20.563  -4.789  26.553  0.00  0.00    +0.054 C 
ATOM     12  C   UNL     1      21.954  -4.533  27.131  0.00  0.00    +0.018 C 
ATOM     13  C   UNL     1      21.854  -2.214  26.158  0.00  0.00    +0.113 C 
ATOM     14  C   UNL     1      21.027  -2.691  28.521  0.00  0.00    +0.130 C 
ATOM     15  C   UNL     1      20.391  -3.989  25.246  0.00  0.00    +0.117 C 
ATOM     16  C   UNL     1      19.480  -4.395  27.539  0.00  0.00    +0.027 A 
ATOM     17  C   UNL     1      18.299  -5.041  27.540  0.00  0.00    +0.024 A 
ATOM     18  C   UNL     1      18.716  -2.881  29.318  0.00  0.00    +0.274 A 
ATOM     19  C   UNL     1      19.717  -1.532  25.124  0.00  0.00    +0.247 C 
ATOM     20  C   UNL     1      17.428  -3.615  29.254  0.00  0.00    +0.112 A 
ATOM     21  C   UNL     1      17.237  -4.640  28.423  0.00  0.00    +0.031 A 
ENDROOT
BRANCH  19  22
ATOM      2  F   UNL     1      14.900  -2.982  22.685  0.00  0.00    -0.205 F 
ATOM     22  C   UNL     1      18.454  -1.912  24.484  0.00  0.00    +0.037 A 
ATOM     23  C   UNL     1      18.377  -1.994  23.096  0.00  0.00    +0.016 A 
ATOM     24  C   UNL     1      17.336  -2.191  25.268  0.00  0.00    +0.016 A 
ATOM     26  C   UNL     1      17.175  -2.355  22.488  0.00  0.00    +0.039 A 
ATOM     27  C   UNL     1      16.135  -2.553  24.659  0.00  0.00    +0.039 A 
ATOM     28  C   UNL     1      16.054  -2.635  23.269  0.00  0.00    +0.123 A 
ENDBRANCH  19  22
BRANCH  20   9
ATOM      9  N   UNL     1      16.361  -3.247  30.093  0.00  0.00    -0.211 N 
ATOM     34  H   UNL     1      16.234  -2.227  30.153  0.00  0.00    +0.174 HD
BRANCH   9   1
ATOM      1  S   UNL     1      16.224  -4.063  31.568  0.00  0.00    +0.072 S 
ATOM      5  O   UNL     1      17.258  -5.076  31.665  0.00  0.00    -0.150 OA
ATOM      6  O   UNL     1      16.037  -3.104  32.641  0.00  0.00    -0.150 OA
BRANCH   1  25
ATOM     25  C   UNL     1      14.685  -4.904  31.338  0.00  0.00    +0.108 A 
ATOM     29  C   UNL     1      14.589  -5.881  30.362  0.00  0.00    +0.029 A 
ATOM     30  C   UNL     1      13.607  -4.569  32.138  0.00  0.00    +0.029 A 
ATOM     31  C   UNL     1      13.375  -6.543  30.179  0.00  0.00    +0.002 A 
ATOM     32  C   UNL     1      12.393  -5.232  31.955  0.00  0.00    +0.002 A 
ATOM     33  C   UNL     1      12.277  -6.218  30.977  0.00  0.00    +0.000 A 
ENDBRANCH   1  25
ENDBRANCH   9   1
ENDBRANCH  20   9
TORSDOF 4
ENDMDL
MODEL 9
REMARK VINA RESULT:      -6.5     19.433     21.747
REMARK  Name = 11867216
REMARK  4 active torsions:
REMARK  status: ('A' for Active; 'I' for Inactive)
REMARK    1  A    between atoms: S_1  and  N_9
REMARK    2  A    between atoms: S_1  and  C_25
REMARK    3  A    between atoms: N_9  and  C_20
REMARK    4  A    between atoms: C_19  and  C_22
REMARK                            x       y       z     vdW  Elec       q    Type
REMARK                         _______ _______ _______ _____ _____    ______ ____
ROOT
ATOM      3  O   UNL     1      10.190 -10.708  32.083  0.00  0.00    -0.266 OA
ATOM      4  O   UNL     1       6.883 -10.936  36.065  0.00  0.00    -0.270 OA
ATOM      7  N   UNL     1       6.233  -9.147  34.705  0.00  0.00    -0.297 N 
ATOM      8  N   UNL     1       8.293  -9.351  32.301  0.00  0.00    -0.310 N 
ATOM     10  C   UNL     1       8.059  -7.560  34.117  0.00  0.00    +0.027 C 
ATOM     11  C   UNL     1       6.215  -7.945  32.531  0.00  0.00    +0.054 C 
ATOM     12  C   UNL     1       7.132  -6.874  33.121  0.00  0.00    +0.018 C 
ATOM     13  C   UNL     1       7.243  -8.233  35.236  0.00  0.00    +0.113 C 
ATOM     14  C   UNL     1       8.939  -8.564  33.362  0.00  0.00    +0.130 C 
ATOM     15  C   UNL     1       5.370  -8.578  33.656  0.00  0.00    +0.117 C 
ATOM     16  C   UNL     1       7.017  -9.022  31.827  0.00  0.00    +0.027 A 
ATOM     17  C   UNL     1       6.488  -9.681  30.778  0.00  0.00    +0.024 A 
ATOM     18  C   UNL     1       9.060 -10.383  31.721  0.00  0.00    +0.274 A 
ATOM     19  C   UNL     1       6.166 -10.454  35.189  0.00  0.00    +0.247 C 
ATOM     20  C   UNL     1       8.414 -11.089  30.587  0.00  0.00    +0.112 A 
ATOM     21  C   UNL     1       7.206 -10.750  30.137  0.00  0.00    +0.031 A 
ENDROOT
BRANCH  19  22
ATOM      2  F   UNL     1       2.364 -13.887  32.946  0.00  0.00    -0.205 F 
ATOM     22  C   UNL     1       5.169 -11.355  34.600  0.00  0.00    +0.037 A 
ATOM     23  C   UNL     1       5.519 -12.171  33.528  0.00  0.00    +0.016 A 
ATOM     24  C   UNL     1       3.876 -11.391  35.118  0.00  0.00    +0.016 A 
ATOM     26  C   UNL     1       4.570 -13.027  32.968  0.00  0.00    +0.039 A 
ATOM     27  C   UNL     1       2.928 -12.247  34.559  0.00  0.00    +0.039 A 
ATOM     28  C   UNL     1       3.274 -13.065  33.484  0.00  0.00    +0.123 A 
ENDBRANCH  19  22
BRANCH  20   9
ATOM      9  N   UNL     1       9.078 -12.147  29.941  0.00  0.00    -0.211 N 
ATOM     34  H   UNL     1       9.043 -12.072  28.914  0.00  0.00    +0.174 HD
BRANCH   9   1
ATOM      1  S   UNL     1       8.813 -13.705  30.543  0.00  0.00    +0.072 S 
ATOM      5  O   UNL     1       9.975 -14.534  30.283  0.00  0.00    -0.150 OA
ATOM      6  O   UNL     1       8.257 -13.624  31.881  0.00  0.00    -0.150 OA
BRANCH   1  25
ATOM     25  C   UNL     1       7.522 -14.259  29.468  0.00  0.00    +0.108 A 
ATOM     29  C   UNL     1       6.226 -14.326  29.948  0.00  0.00    +0.029 A 
ATOM     30  C   UNL     1       7.833 -14.615  28.167  0.00  0.00    +0.029 A 
ATOM     31  C   UNL     1       5.209 -14.763  29.101  0.00  0.00    +0.002 A 
ATOM     32  C   UNL     1       6.815 -15.051  27.320  0.00  0.00    +0.002 A 
ATOM     33  C   UNL     1       5.503 -15.126  27.786  0.00  0.00    +0.000 A 
ENDBRANCH   1  25
ENDBRANCH   9   1
ENDBRANCH  20   9
TORSDOF 4
ENDMDL
MODEL 10
REMARK VINA RESULT:      -6.5      3.453      8.045
REMARK  Name = 11867216
REMARK  4 active torsions:
REMARK  status: ('A' for Active; 'I' for Inactive)
REMARK    1  A    between atoms: S_1  and  N_9
REMARK    2  A    between atoms: S_1  and  C_25
REMARK    3  A    between atoms: N_9  and  C_20
REMARK    4  A    between atoms: C_19  and  C_22
REMARK                            x       y       z     vdW  Elec       q    Type
REMARK                         _______ _______ _______ _____ _____    ______ ____
ROOT
ATOM      3  O   UNL     1      -6.483 -13.559  15.282  0.00  0.00    -0.266 OA
ATOM      4  O   UNL     1     -11.328 -12.053  16.336  0.00  0.00    -0.270 OA
ATOM      7  N   UNL     1     -10.049 -11.731  18.268  0.00  0.00    -0.297 N 
ATOM      8  N   UNL     1      -7.146 -12.559  17.295  0.00  0.00    -0.310 N 
ATOM     10  C   UNL     1      -8.703 -13.703  18.975  0.00  0.00    +0.027 C 
ATOM     11  C   UNL     1      -7.872 -11.429  19.426  0.00  0.00    +0.054 C 
ATOM     12  C   UNL     1      -7.991 -12.837  20.008  0.00  0.00    +0.018 C 
ATOM     13  C   UNL     1     -10.102 -13.136  18.670  0.00  0.00    +0.113 C 
ATOM     14  C   UNL     1      -7.830 -13.789  17.717  0.00  0.00    +0.130 C 
ATOM     15  C   UNL     1      -9.281 -10.855  19.169  0.00  0.00    +0.117 C 
ATOM     16  C   UNL     1      -7.081 -11.438  18.133  0.00  0.00    +0.027 A 
ATOM     17  C   UNL     1      -6.354 -10.362  17.778  0.00  0.00    +0.024 A 
ATOM     18  C   UNL     1      -6.477 -12.600  16.053  0.00  0.00    +0.274 A 
ATOM     19  C   UNL     1     -10.685 -11.327  17.093  0.00  0.00    +0.247 C 
ATOM     20  C   UNL     1      -5.714 -11.376  15.706  0.00  0.00    +0.112 A 
ATOM     21  C   UNL     1      -5.648 -10.325  16.525  0.00  0.00    +0.031 A 
ENDROOT
BRANCH  19  22
ATOM      2  F   UNL     1     -10.251  -5.958  15.591  0.00  0.00    -0.205 F 
ATOM     22  C   UNL     1     -10.571  -9.919  16.699  0.00  0.00    +0.037 A 
ATOM     23  C   UNL     1     -11.520  -8.998  17.136  0.00  0.00    +0.016 A 
ATOM     24  C   UNL     1      -9.514  -9.508  15.890  0.00  0.00    +0.016 A 
ATOM     26  C   UNL     1     -11.412  -7.659  16.761  0.00  0.00    +0.039 A 
ATOM     27  C   UNL     1      -9.405  -8.169  15.516  0.00  0.00    +0.039 A 
ATOM     28  C   UNL     1     -10.355  -7.244  15.951  0.00  0.00    +0.123 A 
ENDBRANCH  19  22
BRANCH  20   9
ATOM      9  N   UNL     1      -5.019 -11.296  14.486  0.00  0.00    -0.211 N 
ATOM     34  H   UNL     1      -4.085 -10.873  14.585  0.00  0.00    +0.174 HD
BRANCH   9   1
ATOM      1  S   UNL     1      -5.892 -10.768  13.136  0.00  0.00    +0.072 S 
ATOM      5  O   UNL     1      -6.505 -11.905  12.474  0.00  0.00    -0.150 OA
ATOM      6  O   UNL     1      -6.693  -9.612  13.494  0.00  0.00    -0.150 OA
BRANCH   1  25
ATOM     25  C   UNL     1      -4.579 -10.199  12.097  0.00  0.00    +0.108 A 
ATOM     29  C   UNL     1      -4.878  -9.394  11.012  0.00  0.00    +0.029 A 
ATOM     30  C   UNL     1      -3.278 -10.572  12.388  0.00  0.00    +0.029 A 
ATOM     31  C   UNL     1      -3.843  -8.947  10.191  0.00  0.00    +0.002 A 
ATOM     32  C   UNL     1      -2.243 -10.123  11.567  0.00  0.00    +0.002 A 
ATOM     33  C   UNL     1      -2.525  -9.311  10.469  0.00  0.00    +0.000 A 
ENDBRANCH   1  25
ENDBRANCH   9   1
ENDBRANCH  20   9
TORSDOF 4
ENDMDL
