MODEL 1
REMARK VINA RESULT:      -6.5      0.000      0.000
REMARK  Name = 11882078
REMARK  14 active torsions:
REMARK  status: ('A' for Active; 'I' for Inactive)
REMARK    1  A    between atoms: S_1  and  C_35
REMARK    2  A    between atoms: S_1  and  C_38
REMARK    3  A    between atoms: N_7  and  C_12
REMARK    4  A    between atoms: N_8  and  C_22
REMARK    5  A    between atoms: N_9  and  C_27
REMARK    6  A    between atoms: C_11  and  C_16
REMARK    7  A    between atoms: C_15  and  C_17
REMARK    8  A    between atoms: C_17  and  C_18
REMARK    9  A    between atoms: C_18  and  C_19
REMARK   10  A    between atoms: C_18  and  C_20
REMARK   11  A    between atoms: C_18  and  C_21
REMARK   12  A    between atoms: C_22  and  C_24
REMARK   13  A    between atoms: C_22  and  C_25
REMARK   14  A    between atoms: C_24  and  C_26
REMARK                            x       y       z     vdW  Elec       q    Type
REMARK                         _______ _______ _______ _____ _____    ______ ____
ROOT
ATOM      2  O   UNL     1      11.186   3.531   2.547  0.00  0.00    -0.276 OA
ATOM      6  N   UNL     1      11.758   5.772   2.482  0.00  0.00    -0.288 N 
ATOM     11  C   UNL     1      12.106   5.896   3.893  0.00  0.00    +0.182 C 
ATOM     12  C   UNL     1      12.861   7.222   4.002  0.00  0.00    +0.105 C 
ATOM     13  C   UNL     1      12.293   8.050   2.846  0.00  0.00    +0.043 C 
ATOM     14  C   UNL     1      12.011   7.018   1.762  0.00  0.00    +0.110 C 
ATOM     15  C   UNL     1      11.392   4.564   1.909  0.00  0.00    +0.217 C 
ENDROOT
BRANCH  12   7
ATOM      4  O   UNL     1      14.931   9.092   4.649  0.00  0.00    -0.252 OA
ATOM      7  N   UNL     1      14.283   7.020   3.853  0.00  0.00    -0.294 N 
ATOM      9  N   UNL     1      16.523   7.517   3.942  0.00  0.00    -0.269 N 
ATOM     23  C   UNL     1      15.232   7.991   4.194  0.00  0.00    +0.304 C 
ATOM     39  H   UNL     1      14.614   6.111   3.546  0.00  0.00    +0.151 HD
ATOM     41  H   UNL     1      16.597   6.577   3.561  0.00  0.00    +0.156 HD
BRANCH   9  27
ATOM     27  C   UNL     1      17.749   8.188   4.151  0.00  0.00    +0.036 A 
ATOM     30  C   UNL     1      18.281   8.287   5.437  0.00  0.00    +0.038 A 
ATOM     31  C   UNL     1      18.427   8.754   3.071  0.00  0.00    +0.023 A 
ATOM     35  C   UNL     1      19.491   8.950   5.643  0.00  0.00    +0.009 A 
ATOM     36  C   UNL     1      19.636   9.417   3.276  0.00  0.00    +0.003 A 
ATOM     37  C   UNL     1      20.169   9.515   4.562  0.00  0.00    +0.015 A 
BRANCH  35   1
ATOM      1  S   UNL     1      20.173   9.076   7.285  0.00  0.00    -0.129 S 
ATOM     38  C   UNL     1      19.732  10.778   7.737  0.00  0.00    +0.090 C 
ENDBRANCH  35   1
ENDBRANCH   9  27
ENDBRANCH  12   7
BRANCH  11  16
ATOM      3  O   UNL     1       9.727   5.970   4.076  0.00  0.00    -0.274 OA
ATOM      8  N   UNL     1      11.006   5.960   6.021  0.00  0.00    -0.302 N 
ATOM     16  C   UNL     1      10.812   5.939   4.650  0.00  0.00    +0.236 C 
ATOM     40  H   UNL     1      11.950   5.877   6.385  0.00  0.00    +0.150 HD
BRANCH   8  22
ATOM     22  C   UNL     1       9.920   6.024   6.972  0.00  0.00    +0.163 C 
BRANCH  22  25
ATOM      5  O   UNL     1      10.460   5.302   9.229  0.00  0.00    -0.274 OA
ATOM     10  N   UNL     1      10.141   3.703   7.610  0.00  0.00    -0.328 N 
ATOM     25  C   UNL     1      10.220   5.004   8.062  0.00  0.00    +0.231 C 
ATOM     42  H   UNL     1      10.304   2.923   8.239  0.00  0.00    +0.145 HD
ATOM     43  H   UNL     1       9.916   3.472   6.648  0.00  0.00    +0.145 HD
ENDBRANCH  22  25
BRANCH  22  24
ATOM     24  C   UNL     1       9.762   7.423   7.579  0.00  0.00    +0.067 C 
BRANCH  24  26
ATOM     26  C   UNL     1       9.385   8.464   6.554  0.00  0.00    -0.045 A 
ATOM     28  C   UNL     1      10.295   9.462   6.206  0.00  0.00    +0.004 A 
ATOM     29  C   UNL     1       8.126   8.429   5.954  0.00  0.00    +0.004 A 
ATOM     32  C   UNL     1       9.946  10.425   5.258  0.00  0.00    +0.000 A 
ATOM     33  C   UNL     1       7.777   9.391   5.007  0.00  0.00    +0.000 A 
ATOM     34  C   UNL     1       8.687  10.389   4.659  0.00  0.00    +0.000 A 
ENDBRANCH  24  26
ENDBRANCH  22  24
ENDBRANCH   8  22
ENDBRANCH  11  16
BRANCH  15  17
ATOM     17  C   UNL     1      11.241   4.575   0.408  0.00  0.00    +0.102 C 
BRANCH  17  18
ATOM     18  C   UNL     1      12.496   4.068  -0.322  0.00  0.00    -0.029 C 
ATOM     19  C   UNL     1      13.123   5.261  -1.069  0.00  0.00    +0.011 C 
ATOM     20  C   UNL     1      12.139   2.979  -1.350  0.00  0.00    +0.011 C 
ATOM     21  C   UNL     1      13.531   3.513   0.671  0.00  0.00    +0.011 C 
ENDBRANCH  17  18
ENDBRANCH  15  17
TORSDOF 10
ENDMDL
MODEL 2
REMARK VINA RESULT:      -6.5     25.994     31.003
REMARK  Name = 11882078
REMARK  14 active torsions:
REMARK  status: ('A' for Active; 'I' for Inactive)
REMARK    1  A    between atoms: S_1  and  C_35
REMARK    2  A    between atoms: S_1  and  C_38
REMARK    3  A    between atoms: N_7  and  C_12
REMARK    4  A    between atoms: N_8  and  C_22
REMARK    5  A    between atoms: N_9  and  C_27
REMARK    6  A    between atoms: C_11  and  C_16
REMARK    7  A    between atoms: C_15  and  C_17
REMARK    8  A    between atoms: C_17  and  C_18
REMARK    9  A    between atoms: C_18  and  C_19
REMARK   10  A    between atoms: C_18  and  C_20
REMARK   11  A    between atoms: C_18  and  C_21
REMARK   12  A    between atoms: C_22  and  C_24
REMARK   13  A    between atoms: C_22  and  C_25
REMARK   14  A    between atoms: C_24  and  C_26
REMARK                            x       y       z     vdW  Elec       q    Type
REMARK                         _______ _______ _______ _____ _____    ______ ____
ROOT
ATOM      2  O   UNL     1      -6.223 -13.703  15.109  0.00  0.00    -0.276 OA
ATOM      6  N   UNL     1      -5.495 -12.787  17.105  0.00  0.00    -0.288 N 
ATOM     11  C   UNL     1      -6.274 -11.556  17.017  0.00  0.00    +0.182 C 
ATOM     12  C   UNL     1      -6.220 -10.950  18.420  0.00  0.00    +0.105 C 
ATOM     13  C   UNL     1      -4.896 -11.474  18.983  0.00  0.00    +0.043 C 
ATOM     14  C   UNL     1      -4.761 -12.861  18.366  0.00  0.00    +0.110 C 
ATOM     15  C   UNL     1      -5.595 -13.799  16.164  0.00  0.00    +0.217 C 
ENDROOT
BRANCH  12   7
ATOM      4  O   UNL     1      -8.937 -10.073  18.186  0.00  0.00    -0.252 OA
ATOM      7  N   UNL     1      -7.341 -11.392  19.216  0.00  0.00    -0.294 N 
ATOM      9  N   UNL     1      -9.514 -11.514  19.947  0.00  0.00    -0.269 N 
ATOM     23  C   UNL     1      -8.642 -10.909  19.037  0.00  0.00    +0.304 C 
ATOM     39  H   UNL     1      -7.191 -12.130  19.896  0.00  0.00    +0.151 HD
ATOM     41  H   UNL     1      -9.106 -12.188  20.589  0.00  0.00    +0.156 HD
BRANCH   9  27
ATOM     27  C   UNL     1     -10.904 -11.301  20.090  0.00  0.00    +0.036 A 
ATOM     30  C   UNL     1     -11.782 -12.385  20.076  0.00  0.00    +0.038 A 
ATOM     31  C   UNL     1     -11.399 -10.005  20.244  0.00  0.00    +0.023 A 
ATOM     35  C   UNL     1     -13.154 -12.174  20.216  0.00  0.00    +0.009 A 
ATOM     36  C   UNL     1     -12.770  -9.794  20.384  0.00  0.00    +0.003 A 
ATOM     37  C   UNL     1     -13.648 -10.878  20.370  0.00  0.00    +0.015 A 
BRANCH  35   1
ATOM      1  S   UNL     1     -14.276 -13.558  20.198  0.00  0.00    -0.129 S 
ATOM     38  C   UNL     1     -14.900 -13.548  21.904  0.00  0.00    +0.090 C 
ENDBRANCH  35   1
ENDBRANCH   9  27
ENDBRANCH  12   7
BRANCH  11  16
ATOM      3  O   UNL     1      -6.090  -9.645  15.597  0.00  0.00    -0.274 OA
ATOM      8  N   UNL     1      -4.355 -11.198  15.628  0.00  0.00    -0.302 N 
ATOM     16  C   UNL     1      -5.581 -10.682  16.015  0.00  0.00    +0.236 C 
ATOM     40  H   UNL     1      -4.011 -12.040  16.081  0.00  0.00    +0.150 HD
BRANCH   8  22
ATOM     22  C   UNL     1      -3.499 -10.558  14.656  0.00  0.00    +0.163 C 
BRANCH  22  25
ATOM      5  O   UNL     1      -1.169  -9.877  14.776  0.00  0.00    -0.274 OA
ATOM     10  N   UNL     1      -1.981 -11.306  16.382  0.00  0.00    -0.328 N 
ATOM     25  C   UNL     1      -2.093 -10.539  15.241  0.00  0.00    +0.231 C 
ATOM     42  H   UNL     1      -1.099 -11.369  16.881  0.00  0.00    +0.145 HD
ATOM     43  H   UNL     1      -2.761 -11.828  16.768  0.00  0.00    +0.145 HD
ENDBRANCH  22  25
BRANCH  22  24
ATOM     24  C   UNL     1      -3.507 -11.286  13.307  0.00  0.00    +0.067 C 
BRANCH  24  26
ATOM     26  C   UNL     1      -3.818 -10.369  12.150  0.00  0.00    -0.045 A 
ATOM     28  C   UNL     1      -5.084  -9.794  12.037  0.00  0.00    +0.004 A 
ATOM     29  C   UNL     1      -2.840 -10.096  11.194  0.00  0.00    +0.004 A 
ATOM     32  C   UNL     1      -5.371  -8.946  10.968  0.00  0.00    +0.000 A 
ATOM     33  C   UNL     1      -3.127  -9.247  10.125  0.00  0.00    +0.000 A 
ATOM     34  C   UNL     1      -4.393  -8.673  10.011  0.00  0.00    +0.000 A 
ENDBRANCH  24  26
ENDBRANCH  22  24
ENDBRANCH   8  22
ENDBRANCH  11  16
BRANCH  15  17
ATOM     17  C   UNL     1      -4.860 -15.074  16.499  0.00  0.00    +0.102 C 
BRANCH  17  18
ATOM     18  C   UNL     1      -4.021 -15.607  15.324  0.00  0.00    -0.029 C 
ATOM     19  C   UNL     1      -3.039 -16.655  15.882  0.00  0.00    +0.011 C 
ATOM     20  C   UNL     1      -3.211 -14.478  14.664  0.00  0.00    +0.011 C 
ATOM     21  C   UNL     1      -4.911 -16.283  14.267  0.00  0.00    +0.011 C 
ENDBRANCH  17  18
ENDBRANCH  15  17
TORSDOF 10
ENDMDL
MODEL 3
REMARK VINA RESULT:      -6.4     26.044     28.718
REMARK  Name = 11882078
REMARK  14 active torsions:
REMARK  status: ('A' for Active; 'I' for Inactive)
REMARK    1  A    between atoms: S_1  and  C_35
REMARK    2  A    between atoms: S_1  and  C_38
REMARK    3  A    between atoms: N_7  and  C_12
REMARK    4  A    between atoms: N_8  and  C_22
REMARK    5  A    between atoms: N_9  and  C_27
REMARK    6  A    between atoms: C_11  and  C_16
REMARK    7  A    between atoms: C_15  and  C_17
REMARK    8  A    between atoms: C_17  and  C_18
REMARK    9  A    between atoms: C_18  and  C_19
REMARK   10  A    between atoms: C_18  and  C_20
REMARK   11  A    between atoms: C_18  and  C_21
REMARK   12  A    between atoms: C_22  and  C_24
REMARK   13  A    between atoms: C_22  and  C_25
REMARK   14  A    between atoms: C_24  and  C_26
REMARK                            x       y       z     vdW  Elec       q    Type
REMARK                         _______ _______ _______ _____ _____    ______ ____
ROOT
ATOM      2  O   UNL     1      -4.753  -9.922  15.800  0.00  0.00    -0.276 OA
ATOM      6  N   UNL     1      -6.052 -11.006  14.222  0.00  0.00    -0.288 N 
ATOM     11  C   UNL     1      -7.099  -9.992  14.143  0.00  0.00    +0.182 C 
ATOM     12  C   UNL     1      -7.893 -10.338  12.883  0.00  0.00    +0.105 C 
ATOM     13  C   UNL     1      -7.698 -11.851  12.744  0.00  0.00    +0.043 C 
ATOM     14  C   UNL     1      -6.287 -12.086  13.267  0.00  0.00    +0.110 C 
ATOM     15  C   UNL     1      -4.918 -10.846  15.003  0.00  0.00    +0.217 C 
ENDROOT
BRANCH  12   7
ATOM      4  O   UNL     1      -9.316  -9.689  10.484  0.00  0.00    -0.252 OA
ATOM      7  N   UNL     1      -7.372  -9.634  11.735  0.00  0.00    -0.294 N 
ATOM      9  N   UNL     1      -7.372  -8.668   9.653  0.00  0.00    -0.269 N 
ATOM     23  C   UNL     1      -8.138  -9.357  10.597  0.00  0.00    +0.304 C 
ATOM     39  H   UNL     1      -6.426  -9.269  11.779  0.00  0.00    +0.151 HD
ATOM     41  H   UNL     1      -6.407  -8.471   9.904  0.00  0.00    +0.156 HD
BRANCH   9  27
ATOM     27  C   UNL     1      -7.775  -8.207   8.378  0.00  0.00    +0.036 A 
ATOM     30  C   UNL     1      -7.457  -8.944   7.236  0.00  0.00    +0.038 A 
ATOM     31  C   UNL     1      -8.489  -7.014   8.262  0.00  0.00    +0.023 A 
ATOM     35  C   UNL     1      -7.854  -8.488   5.979  0.00  0.00    +0.009 A 
ATOM     36  C   UNL     1      -8.886  -6.559   7.005  0.00  0.00    +0.003 A 
ATOM     37  C   UNL     1      -8.569  -7.296   5.863  0.00  0.00    +0.015 A 
BRANCH  35   1
ATOM      1  S   UNL     1      -7.450  -9.429   4.520  0.00  0.00    -0.129 S 
ATOM     38  C   UNL     1      -6.450 -10.776   5.216  0.00  0.00    +0.090 C 
ENDBRANCH  35   1
ENDBRANCH   9  27
ENDBRANCH  12   7
BRANCH  11  16
ATOM      3  O   UNL     1      -8.895 -10.911  15.420  0.00  0.00    -0.274 OA
ATOM      8  N   UNL     1      -7.509  -9.322  16.407  0.00  0.00    -0.302 N 
ATOM     16  C   UNL     1      -7.936 -10.145  15.379  0.00  0.00    +0.236 C 
ATOM     40  H   UNL     1      -6.669  -8.766  16.276  0.00  0.00    +0.150 HD
BRANCH   8  22
ATOM     22  C   UNL     1      -8.161  -9.263  17.695  0.00  0.00    +0.163 C 
BRANCH  22  25
ATOM      5  O   UNL     1      -9.774  -7.606  16.947  0.00  0.00    -0.274 OA
ATOM     10  N   UNL     1     -10.554  -9.569  17.851  0.00  0.00    -0.328 N 
ATOM     25  C   UNL     1      -9.556  -8.698  17.465  0.00  0.00    +0.231 C 
ATOM     42  H   UNL     1     -11.532  -9.321  17.739  0.00  0.00    +0.145 HD
ATOM     43  H   UNL     1     -10.358 -10.479  18.255  0.00  0.00    +0.145 HD
ENDBRANCH  22  25
BRANCH  22  24
ATOM     24  C   UNL     1      -8.246 -10.639  18.366  0.00  0.00    +0.067 C 
BRANCH  24  26
ATOM     26  C   UNL     1      -6.914 -11.347  18.415  0.00  0.00    -0.045 A 
ATOM     28  C   UNL     1      -5.837 -10.762  19.081  0.00  0.00    +0.004 A 
ATOM     29  C   UNL     1      -6.760 -12.586  17.794  0.00  0.00    +0.004 A 
ATOM     32  C   UNL     1      -4.606 -11.417  19.127  0.00  0.00    +0.000 A 
ATOM     33  C   UNL     1      -5.530 -13.242  17.839  0.00  0.00    +0.000 A 
ATOM     34  C   UNL     1      -4.452 -12.656  18.506  0.00  0.00    +0.000 A 
ENDBRANCH  24  26
ENDBRANCH  22  24
ENDBRANCH   8  22
ENDBRANCH  11  16
BRANCH  15  17
ATOM     17  C   UNL     1      -3.855 -11.902  14.831  0.00  0.00    +0.102 C 
BRANCH  17  18
ATOM     18  C   UNL     1      -2.584 -11.367  14.150  0.00  0.00    -0.029 C 
ATOM     19  C   UNL     1      -1.793 -12.573  13.608  0.00  0.00    +0.011 C 
ATOM     20  C   UNL     1      -1.695 -10.609  15.152  0.00  0.00    +0.011 C 
ATOM     21  C   UNL     1      -2.932 -10.440  12.973  0.00  0.00    +0.011 C 
ENDBRANCH  17  18
ENDBRANCH  15  17
TORSDOF 10
ENDMDL
MODEL 4
REMARK VINA RESULT:      -6.4     17.372     21.080
REMARK  Name = 11882078
REMARK  14 active torsions:
REMARK  status: ('A' for Active; 'I' for Inactive)
REMARK    1  A    between atoms: S_1  and  C_35
REMARK    2  A    between atoms: S_1  and  C_38
REMARK    3  A    between atoms: N_7  and  C_12
REMARK    4  A    between atoms: N_8  and  C_22
REMARK    5  A    between atoms: N_9  and  C_27
REMARK    6  A    between atoms: C_11  and  C_16
REMARK    7  A    between atoms: C_15  and  C_17
REMARK    8  A    between atoms: C_17  and  C_18
REMARK    9  A    between atoms: C_18  and  C_19
REMARK   10  A    between atoms: C_18  and  C_20
REMARK   11  A    between atoms: C_18  and  C_21
REMARK   12  A    between atoms: C_22  and  C_24
REMARK   13  A    between atoms: C_22  and  C_25
REMARK   14  A    between atoms: C_24  and  C_26
REMARK                            x       y       z     vdW  Elec       q    Type
REMARK                         _______ _______ _______ _____ _____    ______ ____
ROOT
ATOM      2  O   UNL     1      21.027   5.915  24.250  0.00  0.00    -0.276 OA
ATOM      6  N   UNL     1      19.944   7.440  22.887  0.00  0.00    -0.288 N 
ATOM     11  C   UNL     1      19.434   6.470  21.925  0.00  0.00    +0.182 C 
ATOM     12  C   UNL     1      18.376   7.227  21.120  0.00  0.00    +0.105 C 
ATOM     13  C   UNL     1      18.845   8.683  21.198  0.00  0.00    +0.043 C 
ATOM     14  C   UNL     1      19.476   8.789  22.580  0.00  0.00    +0.110 C 
ATOM     15  C   UNL     1      20.646   7.064  24.022  0.00  0.00    +0.217 C 
ENDROOT
BRANCH  12   7
ATOM      4  O   UNL     1      15.939   8.439  20.228  0.00  0.00    -0.252 OA
ATOM      7  N   UNL     1      17.067   7.066  21.708  0.00  0.00    -0.294 N 
ATOM      9  N   UNL     1      14.805   7.357  21.977  0.00  0.00    -0.269 N 
ATOM     23  C   UNL     1      15.923   7.697  21.208  0.00  0.00    +0.304 C 
ATOM     39  H   UNL     1      16.959   6.416  22.480  0.00  0.00    +0.151 HD
ATOM     41  H   UNL     1      14.965   6.729  22.759  0.00  0.00    +0.156 HD
BRANCH   9  27
ATOM     27  C   UNL     1      13.469   7.783  21.801  0.00  0.00    +0.036 A 
ATOM     30  C   UNL     1      13.129   9.120  22.006  0.00  0.00    +0.038 A 
ATOM     31  C   UNL     1      12.488   6.864  21.424  0.00  0.00    +0.023 A 
ATOM     35  C   UNL     1      11.810   9.539  21.833  0.00  0.00    +0.009 A 
ATOM     36  C   UNL     1      11.170   7.283  21.251  0.00  0.00    +0.003 A 
ATOM     37  C   UNL     1      10.830   8.621  21.455  0.00  0.00    +0.015 A 
BRANCH  35   1
ATOM      1  S   UNL     1      11.375  11.248  22.094  0.00  0.00    -0.129 S 
ATOM     38  C   UNL     1      10.783  11.220  23.810  0.00  0.00    +0.090 C 
ENDBRANCH  35   1
ENDBRANCH   9  27
ENDBRANCH  12   7
BRANCH  11  16
ATOM      3  O   UNL     1      20.543   5.097  20.317  0.00  0.00    -0.274 OA
ATOM      8  N   UNL     1      21.689   6.900  21.240  0.00  0.00    -0.302 N 
ATOM     16  C   UNL     1      20.595   6.070  21.064  0.00  0.00    +0.236 C 
ATOM     40  H   UNL     1      21.600   7.709  21.849  0.00  0.00    +0.150 HD
BRANCH   8  22
ATOM     22  C   UNL     1      22.942   6.716  20.545  0.00  0.00    +0.163 C 
BRANCH  22  25
ATOM      5  O   UNL     1      24.563   8.357  19.780  0.00  0.00    -0.274 OA
ATOM     10  N   UNL     1      22.364   8.993  19.978  0.00  0.00    -0.328 N 
ATOM     25  C   UNL     1      23.402   8.091  20.079  0.00  0.00    +0.231 C 
ATOM     42  H   UNL     1      22.531   9.944  19.664  0.00  0.00    +0.145 HD
ATOM     43  H   UNL     1      21.405   8.751  20.205  0.00  0.00    +0.145 HD
ENDBRANCH  22  25
BRANCH  22  24
ATOM     24  C   UNL     1      24.010   6.069  21.434  0.00  0.00    +0.067 C 
BRANCH  24  26
ATOM     26  C   UNL     1      24.037   4.564  21.312  0.00  0.00    -0.045 A 
ATOM     28  C   UNL     1      23.566   3.772  22.359  0.00  0.00    +0.004 A 
ATOM     29  C   UNL     1      24.534   3.967  20.154  0.00  0.00    +0.004 A 
ATOM     32  C   UNL     1      23.591   2.381  22.246  0.00  0.00    +0.000 A 
ATOM     33  C   UNL     1      24.558   2.578  20.041  0.00  0.00    +0.000 A 
ATOM     34  C   UNL     1      24.087   1.784  21.087  0.00  0.00    +0.000 A 
ENDBRANCH  24  26
ENDBRANCH  22  24
ENDBRANCH   8  22
ENDBRANCH  11  16
BRANCH  15  17
ATOM     17  C   UNL     1      20.944   8.172  25.001  0.00  0.00    +0.102 C 
BRANCH  17  18
ATOM     18  C   UNL     1      22.443   8.509  25.085  0.00  0.00    -0.029 C 
ATOM     19  C   UNL     1      22.612   9.667  26.088  0.00  0.00    +0.011 C 
ATOM     20  C   UNL     1      22.988   8.961  23.719  0.00  0.00    +0.011 C 
ATOM     21  C   UNL     1      23.256   7.303  25.586  0.00  0.00    +0.011 C 
ENDBRANCH  17  18
ENDBRANCH  15  17
TORSDOF 10
ENDMDL
MODEL 5
REMARK VINA RESULT:      -6.4     25.188     30.074
REMARK  Name = 11882078
REMARK  14 active torsions:
REMARK  status: ('A' for Active; 'I' for Inactive)
REMARK    1  A    between atoms: S_1  and  C_35
REMARK    2  A    between atoms: S_1  and  C_38
REMARK    3  A    between atoms: N_7  and  C_12
REMARK    4  A    between atoms: N_8  and  C_22
REMARK    5  A    between atoms: N_9  and  C_27
REMARK    6  A    between atoms: C_11  and  C_16
REMARK    7  A    between atoms: C_15  and  C_17
REMARK    8  A    between atoms: C_17  and  C_18
REMARK    9  A    between atoms: C_18  and  C_19
REMARK   10  A    between atoms: C_18  and  C_20
REMARK   11  A    between atoms: C_18  and  C_21
REMARK   12  A    between atoms: C_22  and  C_24
REMARK   13  A    between atoms: C_22  and  C_25
REMARK   14  A    between atoms: C_24  and  C_26
REMARK                            x       y       z     vdW  Elec       q    Type
REMARK                         _______ _______ _______ _____ _____    ______ ____
ROOT
ATOM      2  O   UNL     1      -5.724 -13.782  14.149  0.00  0.00    -0.276 OA
ATOM      6  N   UNL     1      -5.203 -12.764  16.161  0.00  0.00    -0.288 N 
ATOM     11  C   UNL     1      -5.909 -11.514  15.902  0.00  0.00    +0.182 C 
ATOM     12  C   UNL     1      -5.998 -10.819  17.261  0.00  0.00    +0.105 C 
ATOM     13  C   UNL     1      -4.777 -11.354  18.015  0.00  0.00    +0.043 C 
ATOM     14  C   UNL     1      -4.631 -12.782  17.504  0.00  0.00    +0.110 C 
ATOM     15  C   UNL     1      -5.233 -13.832  15.277  0.00  0.00    +0.217 C 
ENDROOT
BRANCH  12   7
ATOM      4  O   UNL     1      -8.420  -9.291  17.301  0.00  0.00    -0.252 OA
ATOM      7  N   UNL     1      -7.225 -11.165  17.939  0.00  0.00    -0.294 N 
ATOM      9  N   UNL     1      -9.397 -10.945  18.651  0.00  0.00    -0.269 N 
ATOM     23  C   UNL     1      -8.368 -10.358  17.908  0.00  0.00    +0.304 C 
ATOM     39  H   UNL     1      -7.284 -12.064  18.407  0.00  0.00    +0.151 HD
ATOM     41  H   UNL     1      -9.188 -11.835  19.095  0.00  0.00    +0.156 HD
BRANCH   9  27
ATOM     27  C   UNL     1     -10.704 -10.449  18.866  0.00  0.00    +0.036 A 
ATOM     30  C   UNL     1     -11.487 -10.053  17.781  0.00  0.00    +0.038 A 
ATOM     31  C   UNL     1     -11.209 -10.355  20.163  0.00  0.00    +0.023 A 
ATOM     35  C   UNL     1     -12.776  -9.563  17.994  0.00  0.00    +0.009 A 
ATOM     36  C   UNL     1     -12.497  -9.866  20.376  0.00  0.00    +0.003 A 
ATOM     37  C   UNL     1     -13.281  -9.470  19.291  0.00  0.00    +0.015 A 
BRANCH  35   1
ATOM      1  S   UNL     1     -13.779  -9.058  16.610  0.00  0.00    -0.129 S 
ATOM     38  C   UNL     1     -12.786  -7.708  15.910  0.00  0.00    +0.090 C 
ENDBRANCH  35   1
ENDBRANCH   9  27
ENDBRANCH  12   7
BRANCH  11  16
ATOM      3  O   UNL     1      -5.533  -9.852  14.230  0.00  0.00    -0.274 OA
ATOM      8  N   UNL     1      -3.739 -11.147  14.955  0.00  0.00    -0.302 N 
ATOM     16  C   UNL     1      -5.061 -10.734  14.942  0.00  0.00    +0.236 C 
ATOM     40  H   UNL     1      -3.451 -11.854  15.625  0.00  0.00    +0.150 HD
BRANCH   8  22
ATOM     22  C   UNL     1      -2.723 -10.571  14.105  0.00  0.00    +0.163 C 
BRANCH  22  25
ATOM      5  O   UNL     1      -0.814  -9.262  14.846  0.00  0.00    -0.274 OA
ATOM     10  N   UNL     1      -1.360 -11.165  16.011  0.00  0.00    -0.328 N 
ATOM     25  C   UNL     1      -1.527 -10.251  14.992  0.00  0.00    +0.231 C 
ATOM     42  H   UNL     1      -0.608 -11.061  16.685  0.00  0.00    +0.145 HD
ATOM     43  H   UNL     1      -1.973 -11.964  16.134  0.00  0.00    +0.145 HD
ENDBRANCH  22  25
BRANCH  22  24
ATOM     24  C   UNL     1      -2.309 -11.517  12.972  0.00  0.00    +0.067 C 
BRANCH  24  26
ATOM     26  C   UNL     1      -2.954 -11.164  11.653  0.00  0.00    -0.045 A 
ATOM     28  C   UNL     1      -2.910  -9.851  11.185  0.00  0.00    +0.004 A 
ATOM     29  C   UNL     1      -3.593 -12.151  10.903  0.00  0.00    +0.004 A 
ATOM     32  C   UNL     1      -3.506  -9.525   9.966  0.00  0.00    +0.000 A 
ATOM     33  C   UNL     1      -4.188 -11.826   9.684  0.00  0.00    +0.000 A 
ATOM     34  C   UNL     1      -4.145 -10.512   9.216  0.00  0.00    +0.000 A 
ENDBRANCH  24  26
ENDBRANCH  22  24
ENDBRANCH   8  22
ENDBRANCH  11  16
BRANCH  15  17
ATOM     17  C   UNL     1      -4.603 -15.108  15.777  0.00  0.00    +0.102 C 
BRANCH  17  18
ATOM     18  C   UNL     1      -3.511 -15.645  14.836  0.00  0.00    -0.029 C 
ATOM     19  C   UNL     1      -4.208 -16.328  13.644  0.00  0.00    +0.011 C 
ATOM     20  C   UNL     1      -2.625 -16.683  15.547  0.00  0.00    +0.011 C 
ATOM     21  C   UNL     1      -2.630 -14.504  14.299  0.00  0.00    +0.011 C 
ENDBRANCH  17  18
ENDBRANCH  15  17
TORSDOF 10
ENDMDL
MODEL 6
REMARK VINA RESULT:      -6.3     25.059     29.511
REMARK  Name = 11882078
REMARK  14 active torsions:
REMARK  status: ('A' for Active; 'I' for Inactive)
REMARK    1  A    between atoms: S_1  and  C_35
REMARK    2  A    between atoms: S_1  and  C_38
REMARK    3  A    between atoms: N_7  and  C_12
REMARK    4  A    between atoms: N_8  and  C_22
REMARK    5  A    between atoms: N_9  and  C_27
REMARK    6  A    between atoms: C_11  and  C_16
REMARK    7  A    between atoms: C_15  and  C_17
REMARK    8  A    between atoms: C_17  and  C_18
REMARK    9  A    between atoms: C_18  and  C_19
REMARK   10  A    between atoms: C_18  and  C_20
REMARK   11  A    between atoms: C_18  and  C_21
REMARK   12  A    between atoms: C_22  and  C_24
REMARK   13  A    between atoms: C_22  and  C_25
REMARK   14  A    between atoms: C_24  and  C_26
REMARK                            x       y       z     vdW  Elec       q    Type
REMARK                         _______ _______ _______ _____ _____    ______ ____
ROOT
ATOM      2  O   UNL     1      -4.186  -9.961  12.044  0.00  0.00    -0.276 OA
ATOM      6  N   UNL     1      -6.006 -11.382  12.192  0.00  0.00    -0.288 N 
ATOM     11  C   UNL     1      -6.331 -11.090  13.585  0.00  0.00    +0.182 C 
ATOM     12  C   UNL     1      -7.735 -11.659  13.793  0.00  0.00    +0.105 C 
ATOM     13  C   UNL     1      -7.812 -12.800  12.773  0.00  0.00    +0.043 C 
ATOM     14  C   UNL     1      -6.979 -12.297  11.601  0.00  0.00    +0.110 C 
ATOM     15  C   UNL     1      -4.990 -10.728  11.513  0.00  0.00    +0.217 C 
ENDROOT
BRANCH  12   7
ATOM      4  O   UNL     1      -9.057 -10.022  15.736  0.00  0.00    -0.252 OA
ATOM      7  N   UNL     1      -8.742 -10.657  13.534  0.00  0.00    -0.294 N 
ATOM      9  N   UNL     1     -10.274  -9.011  14.001  0.00  0.00    -0.269 N 
ATOM     23  C   UNL     1      -9.341  -9.898  14.546  0.00  0.00    +0.304 C 
ATOM     39  H   UNL     1      -8.982 -10.448  12.571  0.00  0.00    +0.151 HD
ATOM     41  H   UNL     1     -10.390  -9.037  12.991  0.00  0.00    +0.156 HD
BRANCH   9  27
ATOM     27  C   UNL     1     -11.086  -8.077  14.684  0.00  0.00    +0.036 A 
ATOM     30  C   UNL     1     -12.476  -8.169  14.602  0.00  0.00    +0.038 A 
ATOM     31  C   UNL     1     -10.497  -7.062  15.438  0.00  0.00    +0.023 A 
ATOM     35  C   UNL     1     -13.277  -7.246  15.276  0.00  0.00    +0.009 A 
ATOM     36  C   UNL     1     -11.297  -6.140  16.112  0.00  0.00    +0.003 A 
ATOM     37  C   UNL     1     -12.687  -6.232  16.031  0.00  0.00    +0.015 A 
BRANCH  35   1
ATOM      1  S   UNL     1     -15.052  -7.362  15.174  0.00  0.00    -0.129 S 
ATOM     38  C   UNL     1     -15.504  -7.640  16.911  0.00  0.00    +0.090 C 
ENDBRANCH  35   1
ENDBRANCH   9  27
ENDBRANCH  12   7
BRANCH  11  16
ATOM      3  O   UNL     1      -5.256 -13.040  14.446  0.00  0.00    -0.274 OA
ATOM      8  N   UNL     1      -4.515 -10.945  15.141  0.00  0.00    -0.302 N 
ATOM     16  C   UNL     1      -5.317 -11.814  14.420  0.00  0.00    +0.236 C 
ATOM     40  H   UNL     1      -4.622  -9.945  15.000  0.00  0.00    +0.150 HD
BRANCH   8  22
ATOM     22  C   UNL     1      -3.475 -11.391  16.040  0.00  0.00    +0.163 C 
BRANCH  22  25
ATOM      5  O   UNL     1      -2.038 -10.276  14.428  0.00  0.00    -0.274 OA
ATOM     10  N   UNL     1      -1.134 -10.934  16.435  0.00  0.00    -0.328 N 
ATOM     25  C   UNL     1      -2.162 -10.821  15.522  0.00  0.00    +0.231 C 
ATOM     42  H   UNL     1      -0.207 -10.580  16.222  0.00  0.00    +0.145 HD
ATOM     43  H   UNL     1      -1.259 -11.365  17.345  0.00  0.00    +0.145 HD
ENDBRANCH  22  25
BRANCH  22  24
ATOM     24  C   UNL     1      -3.722 -10.937  17.483  0.00  0.00    +0.067 C 
BRANCH  24  26
ATOM     26  C   UNL     1      -5.085 -11.336  17.994  0.00  0.00    -0.045 A 
ATOM     28  C   UNL     1      -5.955 -10.365  18.490  0.00  0.00    +0.004 A 
ATOM     29  C   UNL     1      -5.475 -12.675  17.971  0.00  0.00    +0.004 A 
ATOM     32  C   UNL     1      -7.214 -10.733  18.963  0.00  0.00    +0.000 A 
ATOM     33  C   UNL     1      -6.734 -13.043  18.443  0.00  0.00    +0.000 A 
ATOM     34  C   UNL     1      -7.604 -12.072  18.940  0.00  0.00    +0.000 A 
ENDBRANCH  24  26
ENDBRANCH  22  24
ENDBRANCH   8  22
ENDBRANCH  11  16
BRANCH  15  17
ATOM     17  C   UNL     1      -4.905 -11.017  10.035  0.00  0.00    +0.102 C 
BRANCH  17  18
ATOM     18  C   UNL     1      -5.150  -9.770   9.167  0.00  0.00    -0.029 C 
ATOM     19  C   UNL     1      -6.411  -9.063   9.699  0.00  0.00    +0.011 C 
ATOM     20  C   UNL     1      -5.388 -10.155   7.696  0.00  0.00    +0.011 C 
ATOM     21  C   UNL     1      -3.966  -8.792   9.254  0.00  0.00    +0.011 C 
ENDBRANCH  17  18
ENDBRANCH  15  17
TORSDOF 10
ENDMDL
MODEL 7
REMARK VINA RESULT:      -6.2     25.887     30.898
REMARK  Name = 11882078
REMARK  14 active torsions:
REMARK  status: ('A' for Active; 'I' for Inactive)
REMARK    1  A    between atoms: S_1  and  C_35
REMARK    2  A    between atoms: S_1  and  C_38
REMARK    3  A    between atoms: N_7  and  C_12
REMARK    4  A    between atoms: N_8  and  C_22
REMARK    5  A    between atoms: N_9  and  C_27
REMARK    6  A    between atoms: C_11  and  C_16
REMARK    7  A    between atoms: C_15  and  C_17
REMARK    8  A    between atoms: C_17  and  C_18
REMARK    9  A    between atoms: C_18  and  C_19
REMARK   10  A    between atoms: C_18  and  C_20
REMARK   11  A    between atoms: C_18  and  C_21
REMARK   12  A    between atoms: C_22  and  C_24
REMARK   13  A    between atoms: C_22  and  C_25
REMARK   14  A    between atoms: C_24  and  C_26
REMARK                            x       y       z     vdW  Elec       q    Type
REMARK                         _______ _______ _______ _____ _____    ______ ____
ROOT
ATOM      2  O   UNL     1      -8.059 -13.590  16.048  0.00  0.00    -0.276 OA
ATOM      6  N   UNL     1      -7.313 -12.325  17.837  0.00  0.00    -0.288 N 
ATOM     11  C   UNL     1      -6.880 -11.172  17.055  0.00  0.00    +0.182 C 
ATOM     12  C   UNL     1      -6.676 -10.053  18.077  0.00  0.00    +0.105 C 
ATOM     13  C   UNL     1      -6.332 -10.806  19.366  0.00  0.00    +0.043 C 
ATOM     14  C   UNL     1      -7.152 -12.087  19.269  0.00  0.00    +0.110 C 
ATOM     15  C   UNL     1      -7.940 -13.420  17.262  0.00  0.00    +0.217 C 
ENDROOT
BRANCH  12   7
ATOM      4  O   UNL     1      -8.445  -9.204  15.991  0.00  0.00    -0.252 OA
ATOM      7  N   UNL     1      -7.880  -9.270  18.232  0.00  0.00    -0.294 N 
ATOM      9  N   UNL     1      -9.781  -8.146  17.606  0.00  0.00    -0.269 N 
ATOM     23  C   UNL     1      -8.691  -8.896  17.155  0.00  0.00    +0.304 C 
ATOM     39  H   UNL     1      -8.186  -9.033  19.170  0.00  0.00    +0.151 HD
ATOM     41  H   UNL     1      -9.836  -7.978  18.607  0.00  0.00    +0.156 HD
BRANCH   9  27
ATOM     27  C   UNL     1     -10.826  -7.584  16.837  0.00  0.00    +0.036 A 
ATOM     30  C   UNL     1     -12.091  -8.173  16.842  0.00  0.00    +0.038 A 
ATOM     31  C   UNL     1     -10.591  -6.442  16.071  0.00  0.00    +0.023 A 
ATOM     35  C   UNL     1     -13.121  -7.619  16.081  0.00  0.00    +0.009 A 
ATOM     36  C   UNL     1     -11.620  -5.888  15.311  0.00  0.00    +0.003 A 
ATOM     37  C   UNL     1     -12.886  -6.476  15.316  0.00  0.00    +0.015 A 
BRANCH  35   1
ATOM      1  S   UNL     1     -14.738  -8.368  16.087  0.00  0.00    -0.129 S 
ATOM     38  C   UNL     1     -15.646  -7.296  14.938  0.00  0.00    +0.090 C 
ENDBRANCH  35   1
ENDBRANCH   9  27
ENDBRANCH  12   7
BRANCH  11  16
ATOM      3  O   UNL     1      -4.552 -11.705  17.049  0.00  0.00    -0.274 OA
ATOM      8  N   UNL     1      -5.712 -11.702  15.031  0.00  0.00    -0.302 N 
ATOM     16  C   UNL     1      -5.586 -11.560  16.402  0.00  0.00    +0.236 C 
ATOM     40  H   UNL     1      -6.632 -11.608  14.609  0.00  0.00    +0.150 HD
BRANCH   8  22
ATOM     22  C   UNL     1      -4.607 -12.048  14.167  0.00  0.00    +0.163 C 
BRANCH  22  25
ATOM      5  O   UNL     1      -5.065 -14.434  14.087  0.00  0.00    -0.274 OA
ATOM     10  N   UNL     1      -3.056 -13.729  14.950  0.00  0.00    -0.328 N 
ATOM     25  C   UNL     1      -4.303 -13.523  14.399  0.00  0.00    +0.231 C 
ATOM     42  H   UNL     1      -2.721 -14.667  15.143  0.00  0.00    +0.145 HD
ATOM     43  H   UNL     1      -2.427 -12.966  15.179  0.00  0.00    +0.145 HD
ENDBRANCH  22  25
BRANCH  22  24
ATOM     24  C   UNL     1      -4.925 -11.795  12.689  0.00  0.00    +0.067 C 
BRANCH  24  26
ATOM     26  C   UNL     1      -3.906 -10.907  12.017  0.00  0.00    -0.045 A 
ATOM     28  C   UNL     1      -4.276 -10.127  10.922  0.00  0.00    +0.004 A 
ATOM     29  C   UNL     1      -2.595 -10.867  12.491  0.00  0.00    +0.004 A 
ATOM     32  C   UNL     1      -3.334  -9.306  10.301  0.00  0.00    +0.000 A 
ATOM     33  C   UNL     1      -1.654 -10.046  11.871  0.00  0.00    +0.000 A 
ATOM     34  C   UNL     1      -2.023  -9.266  10.775  0.00  0.00    +0.000 A 
ENDBRANCH  24  26
ENDBRANCH  22  24
ENDBRANCH   8  22
ENDBRANCH  11  16
BRANCH  15  17
ATOM     17  C   UNL     1      -8.484 -14.441  18.231  0.00  0.00    +0.102 C 
BRANCH  17  18
ATOM     18  C   UNL     1     -10.015 -14.376  18.370  0.00  0.00    -0.029 C 
ATOM     19  C   UNL     1     -10.373 -14.727  19.827  0.00  0.00    +0.011 C 
ATOM     20  C   UNL     1     -10.701 -15.391  17.438  0.00  0.00    +0.011 C 
ATOM     21  C   UNL     1     -10.541 -12.964  18.063  0.00  0.00    +0.011 C 
ENDBRANCH  17  18
ENDBRANCH  15  17
TORSDOF 10
ENDMDL
MODEL 8
REMARK VINA RESULT:      -6.2     24.080     26.695
REMARK  Name = 11882078
REMARK  14 active torsions:
REMARK  status: ('A' for Active; 'I' for Inactive)
REMARK    1  A    between atoms: S_1  and  C_35
REMARK    2  A    between atoms: S_1  and  C_38
REMARK    3  A    between atoms: N_7  and  C_12
REMARK    4  A    between atoms: N_8  and  C_22
REMARK    5  A    between atoms: N_9  and  C_27
REMARK    6  A    between atoms: C_11  and  C_16
REMARK    7  A    between atoms: C_15  and  C_17
REMARK    8  A    between atoms: C_17  and  C_18
REMARK    9  A    between atoms: C_18  and  C_19
REMARK   10  A    between atoms: C_18  and  C_20
REMARK   11  A    between atoms: C_18  and  C_21
REMARK   12  A    between atoms: C_22  and  C_24
REMARK   13  A    between atoms: C_22  and  C_25
REMARK   14  A    between atoms: C_24  and  C_26
REMARK                            x       y       z     vdW  Elec       q    Type
REMARK                         _______ _______ _______ _____ _____    ______ ____
ROOT
ATOM      2  O   UNL     1      -2.752 -12.466  -0.146  0.00  0.00    -0.276 OA
ATOM      6  N   UNL     1      -3.763 -13.485   1.669  0.00  0.00    -0.288 N 
ATOM     11  C   UNL     1      -2.727 -13.155   2.643  0.00  0.00    +0.182 C 
ATOM     12  C   UNL     1      -3.363 -13.427   4.007  0.00  0.00    +0.105 C 
ATOM     13  C   UNL     1      -4.403 -14.510   3.706  0.00  0.00    +0.043 C 
ATOM     14  C   UNL     1      -4.887 -14.171   2.302  0.00  0.00    +0.110 C 
ATOM     15  C   UNL     1      -3.718 -13.042   0.356  0.00  0.00    +0.217 C 
ENDROOT
BRANCH  12   7
ATOM      4  O   UNL     1      -3.993 -12.893   6.749  0.00  0.00    -0.252 OA
ATOM      7  N   UNL     1      -3.986 -12.235   4.533  0.00  0.00    -0.294 N 
ATOM      9  N   UNL     1      -4.863 -10.810   6.105  0.00  0.00    -0.269 N 
ATOM     23  C   UNL     1      -4.261 -12.053   5.893  0.00  0.00    +0.304 C 
ATOM     39  H   UNL     1      -4.177 -11.467   3.897  0.00  0.00    +0.151 HD
ATOM     41  H   UNL     1      -5.017 -10.232   5.283  0.00  0.00    +0.156 HD
BRANCH   9  27
ATOM     27  C   UNL     1      -5.292 -10.251   7.331  0.00  0.00    +0.036 A 
ATOM     30  C   UNL     1      -6.513  -9.580   7.403  0.00  0.00    +0.038 A 
ATOM     31  C   UNL     1      -4.492 -10.369   8.468  0.00  0.00    +0.023 A 
ATOM     35  C   UNL     1      -6.935  -9.028   8.613  0.00  0.00    +0.009 A 
ATOM     36  C   UNL     1      -4.914  -9.818   9.677  0.00  0.00    +0.003 A 
ATOM     37  C   UNL     1      -6.136  -9.147   9.750  0.00  0.00    +0.015 A 
BRANCH  35   1
ATOM      1  S   UNL     1      -8.495  -8.171   8.707  0.00  0.00    -0.129 S 
ATOM     38  C   UNL     1      -8.105  -6.604   7.878  0.00  0.00    +0.090 C 
ENDBRANCH  35   1
ENDBRANCH   9  27
ENDBRANCH  12   7
BRANCH  11  16
ATOM      3  O   UNL     1      -1.453 -15.145   2.985  0.00  0.00    -0.274 OA
ATOM      8  N   UNL     1      -0.717 -13.592   1.415  0.00  0.00    -0.302 N 
ATOM     16  C   UNL     1      -1.581 -14.085   2.377  0.00  0.00    +0.236 C 
ATOM     40  H   UNL     1      -0.952 -12.724   0.941  0.00  0.00    +0.150 HD
BRANCH   8  22
ATOM     22  C   UNL     1       0.479 -14.286   0.994  0.00  0.00    +0.163 C 
BRANCH  22  25
ATOM      5  O   UNL     1       0.643 -15.520  -1.093  0.00  0.00    -0.274 OA
ATOM     10  N   UNL     1      -0.080 -13.340  -1.159  0.00  0.00    -0.328 N 
ATOM     25  C   UNL     1       0.382 -14.468  -0.515  0.00  0.00    +0.231 C 
ATOM     42  H   UNL     1      -0.205 -13.331  -2.167  0.00  0.00    +0.145 HD
ATOM     43  H   UNL     1      -0.315 -12.486  -0.664  0.00  0.00    +0.145 HD
ENDBRANCH  22  25
BRANCH  22  24
ATOM     24  C   UNL     1       1.754 -13.518   1.359  0.00  0.00    +0.067 C 
BRANCH  24  26
ATOM     26  C   UNL     1       3.004 -14.183   0.836  0.00  0.00    -0.045 A 
ATOM     28  C   UNL     1       3.721 -13.597  -0.207  0.00  0.00    +0.004 A 
ATOM     29  C   UNL     1       3.443 -15.383   1.396  0.00  0.00    +0.004 A 
ATOM     32  C   UNL     1       4.877 -14.211  -0.690  0.00  0.00    +0.000 A 
ATOM     33  C   UNL     1       4.598 -15.997   0.914  0.00  0.00    +0.000 A 
ATOM     34  C   UNL     1       5.315 -15.411  -0.130  0.00  0.00    +0.000 A 
ENDBRANCH  24  26
ENDBRANCH  22  24
ENDBRANCH   8  22
ENDBRANCH  11  16
BRANCH  15  17
ATOM     17  C   UNL     1      -4.952 -13.318  -0.466  0.00  0.00    +0.102 C 
BRANCH  17  18
ATOM     18  C   UNL     1      -4.735 -14.420  -1.518  0.00  0.00    -0.029 C 
ATOM     19  C   UNL     1      -6.066 -15.176  -1.693  0.00  0.00    +0.011 C 
ATOM     20  C   UNL     1      -3.659 -15.421  -1.060  0.00  0.00    +0.011 C 
ATOM     21  C   UNL     1      -4.330 -13.821  -2.876  0.00  0.00    +0.011 C 
ENDBRANCH  17  18
ENDBRANCH  15  17
TORSDOF 10
ENDMDL
MODEL 9
REMARK VINA RESULT:      -6.1     25.327     27.696
REMARK  Name = 11882078
REMARK  14 active torsions:
REMARK  status: ('A' for Active; 'I' for Inactive)
REMARK    1  A    between atoms: S_1  and  C_35
REMARK    2  A    between atoms: S_1  and  C_38
REMARK    3  A    between atoms: N_7  and  C_12
REMARK    4  A    between atoms: N_8  and  C_22
REMARK    5  A    between atoms: N_9  and  C_27
REMARK    6  A    between atoms: C_11  and  C_16
REMARK    7  A    between atoms: C_15  and  C_17
REMARK    8  A    between atoms: C_17  and  C_18
REMARK    9  A    between atoms: C_18  and  C_19
REMARK   10  A    between atoms: C_18  and  C_20
REMARK   11  A    between atoms: C_18  and  C_21
REMARK   12  A    between atoms: C_22  and  C_24
REMARK   13  A    between atoms: C_22  and  C_25
REMARK   14  A    between atoms: C_24  and  C_26
REMARK                            x       y       z     vdW  Elec       q    Type
REMARK                         _______ _______ _______ _____ _____    ______ ____
ROOT
ATOM      2  O   UNL     1      -7.628 -11.454   8.354  0.00  0.00    -0.276 OA
ATOM      6  N   UNL     1      -5.578 -10.743   9.159  0.00  0.00    -0.288 N 
ATOM     11  C   UNL     1      -6.102  -9.915  10.240  0.00  0.00    +0.182 C 
ATOM     12  C   UNL     1      -4.898  -9.626  11.138  0.00  0.00    +0.105 C 
ATOM     13  C   UNL     1      -3.710  -9.702  10.175  0.00  0.00    +0.043 C 
ATOM     14  C   UNL     1      -4.118 -10.778   9.177  0.00  0.00    +0.110 C 
ATOM     15  C   UNL     1      -6.398 -11.508   8.344  0.00  0.00    +0.217 C 
ENDROOT
BRANCH  12   7
ATOM      4  O   UNL     1      -5.858  -9.380  13.825  0.00  0.00    -0.252 OA
ATOM      7  N   UNL     1      -4.788 -10.612  12.187  0.00  0.00    -0.294 N 
ATOM      9  N   UNL     1      -5.034 -11.532  14.276  0.00  0.00    -0.269 N 
ATOM     23  C   UNL     1      -5.286 -10.411  13.479  0.00  0.00    +0.304 C 
ATOM     39  H   UNL     1      -4.387 -11.516  11.961  0.00  0.00    +0.151 HD
ATOM     41  H   UNL     1      -4.545 -12.305  13.833  0.00  0.00    +0.156 HD
BRANCH   9  27
ATOM     27  C   UNL     1      -5.377 -11.725  15.634  0.00  0.00    +0.036 A 
ATOM     30  C   UNL     1      -6.631 -12.233  15.972  0.00  0.00    +0.038 A 
ATOM     31  C   UNL     1      -4.460 -11.406  16.636  0.00  0.00    +0.023 A 
ATOM     35  C   UNL     1      -6.969 -12.423  17.313  0.00  0.00    +0.009 A 
ATOM     36  C   UNL     1      -4.797 -11.596  17.976  0.00  0.00    +0.003 A 
ATOM     37  C   UNL     1      -6.051 -12.105  18.315  0.00  0.00    +0.015 A 
BRANCH  35   1
ATOM      1  S   UNL     1      -8.570 -13.073  17.746  0.00  0.00    -0.129 S 
ATOM     38  C   UNL     1      -8.733 -12.532  19.472  0.00  0.00    +0.090 C 
ENDBRANCH  35   1
ENDBRANCH   9  27
ENDBRANCH  12   7
BRANCH  11  16
ATOM      3  O   UNL     1      -5.900  -7.696   9.382  0.00  0.00    -0.274 OA
ATOM      8  N   UNL     1      -7.982  -8.737   9.335  0.00  0.00    -0.302 N 
ATOM     16  C   UNL     1      -6.625  -8.662   9.603  0.00  0.00    +0.236 C 
ATOM     40  H   UNL     1      -8.471  -9.609   9.513  0.00  0.00    +0.150 HD
BRANCH   8  22
ATOM     22  C   UNL     1      -8.731  -7.652   8.743  0.00  0.00    +0.163 C 
BRANCH  22  25
ATOM      5  O   UNL     1      -9.322  -8.569   6.571  0.00  0.00    -0.274 OA
ATOM     10  N   UNL     1      -7.688  -6.957   6.676  0.00  0.00    -0.328 N 
ATOM     25  C   UNL     1      -8.623  -7.806   7.232  0.00  0.00    +0.231 C 
ATOM     42  H   UNL     1      -7.526  -6.947   5.674  0.00  0.00    +0.145 HD
ATOM     43  H   UNL     1      -7.135  -6.314   7.233  0.00  0.00    +0.145 HD
ENDBRANCH  22  25
BRANCH  22  24
ATOM     24  C   UNL     1     -10.201  -7.660   9.176  0.00  0.00    +0.067 C 
BRANCH  24  26
ATOM     26  C   UNL     1     -10.732  -6.276   9.464  0.00  0.00    -0.045 A 
ATOM     28  C   UNL     1     -10.165  -5.167   8.836  0.00  0.00    +0.004 A 
ATOM     29  C   UNL     1     -11.789  -6.106  10.358  0.00  0.00    +0.004 A 
ATOM     32  C   UNL     1     -10.655  -3.889   9.102  0.00  0.00    +0.000 A 
ATOM     33  C   UNL     1     -12.279  -4.829  10.624  0.00  0.00    +0.000 A 
ATOM     34  C   UNL     1     -11.712  -3.719   9.996  0.00  0.00    +0.000 A 
ENDBRANCH  24  26
ENDBRANCH  22  24
ENDBRANCH   8  22
ENDBRANCH  11  16
BRANCH  15  17
ATOM     17  C   UNL     1      -5.685 -12.442   7.397  0.00  0.00    +0.102 C 
BRANCH  17  18
ATOM     18  C   UNL     1      -5.611 -11.895   5.961  0.00  0.00    -0.029 C 
ATOM     19  C   UNL     1      -4.170 -12.094   5.453  0.00  0.00    +0.011 C 
ATOM     20  C   UNL     1      -5.942 -10.393   5.921  0.00  0.00    +0.011 C 
ATOM     21  C   UNL     1      -6.569 -12.654   5.027  0.00  0.00    +0.011 C 
ENDBRANCH  17  18
ENDBRANCH  15  17
TORSDOF 10
ENDMDL
MODEL 10
REMARK VINA RESULT:      -6.1     25.440     29.926
REMARK  Name = 11882078
REMARK  14 active torsions:
REMARK  status: ('A' for Active; 'I' for Inactive)
REMARK    1  A    between atoms: S_1  and  C_35
REMARK    2  A    between atoms: S_1  and  C_38
REMARK    3  A    between atoms: N_7  and  C_12
REMARK    4  A    between atoms: N_8  and  C_22
REMARK    5  A    between atoms: N_9  and  C_27
REMARK    6  A    between atoms: C_11  and  C_16
REMARK    7  A    between atoms: C_15  and  C_17
REMARK    8  A    between atoms: C_17  and  C_18
REMARK    9  A    between atoms: C_18  and  C_19
REMARK   10  A    between atoms: C_18  and  C_20
REMARK   11  A    between atoms: C_18  and  C_21
REMARK   12  A    between atoms: C_22  and  C_24
REMARK   13  A    between atoms: C_22  and  C_25
REMARK   14  A    between atoms: C_24  and  C_26
REMARK                            x       y       z     vdW  Elec       q    Type
REMARK                         _______ _______ _______ _____ _____    ______ ____
ROOT
ATOM      2  O   UNL     1     -11.626 -10.610  15.772  0.00  0.00    -0.276 OA
ATOM      6  N   UNL     1      -9.578  -9.760  16.435  0.00  0.00    -0.288 N 
ATOM     11  C   UNL     1      -8.756 -10.745  15.740  0.00  0.00    +0.182 C 
ATOM     12  C   UNL     1      -7.343 -10.160  15.748  0.00  0.00    +0.105 C 
ATOM     13  C   UNL     1      -7.329  -9.281  17.002  0.00  0.00    +0.043 C 
ATOM     14  C   UNL     1      -8.753  -8.747  17.088  0.00  0.00    +0.110 C 
ATOM     15  C   UNL     1     -10.960  -9.737  16.330  0.00  0.00    +0.217 C 
ENDROOT
BRANCH  12   7
ATOM      4  O   UNL     1      -6.100 -11.067  13.332  0.00  0.00    -0.252 OA
ATOM      7  N   UNL     1      -7.100  -9.380  14.557  0.00  0.00    -0.294 N 
ATOM      9  N   UNL     1      -6.382  -8.920  12.426  0.00  0.00    -0.269 N 
ATOM     23  C   UNL     1      -6.483  -9.903  13.415  0.00  0.00    +0.304 C 
ATOM     39  H   UNL     1      -7.448  -8.427  14.523  0.00  0.00    +0.151 HD
ATOM     41  H   UNL     1      -6.749  -8.001  12.657  0.00  0.00    +0.156 HD
BRANCH   9  27
ATOM     27  C   UNL     1      -5.825  -9.045  11.132  0.00  0.00    +0.036 A 
ATOM     30  C   UNL     1      -6.656  -9.047  10.011  0.00  0.00    +0.038 A 
ATOM     31  C   UNL     1      -4.444  -9.169  10.977  0.00  0.00    +0.023 A 
ATOM     35  C   UNL     1      -6.105  -9.171   8.735  0.00  0.00    +0.009 A 
ATOM     36  C   UNL     1      -3.894  -9.293   9.702  0.00  0.00    +0.003 A 
ATOM     37  C   UNL     1      -4.724  -9.294   8.581  0.00  0.00    +0.015 A 
BRANCH  35   1
ATOM      1  S   UNL     1      -7.165  -9.172   7.303  0.00  0.00    -0.129 S 
ATOM     38  C   UNL     1      -8.071  -7.613   7.513  0.00  0.00    +0.090 C 
ENDBRANCH  35   1
ENDBRANCH   9  27
ENDBRANCH  12   7
BRANCH  11  16
ATOM      3  O   UNL     1      -9.557 -12.107  17.530  0.00  0.00    -0.274 OA
ATOM      8  N   UNL     1      -7.990 -12.993  16.055  0.00  0.00    -0.302 N 
ATOM     16  C   UNL     1      -8.831 -12.009  16.544  0.00  0.00    +0.236 C 
ATOM     40  H   UNL     1      -7.472 -12.817  15.198  0.00  0.00    +0.150 HD
BRANCH   8  22
ATOM     22  C   UNL     1      -7.859 -14.297  16.664  0.00  0.00    +0.163 C 
BRANCH  22  25
ATOM      5  O   UNL     1      -9.294 -15.142  14.894  0.00  0.00    -0.274 OA
ATOM     10  N   UNL     1      -7.539 -16.445  15.603  0.00  0.00    -0.328 N 
ATOM     25  C   UNL     1      -8.334 -15.319  15.640  0.00  0.00    +0.231 C 
ATOM     42  H   UNL     1      -7.737 -17.200  14.954  0.00  0.00    +0.145 HD
ATOM     43  H   UNL     1      -6.734 -16.566  16.209  0.00  0.00    +0.145 HD
ENDBRANCH  22  25
BRANCH  22  24
ATOM     24  C   UNL     1      -6.417 -14.597  17.089  0.00  0.00    +0.067 C 
BRANCH  24  26
ATOM     26  C   UNL     1      -5.576 -13.350  17.220  0.00  0.00    -0.045 A 
ATOM     28  C   UNL     1      -4.807 -12.912  16.142  0.00  0.00    +0.004 A 
ATOM     29  C   UNL     1      -5.568 -12.637  18.419  0.00  0.00    +0.004 A 
ATOM     32  C   UNL     1      -4.030 -11.760  16.264  0.00  0.00    +0.000 A 
ATOM     33  C   UNL     1      -4.792 -11.486  18.540  0.00  0.00    +0.000 A 
ATOM     34  C   UNL     1      -4.022 -11.047  17.462  0.00  0.00    +0.000 A 
ENDBRANCH  24  26
ENDBRANCH  22  24
ENDBRANCH   8  22
ENDBRANCH  11  16
BRANCH  15  17
ATOM     17  C   UNL     1     -11.641  -8.549  16.963  0.00  0.00    +0.102 C 
BRANCH  17  18
ATOM     18  C   UNL     1     -12.006  -7.456  15.945  0.00  0.00    -0.029 C 
ATOM     19  C   UNL     1     -11.251  -6.172  16.339  0.00  0.00    +0.011 C 
ATOM     20  C   UNL     1     -13.517  -7.162  15.964  0.00  0.00    +0.011 C 
ATOM     21  C   UNL     1     -11.582  -7.857  14.522  0.00  0.00    +0.011 C 
ENDBRANCH  17  18
ENDBRANCH  15  17
TORSDOF 10
ENDMDL
