MODEL 1
REMARK VINA RESULT:      -7.3      0.000      0.000
REMARK  Name = 26745395
REMARK  5 active torsions:
REMARK  status: ('A' for Active; 'I' for Inactive)
REMARK    1  A    between atoms: N_4  and  C_19
REMARK    2  A    between atoms: C_7  and  C_14
REMARK    3  A    between atoms: C_12  and  C_13
REMARK    4  A    between atoms: C_14  and  C_20
REMARK    5  A    between atoms: C_19  and  C_21
REMARK                            x       y       z     vdW  Elec       q    Type
REMARK                         _______ _______ _______ _____ _____    ______ ____
ROOT
ATOM      4  N   UNL     1      10.037   7.339   4.929  0.00  0.00    -0.281 NA
ATOM      5  N   UNL     1       7.670   8.891   2.476  0.00  0.00    -0.347 N 
ATOM      6  N   UNL     1       8.969  10.699   2.682  0.00  0.00    -0.240 NA
ATOM     12  C   UNL     1      11.181   8.202   4.515  0.00  0.00    +0.150 C 
ATOM     15  C   UNL     1      10.755   9.656   4.153  0.00  0.00    +0.085 C 
ATOM     16  C   UNL     1       9.023   7.202   3.845  0.00  0.00    +0.140 C 
ATOM     17  C   UNL     1       9.509   9.643   3.359  0.00  0.00    +0.065 A 
ATOM     18  C   UNL     1       8.726   8.523   3.252  0.00  0.00    +0.053 A 
ATOM     22  C   UNL     1       7.861  10.213   2.157  0.00  0.00    +0.197 A 
ATOM     33  H   UNL     1       6.896   8.308   2.184  0.00  0.00    +0.167 HD
ENDROOT
BRANCH  12  13
ATOM      2  O   UNL     1      11.763   8.780   6.730  0.00  0.00    -0.274 OA
ATOM      3  N   UNL     1      13.446   7.858   5.420  0.00  0.00    -0.300 N 
ATOM      7  C   UNL     1      16.262   8.078   4.758  0.00  0.00    -0.004 C 
ATOM      8  C   UNL     1      15.175   8.039   3.673  0.00  0.00    +0.023 C 
ATOM      9  C   UNL     1      15.688   8.652   6.063  0.00  0.00    +0.023 C 
ATOM     10  C   UNL     1      13.933   7.294   4.156  0.00  0.00    +0.108 C 
ATOM     11  C   UNL     1      14.437   7.893   6.498  0.00  0.00    +0.108 C 
ATOM     13  C   UNL     1      12.147   8.308   5.657  0.00  0.00    +0.233 C 
BRANCH   7  14
ATOM     14  C   UNL     1      17.468   8.889   4.292  0.00  0.00    +0.038 C 
BRANCH  14  20
ATOM     20  C   UNL     1      18.738   8.424   4.951  0.00  0.00    -0.047 A 
ATOM     23  C   UNL     1      19.034   8.825   6.254  0.00  0.00    +0.003 A 
ATOM     24  C   UNL     1      19.618   7.591   4.261  0.00  0.00    +0.003 A 
ATOM     27  C   UNL     1      20.211   8.394   6.866  0.00  0.00    +0.000 A 
ATOM     28  C   UNL     1      20.795   7.161   4.873  0.00  0.00    +0.000 A 
ATOM     29  C   UNL     1      21.092   7.562   6.176  0.00  0.00    +0.000 A 
ENDBRANCH  14  20
ENDBRANCH   7  14
ENDBRANCH  12  13
BRANCH   4  19
ATOM     19  C   UNL     1      10.468   5.997   5.338  0.00  0.00    +0.120 C 
BRANCH  19  21
ATOM      1 CL   UNL     1       8.470   4.584  10.834  0.00  0.00    -0.084 Cl
ATOM     21  C   UNL     1       9.968   5.643   6.714  0.00  0.00    -0.033 A 
ATOM     25  C   UNL     1       9.390   6.624   7.519  0.00  0.00    +0.006 A 
ATOM     26  C   UNL     1      10.083   4.334   7.183  0.00  0.00    +0.006 A 
ATOM     30  C   UNL     1       8.927   6.297   8.793  0.00  0.00    +0.020 A 
ATOM     31  C   UNL     1       9.620   4.007   8.457  0.00  0.00    +0.020 A 
ATOM     32  C   UNL     1       9.042   4.988   9.262  0.00  0.00    +0.041 A 
ENDBRANCH  19  21
ENDBRANCH   4  19
TORSDOF 5
ENDMDL
MODEL 2
REMARK VINA RESULT:      -7.1      3.039      5.047
REMARK  Name = 26745395
REMARK  5 active torsions:
REMARK  status: ('A' for Active; 'I' for Inactive)
REMARK    1  A    between atoms: N_4  and  C_19
REMARK    2  A    between atoms: C_7  and  C_14
REMARK    3  A    between atoms: C_12  and  C_13
REMARK    4  A    between atoms: C_14  and  C_20
REMARK    5  A    between atoms: C_19  and  C_21
REMARK                            x       y       z     vdW  Elec       q    Type
REMARK                         _______ _______ _______ _____ _____    ______ ____
ROOT
ATOM      4  N   UNL     1      11.378   6.610   4.972  0.00  0.00    -0.281 NA
ATOM      5  N   UNL     1      10.080   4.011   7.337  0.00  0.00    -0.347 N 
ATOM      6  N   UNL     1      10.339   5.596   8.893  0.00  0.00    -0.240 NA
ATOM     12  C   UNL     1      10.881   7.747   5.799  0.00  0.00    +0.150 C 
ATOM     15  C   UNL     1      10.992   7.487   7.332  0.00  0.00    +0.085 C 
ATOM     16  C   UNL     1      10.606   5.359   5.224  0.00  0.00    +0.140 C 
ATOM     17  C   UNL     1      10.584   6.103   7.649  0.00  0.00    +0.065 A 
ATOM     18  C   UNL     1      10.437   5.147   6.677  0.00  0.00    +0.053 A 
ATOM     22  C   UNL     1      10.035   4.331   8.671  0.00  0.00    +0.197 A 
ATOM     33  H   UNL     1       9.882   3.106   6.929  0.00  0.00    +0.167 HD
ENDROOT
BRANCH  12  13
ATOM      2  O   UNL     1      11.172   9.957   5.020  0.00  0.00    -0.274 OA
ATOM      3  N   UNL     1      13.070   8.873   5.809  0.00  0.00    -0.300 N 
ATOM      7  C   UNL     1      15.894   8.453   5.289  0.00  0.00    -0.004 C 
ATOM      8  C   UNL     1      14.930   7.281   5.525  0.00  0.00    +0.023 C 
ATOM      9  C   UNL     1      15.133   9.657   4.711  0.00  0.00    +0.023 C 
ATOM     10  C   UNL     1      13.741   7.702   6.385  0.00  0.00    +0.108 C 
ATOM     11  C   UNL     1      13.941  10.030   5.588  0.00  0.00    +0.108 C 
ATOM     13  C   UNL     1      11.712   8.959   5.507  0.00  0.00    +0.233 C 
BRANCH   7  14
ATOM     14  C   UNL     1      17.038   8.040   4.367  0.00  0.00    +0.038 C 
BRANCH  14  20
ATOM     20  C   UNL     1      18.367   8.106   5.068  0.00  0.00    -0.047 A 
ATOM     23  C   UNL     1      18.459   8.682   6.335  0.00  0.00    +0.003 A 
ATOM     24  C   UNL     1      19.507   7.591   4.452  0.00  0.00    +0.003 A 
ATOM     27  C   UNL     1      19.691   8.744   6.986  0.00  0.00    +0.000 A 
ATOM     28  C   UNL     1      20.740   7.653   5.103  0.00  0.00    +0.000 A 
ATOM     29  C   UNL     1      20.831   8.228   6.370  0.00  0.00    +0.000 A 
ENDBRANCH  14  20
ENDBRANCH   7  14
ENDBRANCH  12  13
BRANCH   4  19
ATOM     19  C   UNL     1      11.334   6.903   3.534  0.00  0.00    +0.120 C 
BRANCH  19  21
ATOM      1 CL   UNL     1      15.632   3.962   0.522  0.00  0.00    -0.084 Cl
ATOM     21  C   UNL     1      12.410   6.167   2.780  0.00  0.00    -0.033 A 
ATOM     25  C   UNL     1      12.181   4.866   2.331  0.00  0.00    +0.006 A 
ATOM     26  C   UNL     1      13.635   6.785   2.531  0.00  0.00    +0.006 A 
ATOM     30  C   UNL     1      13.178   4.184   1.632  0.00  0.00    +0.020 A 
ATOM     31  C   UNL     1      14.632   6.103   1.833  0.00  0.00    +0.020 A 
ATOM     32  C   UNL     1      14.403   4.803   1.384  0.00  0.00    +0.041 A 
ENDBRANCH  19  21
ENDBRANCH   4  19
TORSDOF 5
ENDMDL
MODEL 3
REMARK VINA RESULT:      -7.0      4.407      7.653
REMARK  Name = 26745395
REMARK  5 active torsions:
REMARK  status: ('A' for Active; 'I' for Inactive)
REMARK    1  A    between atoms: N_4  and  C_19
REMARK    2  A    between atoms: C_7  and  C_14
REMARK    3  A    between atoms: C_12  and  C_13
REMARK    4  A    between atoms: C_14  and  C_20
REMARK    5  A    between atoms: C_19  and  C_21
REMARK                            x       y       z     vdW  Elec       q    Type
REMARK                         _______ _______ _______ _____ _____    ______ ____
ROOT
ATOM      4  N   UNL     1       9.991   7.962   6.527  0.00  0.00    -0.281 NA
ATOM      5  N   UNL     1       8.561   5.857   9.275  0.00  0.00    -0.347 N 
ATOM      6  N   UNL     1      10.413   4.631   9.018  0.00  0.00    -0.240 NA
ATOM     12  C   UNL     1      11.401   7.607   6.861  0.00  0.00    +0.150 C 
ATOM     15  C   UNL     1      11.569   6.130   7.329  0.00  0.00    +0.085 C 
ATOM     16  C   UNL     1       9.086   7.808   7.703  0.00  0.00    +0.140 C 
ATOM     17  C   UNL     1      10.472   5.754   8.244  0.00  0.00    +0.065 A 
ATOM     18  C   UNL     1       9.343   6.520   8.380  0.00  0.00    +0.053 A 
ATOM     22  C   UNL     1       9.248   4.723   9.632  0.00  0.00    +0.197 A 
ATOM     33  H   UNL     1       7.652   6.141   9.619  0.00  0.00    +0.167 HD
ENDROOT
BRANCH  12  13
ATOM      2  O   UNL     1      13.125   8.633   5.616  0.00  0.00    -0.274 OA
ATOM      3  N   UNL     1      11.969   6.911   4.568  0.00  0.00    -0.300 N 
ATOM      7  C   UNL     1      10.804   6.093   2.040  0.00  0.00    -0.004 C 
ATOM      8  C   UNL     1      10.008   6.046   3.352  0.00  0.00    +0.023 C 
ATOM      9  C   UNL     1      11.893   7.175   2.119  0.00  0.00    +0.023 C 
ATOM     10  C   UNL     1      10.930   5.875   4.557  0.00  0.00    +0.108 C 
ATOM     11  C   UNL     1      12.777   6.980   3.349  0.00  0.00    +0.108 C 
ATOM     13  C   UNL     1      12.245   7.768   5.633  0.00  0.00    +0.233 C 
BRANCH   7  14
ATOM     14  C   UNL     1       9.880   6.338   0.850  0.00  0.00    +0.038 C 
BRANCH  14  20
ATOM     20  C   UNL     1      10.196   5.419  -0.297  0.00  0.00    -0.047 A 
ATOM     23  C   UNL     1       9.541   5.577  -1.518  0.00  0.00    +0.003 A 
ATOM     24  C   UNL     1      11.146   4.409  -0.140  0.00  0.00    +0.003 A 
ATOM     27  C   UNL     1       9.834   4.724  -2.583  0.00  0.00    +0.000 A 
ATOM     28  C   UNL     1      11.438   3.556  -1.205  0.00  0.00    +0.000 A 
ATOM     29  C   UNL     1      10.783   3.714  -2.426  0.00  0.00    +0.000 A 
ENDBRANCH  14  20
ENDBRANCH   7  14
ENDBRANCH  12  13
BRANCH   4  19
ATOM     19  C   UNL     1       9.865   9.333   6.018  0.00  0.00    +0.120 C 
BRANCH  19  21
ATOM      1 CL   UNL     1       7.485   9.456   0.494  0.00  0.00    -0.084 Cl
ATOM     21  C   UNL     1       9.269   9.364   4.635  0.00  0.00    -0.033 A 
ATOM     25  C   UNL     1      10.002   9.891   3.572  0.00  0.00    +0.006 A 
ATOM     26  C   UNL     1       7.985   8.865   4.418  0.00  0.00    +0.006 A 
ATOM     30  C   UNL     1       9.450   9.920   2.291  0.00  0.00    +0.020 A 
ATOM     31  C   UNL     1       7.433   8.893   3.137  0.00  0.00    +0.020 A 
ATOM     32  C   UNL     1       8.166   9.421   2.074  0.00  0.00    +0.041 A 
ENDBRANCH  19  21
ENDBRANCH   4  19
TORSDOF 5
ENDMDL
MODEL 4
REMARK VINA RESULT:      -6.9     25.807     27.790
REMARK  Name = 26745395
REMARK  5 active torsions:
REMARK  status: ('A' for Active; 'I' for Inactive)
REMARK    1  A    between atoms: N_4  and  C_19
REMARK    2  A    between atoms: C_7  and  C_14
REMARK    3  A    between atoms: C_12  and  C_13
REMARK    4  A    between atoms: C_14  and  C_20
REMARK    5  A    between atoms: C_19  and  C_21
REMARK                            x       y       z     vdW  Elec       q    Type
REMARK                         _______ _______ _______ _____ _____    ______ ____
ROOT
ATOM      4  N   UNL     1      -3.314 -12.009  13.973  0.00  0.00    -0.281 NA
ATOM      5  N   UNL     1      -0.812 -14.713  13.294  0.00  0.00    -0.347 N 
ATOM      6  N   UNL     1      -2.258 -15.369  11.720  0.00  0.00    -0.240 NA
ATOM     12  C   UNL     1      -3.839 -12.014  12.578  0.00  0.00    +0.150 C 
ATOM     15  C   UNL     1      -3.888 -13.437  11.944  0.00  0.00    +0.085 C 
ATOM     16  C   UNL     1      -1.917 -12.528  14.044  0.00  0.00    +0.140 C 
ATOM     17  C   UNL     1      -2.662 -14.190  12.279  0.00  0.00    +0.065 A 
ATOM     18  C   UNL     1      -1.793 -13.771  13.253  0.00  0.00    +0.053 A 
ATOM     22  C   UNL     1      -1.137 -15.657  12.351  0.00  0.00    +0.197 A 
ATOM     33  H   UNL     1       0.001 -14.720  13.896  0.00  0.00    +0.167 HD
ENDROOT
BRANCH  12  13
ATOM      2  O   UNL     1      -6.100 -12.088  13.254  0.00  0.00    -0.274 OA
ATOM      3  N   UNL     1      -5.500 -10.361  11.820  0.00  0.00    -0.300 N 
ATOM      7  C   UNL     1      -6.375  -8.853   9.502  0.00  0.00    -0.004 C 
ATOM      8  C   UNL     1      -4.981  -9.494   9.572  0.00  0.00    +0.023 C 
ATOM      9  C   UNL     1      -7.363  -9.634  10.381  0.00  0.00    +0.023 C 
ATOM     10  C   UNL     1      -4.507  -9.639  11.016  0.00  0.00    +0.108 C 
ATOM     11  C   UNL     1      -6.841  -9.774  11.809  0.00  0.00    +0.108 C 
ATOM     13  C   UNL     1      -5.246 -11.498  12.587  0.00  0.00    +0.233 C 
BRANCH   7  14
ATOM     14  C   UNL     1      -6.870  -8.782   8.059  0.00  0.00    +0.038 C 
BRANCH  14  20
ATOM     20  C   UNL     1      -8.056  -7.868   7.924  0.00  0.00    -0.047 A 
ATOM     23  C   UNL     1      -9.257  -8.356   7.409  0.00  0.00    +0.003 A 
ATOM     24  C   UNL     1      -7.957  -6.532   8.314  0.00  0.00    +0.003 A 
ATOM     27  C   UNL     1     -10.359  -7.510   7.283  0.00  0.00    +0.000 A 
ATOM     28  C   UNL     1      -9.058  -5.686   8.188  0.00  0.00    +0.000 A 
ATOM     29  C   UNL     1     -10.259  -6.174   7.673  0.00  0.00    +0.000 A 
ENDBRANCH  14  20
ENDBRANCH   7  14
ENDBRANCH  12  13
BRANCH   4  19
ATOM     19  C   UNL     1      -3.345 -10.672  14.579  0.00  0.00    +0.120 C 
BRANCH  19  21
ATOM      1 CL   UNL     1      -6.367 -10.645  19.780  0.00  0.00    -0.084 Cl
ATOM     21  C   UNL     1      -4.102 -10.665  15.881  0.00  0.00    -0.033 A 
ATOM     25  C   UNL     1      -3.555 -11.279  17.008  0.00  0.00    +0.006 A 
ATOM     26  C   UNL     1      -5.348 -10.044  15.960  0.00  0.00    +0.006 A 
ATOM     30  C   UNL     1      -4.256 -11.273  18.214  0.00  0.00    +0.020 A 
ATOM     31  C   UNL     1      -6.049 -10.038  17.166  0.00  0.00    +0.020 A 
ATOM     32  C   UNL     1      -5.503 -10.653  18.293  0.00  0.00    +0.041 A 
ENDBRANCH  19  21
ENDBRANCH   4  19
TORSDOF 5
ENDMDL
MODEL 5
REMARK VINA RESULT:      -6.8     25.516     29.364
REMARK  Name = 26745395
REMARK  5 active torsions:
REMARK  status: ('A' for Active; 'I' for Inactive)
REMARK    1  A    between atoms: N_4  and  C_19
REMARK    2  A    between atoms: C_7  and  C_14
REMARK    3  A    between atoms: C_12  and  C_13
REMARK    4  A    between atoms: C_14  and  C_20
REMARK    5  A    between atoms: C_19  and  C_21
REMARK                            x       y       z     vdW  Elec       q    Type
REMARK                         _______ _______ _______ _____ _____    ______ ____
ROOT
ATOM      4  N   UNL     1      -9.698 -10.011  17.190  0.00  0.00    -0.281 NA
ATOM      5  N   UNL     1     -10.766  -6.433  16.897  0.00  0.00    -0.347 N 
ATOM      6  N   UNL     1     -11.141  -6.937  14.751  0.00  0.00    -0.240 NA
ATOM     12  C   UNL     1     -10.573 -10.463  16.070  0.00  0.00    +0.150 C 
ATOM     15  C   UNL     1     -10.671  -9.426  14.910  0.00  0.00    +0.085 C 
ATOM     16  C   UNL     1     -10.201  -8.755  17.817  0.00  0.00    +0.140 C 
ATOM     17  C   UNL     1     -10.807  -8.059  15.454  0.00  0.00    +0.065 A 
ATOM     18  C   UNL     1     -10.566  -7.774  16.773  0.00  0.00    +0.053 A 
ATOM     22  C   UNL     1     -11.111  -5.972  15.650  0.00  0.00    +0.197 A 
ATOM     33  H   UNL     1     -10.683  -5.880  17.740  0.00  0.00    +0.167 HD
ENDROOT
BRANCH  12  13
ATOM      2  O   UNL     1     -10.673 -12.748  15.484  0.00  0.00    -0.274 OA
ATOM      3  N   UNL     1      -8.709 -11.624  14.956  0.00  0.00    -0.300 N 
ATOM      7  C   UNL     1      -5.819 -11.876  14.935  0.00  0.00    -0.004 C 
ATOM      8  C   UNL     1      -6.523 -10.673  15.581  0.00  0.00    +0.023 C 
ATOM      9  C   UNL     1      -6.740 -13.106  14.959  0.00  0.00    +0.023 C 
ATOM     10  C   UNL     1      -7.882 -10.412  14.937  0.00  0.00    +0.108 C 
ATOM     11  C   UNL     1      -8.094 -12.795  14.326  0.00  0.00    +0.108 C 
ATOM     13  C   UNL     1      -9.998 -11.715  15.479  0.00  0.00    +0.233 C 
BRANCH   7  14
ATOM     14  C   UNL     1      -4.496 -12.174  15.635  0.00  0.00    +0.038 C 
BRANCH  14  20
ATOM     20  C   UNL     1      -3.370 -11.352  15.069  0.00  0.00    -0.047 A 
ATOM     23  C   UNL     1      -3.308 -11.108  13.697  0.00  0.00    +0.003 A 
ATOM     24  C   UNL     1      -2.390 -10.833  15.915  0.00  0.00    +0.003 A 
ATOM     27  C   UNL     1      -2.265 -10.347  13.170  0.00  0.00    +0.000 A 
ATOM     28  C   UNL     1      -1.347 -10.072  15.388  0.00  0.00    +0.000 A 
ATOM     29  C   UNL     1      -1.284  -9.828  14.016  0.00  0.00    +0.000 A 
ENDBRANCH  14  20
ENDBRANCH   7  14
ENDBRANCH  12  13
BRANCH   4  19
ATOM     19  C   UNL     1      -9.559 -11.031  18.237  0.00  0.00    +0.120 C 
BRANCH  19  21
ATOM      1 CL   UNL     1      -3.786 -12.176  19.486  0.00  0.00    -0.084 Cl
ATOM     21  C   UNL     1      -8.113 -11.318  18.550  0.00  0.00    -0.033 A 
ATOM     25  C   UNL     1      -7.278 -10.290  18.985  0.00  0.00    +0.006 A 
ATOM     26  C   UNL     1      -7.611 -12.611  18.403  0.00  0.00    +0.006 A 
ATOM     30  C   UNL     1      -5.939 -10.555  19.275  0.00  0.00    +0.020 A 
ATOM     31  C   UNL     1      -6.273 -12.876  18.693  0.00  0.00    +0.020 A 
ATOM     32  C   UNL     1      -5.437 -11.848  19.129  0.00  0.00    +0.041 A 
ENDBRANCH  19  21
ENDBRANCH   4  19
TORSDOF 5
ENDMDL
MODEL 6
REMARK VINA RESULT:      -6.8      4.564      9.656
REMARK  Name = 26745395
REMARK  5 active torsions:
REMARK  status: ('A' for Active; 'I' for Inactive)
REMARK    1  A    between atoms: N_4  and  C_19
REMARK    2  A    between atoms: C_7  and  C_14
REMARK    3  A    between atoms: C_12  and  C_13
REMARK    4  A    between atoms: C_14  and  C_20
REMARK    5  A    between atoms: C_19  and  C_21
REMARK                            x       y       z     vdW  Elec       q    Type
REMARK                         _______ _______ _______ _____ _____    ______ ____
ROOT
ATOM      4  N   UNL     1      10.405   5.861   4.821  0.00  0.00    -0.281 NA
ATOM      5  N   UNL     1       9.851   3.773   7.881  0.00  0.00    -0.347 N 
ATOM      6  N   UNL     1       9.714   5.736   8.942  0.00  0.00    -0.240 NA
ATOM     12  C   UNL     1       9.644   7.024   5.361  0.00  0.00    +0.150 C 
ATOM     15  C   UNL     1       9.838   7.228   6.894  0.00  0.00    +0.085 C 
ATOM     16  C   UNL     1       9.984   4.578   5.453  0.00  0.00    +0.140 C 
ATOM     17  C   UNL     1       9.803   5.927   7.593  0.00  0.00    +0.065 A 
ATOM     18  C   UNL     1       9.894   4.736   6.920  0.00  0.00    +0.053 A 
ATOM     22  C   UNL     1       9.742   4.424   9.084  0.00  0.00    +0.197 A 
ATOM     33  H   UNL     1       9.886   2.771   7.741  0.00  0.00    +0.167 HD
ENDROOT
BRANCH  12  13
ATOM      2  O   UNL     1      11.336   8.541   4.719  0.00  0.00    -0.274 OA
ATOM      3  N   UNL     1       9.166   9.073   4.082  0.00  0.00    -0.300 N 
ATOM      7  C   UNL     1       7.283  11.268   3.843  0.00  0.00    -0.004 C 
ATOM      8  C   UNL     1       6.921   9.966   4.573  0.00  0.00    +0.023 C 
ATOM      9  C   UNL     1       8.801  11.503   3.900  0.00  0.00    +0.023 C 
ATOM     10  C   UNL     1       7.727   8.785   4.037  0.00  0.00    +0.108 C 
ATOM     11  C   UNL     1       9.568  10.291   3.376  0.00  0.00    +0.108 C 
ATOM     13  C   UNL     1      10.131   8.275   4.695  0.00  0.00    +0.233 C 
BRANCH   7  14
ATOM     14  C   UNL     1       6.527  12.454   4.437  0.00  0.00    +0.038 C 
BRANCH  14  20
ATOM     20  C   UNL     1       5.057  12.383   4.131  0.00  0.00    -0.047 A 
ATOM     23  C   UNL     1       4.627  12.116   2.831  0.00  0.00    +0.003 A 
ATOM     24  C   UNL     1       4.122  12.585   5.147  0.00  0.00    +0.003 A 
ATOM     27  C   UNL     1       3.263  12.051   2.546  0.00  0.00    +0.000 A 
ATOM     28  C   UNL     1       2.758  12.520   4.861  0.00  0.00    +0.000 A 
ATOM     29  C   UNL     1       2.328  12.252   3.561  0.00  0.00    +0.000 A 
ENDBRANCH  14  20
ENDBRANCH   7  14
ENDBRANCH  12  13
BRANCH   4  19
ATOM     19  C   UNL     1      10.269   5.730   3.365  0.00  0.00    +0.120 C 
BRANCH  19  21
ATOM      1 CL   UNL     1      15.335   3.719   0.818  0.00  0.00    -0.084 Cl
ATOM     21  C   UNL     1      11.538   5.227   2.727  0.00  0.00    -0.033 A 
ATOM     25  C   UNL     1      11.629   3.899   2.311  0.00  0.00    +0.006 A 
ATOM     26  C   UNL     1      12.620   6.089   2.553  0.00  0.00    +0.006 A 
ATOM     30  C   UNL     1      12.803   3.432   1.721  0.00  0.00    +0.020 A 
ATOM     31  C   UNL     1      13.795   5.622   1.963  0.00  0.00    +0.020 A 
ATOM     32  C   UNL     1      13.886   4.294   1.547  0.00  0.00    +0.041 A 
ENDBRANCH  19  21
ENDBRANCH   4  19
TORSDOF 5
ENDMDL
MODEL 7
REMARK VINA RESULT:      -6.8     28.689     31.810
REMARK  Name = 26745395
REMARK  5 active torsions:
REMARK  status: ('A' for Active; 'I' for Inactive)
REMARK    1  A    between atoms: N_4  and  C_19
REMARK    2  A    between atoms: C_7  and  C_14
REMARK    3  A    between atoms: C_12  and  C_13
REMARK    4  A    between atoms: C_14  and  C_20
REMARK    5  A    between atoms: C_19  and  C_21
REMARK                            x       y       z     vdW  Elec       q    Type
REMARK                         _______ _______ _______ _____ _____    ______ ____
ROOT
ATOM      4  N   UNL     1      -9.944 -11.205  18.641  0.00  0.00    -0.281 NA
ATOM      5  N   UNL     1     -12.198 -12.644  21.264  0.00  0.00    -0.347 N 
ATOM      6  N   UNL     1     -13.241 -10.669  21.155  0.00  0.00    -0.240 NA
ATOM     12  C   UNL     1     -10.993 -10.290  18.107  0.00  0.00    +0.150 C 
ATOM     15  C   UNL     1     -11.921  -9.706  19.214  0.00  0.00    +0.085 C 
ATOM     16  C   UNL     1     -10.536 -12.386  19.333  0.00  0.00    +0.140 C 
ATOM     17  C   UNL     1     -12.278 -10.754  20.191  0.00  0.00    +0.065 A 
ATOM     18  C   UNL     1     -11.619 -11.956  20.242  0.00  0.00    +0.053 A 
ATOM     22  C   UNL     1     -13.170 -11.827  21.785  0.00  0.00    +0.197 A 
ATOM     33  H   UNL     1     -11.965 -13.577  21.579  0.00  0.00    +0.167 HD
ENDROOT
BRANCH  12  13
ATOM      2  O   UNL     1      -9.453  -8.500  18.053  0.00  0.00    -0.274 OA
ATOM      3  N   UNL     1     -10.753  -8.811  16.153  0.00  0.00    -0.300 N 
ATOM      7  C   UNL     1     -12.263  -7.405  14.112  0.00  0.00    -0.004 C 
ATOM      8  C   UNL     1     -12.869  -8.568  14.913  0.00  0.00    +0.023 C 
ATOM      9  C   UNL     1     -11.168  -6.709  14.936  0.00  0.00    +0.023 C 
ATOM     10  C   UNL     1     -11.789  -9.530  15.402  0.00  0.00    +0.108 C 
ATOM     11  C   UNL     1     -10.123  -7.708  15.423  0.00  0.00    +0.108 C 
ATOM     13  C   UNL     1     -10.327  -9.122  17.443  0.00  0.00    +0.233 C 
BRANCH   7  14
ATOM     14  C   UNL     1     -13.343  -6.411  13.692  0.00  0.00    +0.038 C 
BRANCH  14  20
ATOM     20  C   UNL     1     -12.853  -5.481  12.617  0.00  0.00    -0.047 A 
ATOM     23  C   UNL     1     -12.734  -4.116  12.876  0.00  0.00    +0.003 A 
ATOM     24  C   UNL     1     -12.516  -5.984  11.360  0.00  0.00    +0.003 A 
ATOM     27  C   UNL     1     -12.280  -3.253  11.879  0.00  0.00    +0.000 A 
ATOM     28  C   UNL     1     -12.061  -5.121  10.363  0.00  0.00    +0.000 A 
ATOM     29  C   UNL     1     -11.943  -3.755  10.622  0.00  0.00    +0.000 A 
ENDBRANCH  14  20
ENDBRANCH   7  14
ENDBRANCH  12  13
BRANCH   4  19
ATOM     19  C   UNL     1      -9.035 -11.686  17.593  0.00  0.00    +0.120 C 
BRANCH  19  21
ATOM      1 CL   UNL     1      -3.378 -12.157  19.585  0.00  0.00    -0.084 Cl
ATOM     21  C   UNL     1      -7.619 -11.804  18.092  0.00  0.00    -0.033 A 
ATOM     25  C   UNL     1      -7.119 -10.869  18.998  0.00  0.00    +0.006 A 
ATOM     26  C   UNL     1      -6.808 -12.848  17.648  0.00  0.00    +0.006 A 
ATOM     30  C   UNL     1      -5.807 -10.978  19.460  0.00  0.00    +0.020 A 
ATOM     31  C   UNL     1      -5.496 -12.957  18.110  0.00  0.00    +0.020 A 
ATOM     32  C   UNL     1      -4.996 -12.022  19.016  0.00  0.00    +0.041 A 
ENDBRANCH  19  21
ENDBRANCH   4  19
TORSDOF 5
ENDMDL
MODEL 8
REMARK VINA RESULT:      -6.8      3.305      9.568
REMARK  Name = 26745395
REMARK  5 active torsions:
REMARK  status: ('A' for Active; 'I' for Inactive)
REMARK    1  A    between atoms: N_4  and  C_19
REMARK    2  A    between atoms: C_7  and  C_14
REMARK    3  A    between atoms: C_12  and  C_13
REMARK    4  A    between atoms: C_14  and  C_20
REMARK    5  A    between atoms: C_19  and  C_21
REMARK                            x       y       z     vdW  Elec       q    Type
REMARK                         _______ _______ _______ _____ _____    ______ ____
ROOT
ATOM      4  N   UNL     1      11.071   7.458   6.538  0.00  0.00    -0.281 NA
ATOM      5  N   UNL     1      10.533   4.290   8.462  0.00  0.00    -0.347 N 
ATOM      6  N   UNL     1       8.818   5.386   9.386  0.00  0.00    -0.240 NA
ATOM     12  C   UNL     1       9.635   7.855   6.605  0.00  0.00    +0.150 C 
ATOM     15  C   UNL     1       8.956   7.479   7.957  0.00  0.00    +0.085 C 
ATOM     16  C   UNL     1      11.249   5.985   6.681  0.00  0.00    +0.140 C 
ATOM     17  C   UNL     1       9.375   6.128   8.384  0.00  0.00    +0.065 A 
ATOM     18  C   UNL     1      10.434   5.478   7.805  0.00  0.00    +0.053 A 
ATOM     22  C   UNL     1       9.537   4.281   9.407  0.00  0.00    +0.197 A 
ATOM     33  H   UNL     1      11.204   3.552   8.289  0.00  0.00    +0.167 HD
ENDROOT
BRANCH  12  13
ATOM      2  O   UNL     1      10.012  10.061   7.357  0.00  0.00    -0.274 OA
ATOM      3  N   UNL     1       8.892   9.828   5.334  0.00  0.00    -0.300 N 
ATOM      7  C   UNL     1       6.692  10.876   3.760  0.00  0.00    -0.004 C 
ATOM      8  C   UNL     1       6.852   9.372   4.028  0.00  0.00    +0.023 C 
ATOM      9  C   UNL     1       7.337  11.689   4.893  0.00  0.00    +0.023 C 
ATOM     10  C   UNL     1       8.314   9.003   4.268  0.00  0.00    +0.108 C 
ATOM     11  C   UNL     1       8.790  11.273   5.114  0.00  0.00    +0.108 C 
ATOM     13  C   UNL     1       9.535   9.344   6.473  0.00  0.00    +0.233 C 
BRANCH   7  14
ATOM     14  C   UNL     1       5.220  11.246   3.597  0.00  0.00    +0.038 C 
BRANCH  14  20
ATOM     20  C   UNL     1       4.659  10.731   2.300  0.00  0.00    -0.047 A 
ATOM     23  C   UNL     1       3.302  10.884   2.017  0.00  0.00    +0.003 A 
ATOM     24  C   UNL     1       5.496  10.100   1.379  0.00  0.00    +0.003 A 
ATOM     27  C   UNL     1       2.780  10.407   0.815  0.00  0.00    +0.000 A 
ATOM     28  C   UNL     1       4.975   9.623   0.176  0.00  0.00    +0.000 A 
ATOM     29  C   UNL     1       3.618   9.776  -0.106  0.00  0.00    +0.000 A 
ENDBRANCH  14  20
ENDBRANCH   7  14
ENDBRANCH  12  13
BRANCH   4  19
ATOM     19  C   UNL     1      11.711   7.887   5.289  0.00  0.00    +0.120 C 
BRANCH  19  21
ATOM      1 CL   UNL     1      17.565   9.040   6.059  0.00  0.00    -0.084 Cl
ATOM     21  C   UNL     1      13.177   8.175   5.481  0.00  0.00    -0.033 A 
ATOM     25  C   UNL     1      13.577   9.238   6.291  0.00  0.00    +0.006 A 
ATOM     26  C   UNL     1      14.133   7.380   4.851  0.00  0.00    +0.006 A 
ATOM     30  C   UNL     1      14.935   9.506   6.469  0.00  0.00    +0.020 A 
ATOM     31  C   UNL     1      15.491   7.648   5.029  0.00  0.00    +0.020 A 
ATOM     32  C   UNL     1      15.891   8.711   5.839  0.00  0.00    +0.041 A 
ENDBRANCH  19  21
ENDBRANCH   4  19
TORSDOF 5
ENDMDL
MODEL 9
REMARK VINA RESULT:      -6.7     29.116     34.198
REMARK  Name = 26745395
REMARK  5 active torsions:
REMARK  status: ('A' for Active; 'I' for Inactive)
REMARK    1  A    between atoms: N_4  and  C_19
REMARK    2  A    between atoms: C_7  and  C_14
REMARK    3  A    between atoms: C_12  and  C_13
REMARK    4  A    between atoms: C_14  and  C_20
REMARK    5  A    between atoms: C_19  and  C_21
REMARK                            x       y       z     vdW  Elec       q    Type
REMARK                         _______ _______ _______ _____ _____    ______ ____
ROOT
ATOM      4  N   UNL     1     -15.905   7.215  20.635  0.00  0.00    -0.281 NA
ATOM      5  N   UNL     1     -18.608   7.795  18.107  0.00  0.00    -0.347 N 
ATOM      6  N   UNL     1     -19.132   5.654  18.483  0.00  0.00    -0.240 NA
ATOM     12  C   UNL     1     -16.663   6.142  21.340  0.00  0.00    +0.150 C 
ATOM     15  C   UNL     1     -17.493   5.241  20.376  0.00  0.00    +0.085 C 
ATOM     16  C   UNL     1     -16.809   8.143  19.897  0.00  0.00    +0.140 C 
ATOM     17  C   UNL     1     -18.157   6.066  19.346  0.00  0.00    +0.065 A 
ATOM     18  C   UNL     1     -17.814   7.376  19.130  0.00  0.00    +0.053 A 
ATOM     22  C   UNL     1     -19.385   6.721  17.750  0.00  0.00    +0.197 A 
ATOM     33  H   UNL     1     -18.629   8.717  17.691  0.00  0.00    +0.167 HD
ENDROOT
BRANCH  12  13
ATOM      2  O   UNL     1     -14.858   4.620  21.377  0.00  0.00    -0.274 OA
ATOM      3  N   UNL     1     -15.803   5.164  23.429  0.00  0.00    -0.300 N 
ATOM      7  C   UNL     1     -16.629   4.050  25.977  0.00  0.00    -0.004 C 
ATOM      8  C   UNL     1     -17.568   4.923  25.132  0.00  0.00    +0.023 C 
ATOM      9  C   UNL     1     -15.610   3.339  25.073  0.00  0.00    +0.023 C 
ATOM     10  C   UNL     1     -16.784   5.888  24.246  0.00  0.00    +0.108 C 
ATOM     11  C   UNL     1     -14.864   4.336  24.190  0.00  0.00    +0.108 C 
ATOM     13  C   UNL     1     -15.692   5.241  22.041  0.00  0.00    +0.233 C 
BRANCH   7  14
ATOM     14  C   UNL     1     -17.421   3.039  26.802  0.00  0.00    +0.038 C 
BRANCH  14  20
ATOM     20  C   UNL     1     -16.637   2.556  27.991  0.00  0.00    -0.047 A 
ATOM     23  C   UNL     1     -16.774   1.239  28.429  0.00  0.00    +0.003 A 
ATOM     24  C   UNL     1     -15.771   3.426  28.656  0.00  0.00    +0.003 A 
ATOM     27  C   UNL     1     -16.046   0.791  29.532  0.00  0.00    +0.000 A 
ATOM     28  C   UNL     1     -15.044   2.977  29.758  0.00  0.00    +0.000 A 
ATOM     29  C   UNL     1     -15.181   1.660  30.196  0.00  0.00    +0.000 A 
ENDBRANCH  14  20
ENDBRANCH   7  14
ENDBRANCH  12  13
BRANCH   4  19
ATOM     19  C   UNL     1     -15.072   8.005  21.550  0.00  0.00    +0.120 C 
BRANCH  19  21
ATOM      1 CL   UNL     1      -9.807   9.501  19.054  0.00  0.00    -0.084 Cl
ATOM     21  C   UNL     1     -13.754   8.380  20.925  0.00  0.00    -0.033 A 
ATOM     25  C   UNL     1     -13.475   9.715  20.634  0.00  0.00    +0.006 A 
ATOM     26  C   UNL     1     -12.812   7.391  20.638  0.00  0.00    +0.006 A 
ATOM     30  C   UNL     1     -12.254  10.061  20.055  0.00  0.00    +0.020 A 
ATOM     31  C   UNL     1     -11.591   7.738  20.060  0.00  0.00    +0.020 A 
ATOM     32  C   UNL     1     -11.313   9.073  19.768  0.00  0.00    +0.041 A 
ENDBRANCH  19  21
ENDBRANCH   4  19
TORSDOF 5
ENDMDL
MODEL 10
REMARK VINA RESULT:      -6.7      2.704      5.059
REMARK  Name = 26745395
REMARK  5 active torsions:
REMARK  status: ('A' for Active; 'I' for Inactive)
REMARK    1  A    between atoms: N_4  and  C_19
REMARK    2  A    between atoms: C_7  and  C_14
REMARK    3  A    between atoms: C_12  and  C_13
REMARK    4  A    between atoms: C_14  and  C_20
REMARK    5  A    between atoms: C_19  and  C_21
REMARK                            x       y       z     vdW  Elec       q    Type
REMARK                         _______ _______ _______ _____ _____    ______ ____
ROOT
ATOM      4  N   UNL     1       9.821   8.020   6.248  0.00  0.00    -0.281 NA
ATOM      5  N   UNL     1       8.710   5.972   9.180  0.00  0.00    -0.347 N 
ATOM      6  N   UNL     1      10.444   4.660   8.657  0.00  0.00    -0.240 NA
ATOM     12  C   UNL     1      11.246   7.597   6.372  0.00  0.00    +0.150 C 
ATOM     15  C   UNL     1      11.410   6.112   6.814  0.00  0.00    +0.085 C 
ATOM     16  C   UNL     1       9.092   7.904   7.544  0.00  0.00    +0.140 C 
ATOM     17  C   UNL     1      10.442   5.783   7.880  0.00  0.00    +0.065 A 
ATOM     18  C   UNL     1       9.383   6.601   8.179  0.00  0.00    +0.053 A 
ATOM     22  C   UNL     1       9.387   4.805   9.434  0.00  0.00    +0.197 A 
ATOM     33  H   UNL     1       7.876   6.297   9.652  0.00  0.00    +0.167 HD
ENDROOT
BRANCH  12  13
ATOM      2  O   UNL     1      11.370   7.220   4.044  0.00  0.00    -0.274 OA
ATOM      3  N   UNL     1      13.117   8.418   4.998  0.00  0.00    -0.300 N 
ATOM      7  C   UNL     1      16.000   8.746   4.970  0.00  0.00    -0.004 C 
ATOM      8  C   UNL     1      15.222   8.531   6.276  0.00  0.00    +0.023 C 
ATOM      9  C   UNL     1      15.244   8.112   3.791  0.00  0.00    +0.023 C 
ATOM     10  C   UNL     1      13.783   9.027   6.155  0.00  0.00    +0.108 C 
ATOM     11  C   UNL     1      13.805   8.618   3.721  0.00  0.00    +0.108 C 
ATOM     13  C   UNL     1      11.908   7.724   5.033  0.00  0.00    +0.233 C 
BRANCH   7  14
ATOM     14  C   UNL     1      17.413   8.179   5.078  0.00  0.00    +0.038 C 
BRANCH  14  20
ATOM     20  C   UNL     1      18.299   9.055   5.921  0.00  0.00    -0.047 A 
ATOM     23  C   UNL     1      19.308   8.484   6.697  0.00  0.00    +0.003 A 
ATOM     24  C   UNL     1      18.113  10.437   5.926  0.00  0.00    +0.003 A 
ATOM     27  C   UNL     1      20.130   9.295   7.479  0.00  0.00    +0.000 A 
ATOM     28  C   UNL     1      18.936  11.248   6.708  0.00  0.00    +0.000 A 
ATOM     29  C   UNL     1      19.944  10.677   7.484  0.00  0.00    +0.000 A 
ENDBRANCH  14  20
ENDBRANCH   7  14
ENDBRANCH  12  13
BRANCH   4  19
ATOM     19  C   UNL     1       9.687   9.398   5.760  0.00  0.00    +0.120 C 
BRANCH  19  21
ATOM      1 CL   UNL     1       5.028   9.995   2.001  0.00  0.00    -0.084 Cl
ATOM     21  C   UNL     1       8.520   9.548   4.819  0.00  0.00    -0.033 A 
ATOM     25  C   UNL     1       8.459   8.778   3.658  0.00  0.00    +0.006 A 
ATOM     26  C   UNL     1       7.502  10.456   5.109  0.00  0.00    +0.006 A 
ATOM     30  C   UNL     1       7.379   8.916   2.786  0.00  0.00    +0.020 A 
ATOM     31  C   UNL     1       6.422  10.594   4.237  0.00  0.00    +0.020 A 
ATOM     32  C   UNL     1       6.361   9.824   3.076  0.00  0.00    +0.041 A 
ENDBRANCH  19  21
ENDBRANCH   4  19
TORSDOF 5
ENDMDL
