MODEL 1
REMARK VINA RESULT:      -6.0      0.000      0.000
REMARK  Name = 56774170
REMARK  11 active torsions:
REMARK  status: ('A' for Active; 'I' for Inactive)
REMARK    1  A    between atoms: N_3  and  C_8
REMARK    2  A    between atoms: N_5  and  C_18
REMARK    3  A    between atoms: C_6  and  C_11
REMARK    4  A    between atoms: C_6  and  C_12
REMARK    5  A    between atoms: C_7  and  C_10
REMARK    6  A    between atoms: C_10  and  C_13
REMARK    7  A    between atoms: C_16  and  C_17
REMARK    8  A    between atoms: C_17  and  C_19
REMARK    9  A    between atoms: C_18  and  C_22
REMARK   10  A    between atoms: C_19  and  C_20
REMARK   11  A    between atoms: C_19  and  C_21
REMARK                            x       y       z     vdW  Elec       q    Type
REMARK                         _______ _______ _______ _____ _____    ______ ____
ROOT
ATOM      6  C   UNL     1      -6.215 -11.608  17.801  0.00  0.00    -0.013 C 
ATOM      7  C   UNL     1      -5.345 -10.983  16.690  0.00  0.00    +0.004 C 
ATOM      8  C   UNL     1      -7.378 -10.744  17.272  0.00  0.00    +0.081 C 
ATOM      9  C   UNL     1      -6.308  -9.778  16.721  0.00  0.00    +0.027 C 
ATOM     11  C   UNL     1      -5.730 -11.293  19.199  0.00  0.00    +0.013 C 
ATOM     12  C   UNL     1      -6.483 -13.096  17.673  0.00  0.00    +0.013 C 
ENDROOT
BRANCH   8   3
ATOM      2  O   UNL     1      -9.917 -11.746  18.214  0.00  0.00    -0.253 OA
ATOM      3  N   UNL     1      -8.243 -10.144  18.296  0.00  0.00    -0.296 N 
ATOM      5  N   UNL     1     -10.082  -9.945  19.670  0.00  0.00    -0.300 N 
ATOM     14  C   UNL     1      -9.460 -10.707  18.686  0.00  0.00    +0.300 C 
ATOM     23  H   UNL     1      -7.967  -9.277  18.752  0.00  0.00    +0.151 HD
ATOM     24  H   UNL     1      -9.622  -9.105  20.007  0.00  0.00    +0.150 HD
BRANCH   5  18
ATOM     18  C   UNL     1     -11.356 -10.308  20.247  0.00  0.00    +0.102 C 
ATOM     22  C   UNL     1     -12.508  -9.710  19.467  0.00  0.00    +0.024 C 
ENDBRANCH   5  18
ENDBRANCH   8   3
BRANCH   7  10
ATOM     10  C   UNL     1      -3.888 -10.654  17.040  0.00  0.00    +0.063 C 
BRANCH  10  13
ATOM      1  O   UNL     1      -1.277 -10.323  14.626  0.00  0.00    -0.359 OA
ATOM      4  N   UNL     1      -1.749 -10.324  15.933  0.00  0.00    -0.083 NA
ATOM     13  C   UNL     1      -3.056 -10.577  15.828  0.00  0.00    +0.084 A 
ATOM     15  C   UNL     1      -3.463 -10.744  14.492  0.00  0.00    +0.071 A 
ATOM     16  C   UNL     1      -2.306 -10.574  13.777  0.00  0.00    +0.138 A 
BRANCH  16  17
ATOM     17  C   UNL     1      -1.973 -10.610  12.305  0.00  0.00    +0.080 C 
BRANCH  17  19
ATOM     19  C   UNL     1      -3.201 -10.465  11.385  0.00  0.00    -0.010 C 
ATOM     20  C   UNL     1      -3.029  -9.330  10.373  0.00  0.00    +0.007 C 
ATOM     21  C   UNL     1      -3.452 -11.781  10.645  0.00  0.00    +0.007 C 
ENDBRANCH  17  19
ENDBRANCH  16  17
ENDBRANCH  10  13
ENDBRANCH   7  10
TORSDOF 6
ENDMDL
MODEL 2
REMARK VINA RESULT:      -6.0     26.725     28.792
REMARK  Name = 56774170
REMARK  11 active torsions:
REMARK  status: ('A' for Active; 'I' for Inactive)
REMARK    1  A    between atoms: N_3  and  C_8
REMARK    2  A    between atoms: N_5  and  C_18
REMARK    3  A    between atoms: C_6  and  C_11
REMARK    4  A    between atoms: C_6  and  C_12
REMARK    5  A    between atoms: C_7  and  C_10
REMARK    6  A    between atoms: C_10  and  C_13
REMARK    7  A    between atoms: C_16  and  C_17
REMARK    8  A    between atoms: C_17  and  C_19
REMARK    9  A    between atoms: C_18  and  C_22
REMARK   10  A    between atoms: C_19  and  C_20
REMARK   11  A    between atoms: C_19  and  C_21
REMARK                            x       y       z     vdW  Elec       q    Type
REMARK                         _______ _______ _______ _____ _____    ______ ____
ROOT
ATOM      6  C   UNL     1      12.106   8.477  20.546  0.00  0.00    -0.013 C 
ATOM      7  C   UNL     1      13.602   8.158  20.345  0.00  0.00    +0.004 C 
ATOM      8  C   UNL     1      12.552   9.834  21.130  0.00  0.00    +0.081 C 
ATOM      9  C   UNL     1      13.889   9.152  21.490  0.00  0.00    +0.027 C 
ATOM     11  C   UNL     1      11.408   7.535  21.501  0.00  0.00    +0.013 C 
ATOM     12  C   UNL     1      11.285   8.626  19.278  0.00  0.00    +0.013 C 
ENDROOT
BRANCH   8   3
ATOM      2  O   UNL     1      11.631  12.521  21.645  0.00  0.00    -0.253 OA
ATOM      3  N   UNL     1      11.797  10.303  22.299  0.00  0.00    -0.296 N 
ATOM      5  N   UNL     1      10.695  11.812  23.649  0.00  0.00    -0.300 N 
ATOM     14  C   UNL     1      11.394  11.630  22.459  0.00  0.00    +0.300 C 
ATOM     23  H   UNL     1      11.549   9.652  23.040  0.00  0.00    +0.151 HD
ATOM     24  H   UNL     1      10.538  11.012  24.253  0.00  0.00    +0.150 HD
BRANCH   5  18
ATOM     18  C   UNL     1      10.169  13.095  24.054  0.00  0.00    +0.102 C 
ATOM     22  C   UNL     1      10.553  13.425  25.481  0.00  0.00    +0.024 C 
ENDBRANCH   5  18
ENDBRANCH   8   3
BRANCH   7  10
ATOM     10  C   UNL     1      14.055   6.717  20.613  0.00  0.00    +0.063 C 
BRANCH  10  13
ATOM      1  O   UNL     1      17.229   6.145  19.080  0.00  0.00    -0.359 OA
ATOM      4  N   UNL     1      15.843   6.238  19.038  0.00  0.00    -0.083 NA
ATOM     13  C   UNL     1      15.479   6.538  20.287  0.00  0.00    +0.084 A 
ATOM     15  C   UNL     1      16.581   6.648  21.154  0.00  0.00    +0.071 A 
ATOM     16  C   UNL     1      17.657   6.391  20.344  0.00  0.00    +0.138 A 
BRANCH  16  17
ATOM     17  C   UNL     1      19.147   6.332  20.575  0.00  0.00    +0.080 C 
BRANCH  17  19
ATOM     19  C   UNL     1      19.655   7.338  21.628  0.00  0.00    -0.010 C 
ATOM     20  C   UNL     1      20.090   6.645  22.922  0.00  0.00    +0.007 C 
ATOM     21  C   UNL     1      20.824   8.141  21.055  0.00  0.00    +0.007 C 
ENDBRANCH  17  19
ENDBRANCH  16  17
ENDBRANCH  10  13
ENDBRANCH   7  10
TORSDOF 6
ENDMDL
MODEL 3
REMARK VINA RESULT:      -6.0      1.873      1.957
REMARK  Name = 56774170
REMARK  11 active torsions:
REMARK  status: ('A' for Active; 'I' for Inactive)
REMARK    1  A    between atoms: N_3  and  C_8
REMARK    2  A    between atoms: N_5  and  C_18
REMARK    3  A    between atoms: C_6  and  C_11
REMARK    4  A    between atoms: C_6  and  C_12
REMARK    5  A    between atoms: C_7  and  C_10
REMARK    6  A    between atoms: C_10  and  C_13
REMARK    7  A    between atoms: C_16  and  C_17
REMARK    8  A    between atoms: C_17  and  C_19
REMARK    9  A    between atoms: C_18  and  C_22
REMARK   10  A    between atoms: C_19  and  C_20
REMARK   11  A    between atoms: C_19  and  C_21
REMARK                            x       y       z     vdW  Elec       q    Type
REMARK                         _______ _______ _______ _____ _____    ______ ____
ROOT
ATOM      6  C   UNL     1      -6.326 -11.107  17.765  0.00  0.00    -0.013 C 
ATOM      7  C   UNL     1      -5.287 -11.233  16.631  0.00  0.00    +0.004 C 
ATOM      8  C   UNL     1      -7.237 -10.389  16.747  0.00  0.00    +0.081 C 
ATOM      9  C   UNL     1      -5.951  -9.997  15.990  0.00  0.00    +0.027 C 
ATOM     11  C   UNL     1      -5.848 -10.279  18.936  0.00  0.00    +0.013 C 
ATOM     12  C   UNL     1      -6.921 -12.412  18.266  0.00  0.00    +0.013 C 
ENDROOT
BRANCH   8   3
ATOM      2  O   UNL     1      -9.769  -9.385  15.789  0.00  0.00    -0.253 OA
ATOM      3  N   UNL     1      -7.989  -9.239  17.267  0.00  0.00    -0.296 N 
ATOM      5  N   UNL     1      -9.714  -7.717  17.404  0.00  0.00    -0.300 N 
ATOM     14  C   UNL     1      -9.212  -8.828  16.734  0.00  0.00    +0.300 C 
ATOM     23  H   UNL     1      -7.620  -8.698  18.046  0.00  0.00    +0.151 HD
ATOM     24  H   UNL     1      -9.187  -7.333  18.181  0.00  0.00    +0.150 HD
BRANCH   5  18
ATOM     18  C   UNL     1     -10.968  -7.094  17.047  0.00  0.00    +0.102 C 
ATOM     22  C   UNL     1     -10.799  -6.132  15.890  0.00  0.00    +0.024 C 
ENDBRANCH   5  18
ENDBRANCH   8   3
BRANCH   7  10
ATOM     10  C   UNL     1      -3.811 -11.051  17.008  0.00  0.00    +0.063 C 
BRANCH  10  13
ATOM      1  O   UNL     1      -1.276 -10.123  14.670  0.00  0.00    -0.359 OA
ATOM      4  N   UNL     1      -1.757 -10.276  15.964  0.00  0.00    -0.083 NA
ATOM     13  C   UNL     1      -2.992 -10.761  15.819  0.00  0.00    +0.084 A 
ATOM     15  C   UNL     1      -3.344 -10.933  14.468  0.00  0.00    +0.071 A 
ATOM     16  C   UNL     1      -2.230 -10.517  13.788  0.00  0.00    +0.138 A 
BRANCH  16  17
ATOM     17  C   UNL     1      -1.876 -10.417  12.324  0.00  0.00    +0.080 C 
BRANCH  17  19
ATOM     19  C   UNL     1      -3.101 -10.349  11.390  0.00  0.00    -0.010 C 
ATOM     20  C   UNL     1      -2.934  -9.288  10.300  0.00  0.00    +0.007 C 
ATOM     21  C   UNL     1      -3.339 -11.717  10.747  0.00  0.00    +0.007 C 
ENDBRANCH  17  19
ENDBRANCH  16  17
ENDBRANCH  10  13
ENDBRANCH   7  10
TORSDOF 6
ENDMDL
MODEL 4
REMARK VINA RESULT:      -5.9     19.844     23.051
REMARK  Name = 56774170
REMARK  11 active torsions:
REMARK  status: ('A' for Active; 'I' for Inactive)
REMARK    1  A    between atoms: N_3  and  C_8
REMARK    2  A    between atoms: N_5  and  C_18
REMARK    3  A    between atoms: C_6  and  C_11
REMARK    4  A    between atoms: C_6  and  C_12
REMARK    5  A    between atoms: C_7  and  C_10
REMARK    6  A    between atoms: C_10  and  C_13
REMARK    7  A    between atoms: C_16  and  C_17
REMARK    8  A    between atoms: C_17  and  C_19
REMARK    9  A    between atoms: C_18  and  C_22
REMARK   10  A    between atoms: C_19  and  C_20
REMARK   11  A    between atoms: C_19  and  C_21
REMARK                            x       y       z     vdW  Elec       q    Type
REMARK                         _______ _______ _______ _____ _____    ______ ____
ROOT
ATOM      6  C   UNL     1     -12.538   7.775  20.363  0.00  0.00    -0.013 C 
ATOM      7  C   UNL     1     -12.414   9.089  21.161  0.00  0.00    +0.004 C 
ATOM      8  C   UNL     1     -11.529   8.376  19.362  0.00  0.00    +0.081 C 
ATOM      9  C   UNL     1     -12.004   9.766  19.837  0.00  0.00    +0.027 C 
ATOM     11  C   UNL     1     -13.931   7.517  19.834  0.00  0.00    +0.013 C 
ATOM     12  C   UNL     1     -12.010   6.529  21.052  0.00  0.00    +0.013 C 
ENDROOT
BRANCH   8   3
ATOM      2  O   UNL     1      -9.897   9.127  17.103  0.00  0.00    -0.253 OA
ATOM      3  N   UNL     1     -11.804   8.112  17.944  0.00  0.00    -0.296 N 
ATOM      5  N   UNL     1     -11.437   8.145  15.669  0.00  0.00    -0.300 N 
ATOM     14  C   UNL     1     -10.948   8.517  16.917  0.00  0.00    +0.300 C 
ATOM     23  H   UNL     1     -12.650   7.618  17.672  0.00  0.00    +0.151 HD
ATOM     24  H   UNL     1     -12.312   7.632  15.617  0.00  0.00    +0.150 HD
BRANCH   5  18
ATOM     18  C   UNL     1     -10.741   8.445  14.439  0.00  0.00    +0.102 C 
ATOM     22  C   UNL     1     -10.324   7.182  13.716  0.00  0.00    +0.024 C 
ENDBRANCH   5  18
ENDBRANCH   8   3
BRANCH   7  10
ATOM     10  C   UNL     1     -13.692   9.646  21.802  0.00  0.00    +0.063 C 
BRANCH  10  13
ATOM      1  O   UNL     1     -13.772  10.182  25.332  0.00  0.00    -0.359 OA
ATOM      4  N   UNL     1     -14.278   9.631  24.161  0.00  0.00    -0.083 NA
ATOM     13  C   UNL     1     -13.454  10.049  23.198  0.00  0.00    +0.084 A 
ATOM     15  C   UNL     1     -12.418  10.859  23.695  0.00  0.00    +0.071 A 
ATOM     16  C   UNL     1     -12.665  10.911  25.042  0.00  0.00    +0.138 A 
BRANCH  16  17
ATOM     17  C   UNL     1     -11.979  11.587  26.205  0.00  0.00    +0.080 C 
BRANCH  17  19
ATOM     19  C   UNL     1     -11.419  10.606  27.254  0.00  0.00    -0.010 C 
ATOM     20  C   UNL     1     -10.055  10.045  26.845  0.00  0.00    +0.007 C 
ATOM     21  C   UNL     1     -11.302  11.308  28.609  0.00  0.00    +0.007 C 
ENDBRANCH  17  19
ENDBRANCH  16  17
ENDBRANCH  10  13
ENDBRANCH   7  10
TORSDOF 6
ENDMDL
MODEL 5
REMARK VINA RESULT:      -5.8     25.489     27.885
REMARK  Name = 56774170
REMARK  11 active torsions:
REMARK  status: ('A' for Active; 'I' for Inactive)
REMARK    1  A    between atoms: N_3  and  C_8
REMARK    2  A    between atoms: N_5  and  C_18
REMARK    3  A    between atoms: C_6  and  C_11
REMARK    4  A    between atoms: C_6  and  C_12
REMARK    5  A    between atoms: C_7  and  C_10
REMARK    6  A    between atoms: C_10  and  C_13
REMARK    7  A    between atoms: C_16  and  C_17
REMARK    8  A    between atoms: C_17  and  C_19
REMARK    9  A    between atoms: C_18  and  C_22
REMARK   10  A    between atoms: C_19  and  C_20
REMARK   11  A    between atoms: C_19  and  C_21
REMARK                            x       y       z     vdW  Elec       q    Type
REMARK                         _______ _______ _______ _____ _____    ______ ____
ROOT
ATOM      6  C   UNL     1       1.056   1.469  -5.395  0.00  0.00    -0.013 C 
ATOM      7  C   UNL     1       2.106   2.474  -5.913  0.00  0.00    +0.004 C 
ATOM      8  C   UNL     1       0.503   1.422  -6.835  0.00  0.00    +0.081 C 
ATOM      9  C   UNL     1       1.103   2.831  -7.028  0.00  0.00    +0.027 C 
ATOM     11  C   UNL     1       0.135   2.044  -4.343  0.00  0.00    +0.013 C 
ATOM     12  C   UNL     1       1.596   0.129  -4.930  0.00  0.00    +0.013 C 
ENDROOT
BRANCH   8   3
ATOM      2  O   UNL     1      -1.125  -0.842  -7.582  0.00  0.00    -0.253 OA
ATOM      3  N   UNL     1      -0.960   1.384  -6.953  0.00  0.00    -0.296 N 
ATOM      5  N   UNL     1      -3.034   0.463  -7.361  0.00  0.00    -0.300 N 
ATOM     14  C   UNL     1      -1.661   0.234  -7.323  0.00  0.00    +0.300 C 
ATOM     23  H   UNL     1      -1.509   2.220  -6.768  0.00  0.00    +0.151 HD
ATOM     24  H   UNL     1      -3.385   1.384  -7.120  0.00  0.00    +0.150 HD
BRANCH   5  18
ATOM     18  C   UNL     1      -3.984  -0.565  -7.717  0.00  0.00    +0.102 C 
ATOM     22  C   UNL     1      -5.401  -0.030  -7.726  0.00  0.00    +0.024 C 
ENDBRANCH   5  18
ENDBRANCH   8   3
BRANCH   7  10
ATOM     10  C   UNL     1       2.482   3.638  -4.986  0.00  0.00    +0.063 C 
BRANCH  10  13
ATOM      1  O   UNL     1       2.838   6.558  -7.010  0.00  0.00    -0.359 OA
ATOM      4  N   UNL     1       3.270   5.318  -6.556  0.00  0.00    -0.083 NA
ATOM     13  C   UNL     1       2.344   4.931  -5.675  0.00  0.00    +0.084 A 
ATOM     15  C   UNL     1       1.313   5.877  -5.533  0.00  0.00    +0.071 A 
ATOM     16  C   UNL     1       1.672   6.880  -6.394  0.00  0.00    +0.138 A 
BRANCH  16  17
ATOM     17  C   UNL     1       1.054   8.205  -6.771  0.00  0.00    +0.080 C 
BRANCH  17  19
ATOM     19  C   UNL     1       0.984   9.213  -5.606  0.00  0.00    -0.010 C 
ATOM     20  C   UNL     1       2.345   9.412  -4.936  0.00  0.00    +0.007 C 
ATOM     21  C   UNL     1       0.459  10.557  -6.116  0.00  0.00    +0.007 C 
ENDBRANCH  17  19
ENDBRANCH  16  17
ENDBRANCH  10  13
ENDBRANCH   7  10
TORSDOF 6
ENDMDL
MODEL 6
REMARK VINA RESULT:      -5.6      1.677      8.457
REMARK  Name = 56774170
REMARK  11 active torsions:
REMARK  status: ('A' for Active; 'I' for Inactive)
REMARK    1  A    between atoms: N_3  and  C_8
REMARK    2  A    between atoms: N_5  and  C_18
REMARK    3  A    between atoms: C_6  and  C_11
REMARK    4  A    between atoms: C_6  and  C_12
REMARK    5  A    between atoms: C_7  and  C_10
REMARK    6  A    between atoms: C_10  and  C_13
REMARK    7  A    between atoms: C_16  and  C_17
REMARK    8  A    between atoms: C_17  and  C_19
REMARK    9  A    between atoms: C_18  and  C_22
REMARK   10  A    between atoms: C_19  and  C_20
REMARK   11  A    between atoms: C_19  and  C_21
REMARK                            x       y       z     vdW  Elec       q    Type
REMARK                         _______ _______ _______ _____ _____    ______ ____
ROOT
ATOM      6  C   UNL     1      -5.586 -11.130  16.380  0.00  0.00    -0.013 C 
ATOM      7  C   UNL     1      -5.387 -11.527  17.858  0.00  0.00    +0.004 C 
ATOM      8  C   UNL     1      -4.145 -11.626  16.132  0.00  0.00    +0.081 C 
ATOM      9  C   UNL     1      -3.873 -11.340  17.624  0.00  0.00    +0.027 C 
ATOM     11  C   UNL     1      -5.829  -9.652  16.176  0.00  0.00    +0.013 C 
ATOM     12  C   UNL     1      -6.622 -11.932  15.613  0.00  0.00    +0.013 C 
ENDROOT
BRANCH   8   3
ATOM      2  O   UNL     1      -3.381 -12.274  13.425  0.00  0.00    -0.253 OA
ATOM      3  N   UNL     1      -3.339 -10.806  15.219  0.00  0.00    -0.296 N 
ATOM      5  N   UNL     1      -2.248 -10.253  13.265  0.00  0.00    -0.300 N 
ATOM     14  C   UNL     1      -3.020 -11.208  13.920  0.00  0.00    +0.300 C 
ATOM     23  H   UNL     1      -2.980  -9.904  15.525  0.00  0.00    +0.151 HD
ATOM     24  H   UNL     1      -2.008  -9.396  13.753  0.00  0.00    +0.150 HD
BRANCH   5  18
ATOM     18  C   UNL     1      -1.783 -10.426  11.908  0.00  0.00    +0.102 C 
ATOM     22  C   UNL     1      -2.719  -9.771  10.915  0.00  0.00    +0.024 C 
ENDBRANCH   5  18
ENDBRANCH   8   3
BRANCH   7  10
ATOM     10  C   UNL     1      -5.995 -10.603  18.920  0.00  0.00    +0.063 C 
BRANCH  10  13
ATOM      1  O   UNL     1      -8.834 -12.298  20.270  0.00  0.00    -0.359 OA
ATOM      4  N   UNL     1      -7.465 -12.150  20.084  0.00  0.00    -0.083 NA
ATOM     13  C   UNL     1      -7.336 -11.063  19.320  0.00  0.00    +0.084 A 
ATOM     15  C   UNL     1      -8.576 -10.487  18.994  0.00  0.00    +0.071 A 
ATOM     16  C   UNL     1      -9.486 -11.302  19.616  0.00  0.00    +0.138 A 
BRANCH  16  17
ATOM     17  C   UNL     1     -10.992 -11.306  19.710  0.00  0.00    +0.080 C 
BRANCH  17  19
ATOM     19  C   UNL     1     -11.622  -9.899  19.679  0.00  0.00    -0.010 C 
ATOM     20  C   UNL     1     -12.202  -9.561  18.303  0.00  0.00    +0.007 C 
ATOM     21  C   UNL     1     -12.720  -9.799  20.740  0.00  0.00    +0.007 C 
ENDBRANCH  17  19
ENDBRANCH  16  17
ENDBRANCH  10  13
ENDBRANCH   7  10
TORSDOF 6
ENDMDL
MODEL 7
REMARK VINA RESULT:      -5.5      4.861      8.755
REMARK  Name = 56774170
REMARK  11 active torsions:
REMARK  status: ('A' for Active; 'I' for Inactive)
REMARK    1  A    between atoms: N_3  and  C_8
REMARK    2  A    between atoms: N_5  and  C_18
REMARK    3  A    between atoms: C_6  and  C_11
REMARK    4  A    between atoms: C_6  and  C_12
REMARK    5  A    between atoms: C_7  and  C_10
REMARK    6  A    between atoms: C_10  and  C_13
REMARK    7  A    between atoms: C_16  and  C_17
REMARK    8  A    between atoms: C_17  and  C_19
REMARK    9  A    between atoms: C_18  and  C_22
REMARK   10  A    between atoms: C_19  and  C_20
REMARK   11  A    between atoms: C_19  and  C_21
REMARK                            x       y       z     vdW  Elec       q    Type
REMARK                         _______ _______ _______ _____ _____    ______ ____
ROOT
ATOM      6  C   UNL     1      -5.342  -9.478  10.170  0.00  0.00    -0.013 C 
ATOM      7  C   UNL     1      -4.309 -10.580  10.486  0.00  0.00    +0.004 C 
ATOM      8  C   UNL     1      -5.594 -10.204   8.831  0.00  0.00    +0.081 C 
ATOM      9  C   UNL     1      -4.166 -10.776   8.962  0.00  0.00    +0.027 C 
ATOM     11  C   UNL     1      -4.741  -8.093  10.077  0.00  0.00    +0.013 C 
ATOM     12  C   UNL     1      -6.571  -9.447  11.061  0.00  0.00    +0.013 C 
ENDROOT
BRANCH   8   3
ATOM      2  O   UNL     1      -7.865 -10.133   7.051  0.00  0.00    -0.253 OA
ATOM      3  N   UNL     1      -5.775  -9.335   7.661  0.00  0.00    -0.296 N 
ATOM      5  N   UNL     1      -6.840  -8.454   5.816  0.00  0.00    -0.300 N 
ATOM     14  C   UNL     1      -6.916  -9.375   6.857  0.00  0.00    +0.300 C 
ATOM     23  H   UNL     1      -5.050  -8.671   7.402  0.00  0.00    +0.151 HD
ATOM     24  H   UNL     1      -6.018  -7.862   5.744  0.00  0.00    +0.150 HD
BRANCH   5  18
ATOM     18  C   UNL     1      -7.892  -8.295   4.839  0.00  0.00    +0.102 C 
ATOM     22  C   UNL     1      -8.983  -7.375   5.346  0.00  0.00    +0.024 C 
ENDBRANCH   5  18
ENDBRANCH   8   3
BRANCH   7  10
ATOM     10  C   UNL     1      -3.024 -10.153  11.205  0.00  0.00    +0.063 C 
BRANCH  10  13
ATOM      1  O   UNL     1      -2.439 -10.616  14.698  0.00  0.00    -0.359 OA
ATOM      4  N   UNL     1      -2.034 -10.235  13.424  0.00  0.00    -0.083 NA
ATOM     13  C   UNL     1      -3.096 -10.453  12.645  0.00  0.00    +0.084 A 
ATOM     15  C   UNL     1      -4.191 -10.966  13.363  0.00  0.00    +0.071 A 
ATOM     16  C   UNL     1      -3.724 -11.049  14.649  0.00  0.00    +0.138 A 
BRANCH  16  17
ATOM     17  C   UNL     1      -4.332 -11.506  15.953  0.00  0.00    +0.080 C 
BRANCH  17  19
ATOM     19  C   UNL     1      -4.722 -10.351  16.897  0.00  0.00    -0.010 C 
ATOM     20  C   UNL     1      -5.922  -9.560  16.371  0.00  0.00    +0.007 C 
ATOM     21  C   UNL     1      -5.039 -10.903  18.288  0.00  0.00    +0.007 C 
ENDBRANCH  17  19
ENDBRANCH  16  17
ENDBRANCH  10  13
ENDBRANCH   7  10
TORSDOF 6
ENDMDL
MODEL 8
REMARK VINA RESULT:      -5.4      2.058      2.399
REMARK  Name = 56774170
REMARK  11 active torsions:
REMARK  status: ('A' for Active; 'I' for Inactive)
REMARK    1  A    between atoms: N_3  and  C_8
REMARK    2  A    between atoms: N_5  and  C_18
REMARK    3  A    between atoms: C_6  and  C_11
REMARK    4  A    between atoms: C_6  and  C_12
REMARK    5  A    between atoms: C_7  and  C_10
REMARK    6  A    between atoms: C_10  and  C_13
REMARK    7  A    between atoms: C_16  and  C_17
REMARK    8  A    between atoms: C_17  and  C_19
REMARK    9  A    between atoms: C_18  and  C_22
REMARK   10  A    between atoms: C_19  and  C_20
REMARK   11  A    between atoms: C_19  and  C_21
REMARK                            x       y       z     vdW  Elec       q    Type
REMARK                         _______ _______ _______ _____ _____    ______ ____
ROOT
ATOM      6  C   UNL     1      -5.499 -12.302  17.094  0.00  0.00    -0.013 C 
ATOM      7  C   UNL     1      -4.644 -11.018  17.047  0.00  0.00    +0.004 C 
ATOM      8  C   UNL     1      -6.428 -11.556  18.074  0.00  0.00    +0.081 C 
ATOM      9  C   UNL     1      -5.210 -10.681  18.442  0.00  0.00    +0.027 C 
ATOM     11  C   UNL     1      -4.763 -13.500  17.650  0.00  0.00    +0.013 C 
ATOM     12  C   UNL     1      -6.196 -12.681  15.799  0.00  0.00    +0.013 C 
ENDROOT
BRANCH   8   3
ATOM      2  O   UNL     1      -8.980 -12.895  18.236  0.00  0.00    -0.253 OA
ATOM      3  N   UNL     1      -6.941 -12.352  19.196  0.00  0.00    -0.296 N 
ATOM      5  N   UNL     1      -8.441 -13.658  20.362  0.00  0.00    -0.300 N 
ATOM     14  C   UNL     1      -8.196 -12.965  19.180  0.00  0.00    +0.300 C 
ATOM     23  H   UNL     1      -6.379 -12.473  20.035  0.00  0.00    +0.151 HD
ATOM     24  H   UNL     1      -7.727 -13.667  21.083  0.00  0.00    +0.150 HD
BRANCH   5  18
ATOM     18  C   UNL     1      -9.669 -14.380  20.601  0.00  0.00    +0.102 C 
ATOM     22  C   UNL     1      -9.398 -15.803  21.040  0.00  0.00    +0.024 C 
ENDBRANCH   5  18
ENDBRANCH   8   3
BRANCH   7  10
ATOM     10  C   UNL     1      -3.120 -11.191  16.993  0.00  0.00    +0.063 C 
BRANCH  10  13
ATOM      1  O   UNL     1      -1.375  -9.797  14.207  0.00  0.00    -0.359 OA
ATOM      4  N   UNL     1      -1.639  -9.894  15.567  0.00  0.00    -0.083 NA
ATOM     13  C   UNL     1      -2.591 -10.825  15.669  0.00  0.00    +0.084 A 
ATOM     15  C   UNL     1      -2.965 -11.347  14.418  0.00  0.00    +0.071 A 
ATOM     16  C   UNL     1      -2.170 -10.667  13.532  0.00  0.00    +0.138 A 
BRANCH  16  17
ATOM     17  C   UNL     1      -2.016 -10.696  12.031  0.00  0.00    +0.080 C 
BRANCH  17  19
ATOM     19  C   UNL     1      -3.321 -10.400  11.265  0.00  0.00    -0.010 C 
ATOM     20  C   UNL     1      -3.139  -9.289  10.228  0.00  0.00    +0.007 C 
ATOM     21  C   UNL     1      -3.816 -11.673  10.575  0.00  0.00    +0.007 C 
ENDBRANCH  17  19
ENDBRANCH  16  17
ENDBRANCH  10  13
ENDBRANCH   7  10
TORSDOF 6
ENDMDL
MODEL 9
REMARK VINA RESULT:      -5.4     19.326     21.662
REMARK  Name = 56774170
REMARK  11 active torsions:
REMARK  status: ('A' for Active; 'I' for Inactive)
REMARK    1  A    between atoms: N_3  and  C_8
REMARK    2  A    between atoms: N_5  and  C_18
REMARK    3  A    between atoms: C_6  and  C_11
REMARK    4  A    between atoms: C_6  and  C_12
REMARK    5  A    between atoms: C_7  and  C_10
REMARK    6  A    between atoms: C_10  and  C_13
REMARK    7  A    between atoms: C_16  and  C_17
REMARK    8  A    between atoms: C_17  and  C_19
REMARK    9  A    between atoms: C_18  and  C_22
REMARK   10  A    between atoms: C_19  and  C_20
REMARK   11  A    between atoms: C_19  and  C_21
REMARK                            x       y       z     vdW  Elec       q    Type
REMARK                         _______ _______ _______ _____ _____    ______ ____
ROOT
ATOM      6  C   UNL     1     -17.473   3.924  25.047  0.00  0.00    -0.013 C 
ATOM      7  C   UNL     1     -17.238   2.739  26.007  0.00  0.00    +0.004 C 
ATOM      8  C   UNL     1     -16.073   3.632  24.466  0.00  0.00    +0.081 C 
ATOM      9  C   UNL     1     -15.727   2.993  25.828  0.00  0.00    +0.027 C 
ATOM     11  C   UNL     1     -17.641   5.251  25.752  0.00  0.00    +0.013 C 
ATOM     12  C   UNL     1     -18.582   3.739  24.027  0.00  0.00    +0.013 C 
ENDROOT
BRANCH   8   3
ATOM      2  O   UNL     1     -15.288   4.543  21.842  0.00  0.00    -0.253 OA
ATOM      3  N   UNL     1     -15.260   4.812  24.145  0.00  0.00    -0.296 N 
ATOM      5  N   UNL     1     -14.153   6.326  22.805  0.00  0.00    -0.300 N 
ATOM     14  C   UNL     1     -14.931   5.173  22.836  0.00  0.00    +0.300 C 
ATOM     23  H   UNL     1     -14.904   5.405  24.891  0.00  0.00    +0.151 HD
ATOM     24  H   UNL     1     -13.917   6.783  23.680  0.00  0.00    +0.150 HD
BRANCH   5  18
ATOM     18  C   UNL     1     -13.678   6.911  21.572  0.00  0.00    +0.102 C 
ATOM     22  C   UNL     1     -12.287   6.423  21.228  0.00  0.00    +0.024 C 
ENDBRANCH   5  18
ENDBRANCH   8   3
BRANCH   7  10
ATOM     10  C   UNL     1     -17.750   2.888  27.445  0.00  0.00    +0.063 C 
BRANCH  10  13
ATOM      1  O   UNL     1     -16.197   0.297  29.350  0.00  0.00    -0.359 OA
ATOM      4  N   UNL     1     -17.070   0.743  28.365  0.00  0.00    -0.083 NA
ATOM     13  C   UNL     1     -16.956   2.073  28.379  0.00  0.00    +0.084 A 
ATOM     15  C   UNL     1     -16.035   2.521  29.344  0.00  0.00    +0.071 A 
ATOM     16  C   UNL     1     -15.587   1.364  29.926  0.00  0.00    +0.138 A 
BRANCH  16  17
ATOM     17  C   UNL     1     -14.599   1.063  31.026  0.00  0.00    +0.080 C 
BRANCH  17  19
ATOM     19  C   UNL     1     -14.543   2.142  32.126  0.00  0.00    -0.010 C 
ATOM     20  C   UNL     1     -14.757   1.551  33.521  0.00  0.00    +0.007 C 
ATOM     21  C   UNL     1     -13.195   2.865  32.074  0.00  0.00    +0.007 C 
ENDBRANCH  17  19
ENDBRANCH  16  17
ENDBRANCH  10  13
ENDBRANCH   7  10
TORSDOF 6
ENDMDL
MODEL 10
REMARK VINA RESULT:      -5.4     27.989     31.152
REMARK  Name = 56774170
REMARK  11 active torsions:
REMARK  status: ('A' for Active; 'I' for Inactive)
REMARK    1  A    between atoms: N_3  and  C_8
REMARK    2  A    between atoms: N_5  and  C_18
REMARK    3  A    between atoms: C_6  and  C_11
REMARK    4  A    between atoms: C_6  and  C_12
REMARK    5  A    between atoms: C_7  and  C_10
REMARK    6  A    between atoms: C_10  and  C_13
REMARK    7  A    between atoms: C_16  and  C_17
REMARK    8  A    between atoms: C_17  and  C_19
REMARK    9  A    between atoms: C_18  and  C_22
REMARK   10  A    between atoms: C_19  and  C_20
REMARK   11  A    between atoms: C_19  and  C_21
REMARK                            x       y       z     vdW  Elec       q    Type
REMARK                         _______ _______ _______ _____ _____    ______ ____
ROOT
ATOM      6  C   UNL     1      20.420   6.679  21.305  0.00  0.00    -0.013 C 
ATOM      7  C   UNL     1      19.221   6.349  20.392  0.00  0.00    +0.004 C 
ATOM      8  C   UNL     1      21.169   5.520  20.613  0.00  0.00    +0.081 C 
ATOM      9  C   UNL     1      19.783   4.915  20.301  0.00  0.00    +0.027 C 
ATOM     11  C   UNL     1      20.127   6.501  22.778  0.00  0.00    +0.013 C 
ATOM     12  C   UNL     1      21.080   8.026  21.070  0.00  0.00    +0.013 C 
ENDROOT
BRANCH   8   3
ATOM      2  O   UNL     1      23.717   4.319  19.984  0.00  0.00    -0.253 OA
ATOM      3  N   UNL     1      21.993   4.681  21.492  0.00  0.00    -0.296 N 
ATOM      5  N   UNL     1      23.798   3.387  22.110  0.00  0.00    -0.300 N 
ATOM     14  C   UNL     1      23.219   4.143  21.095  0.00  0.00    +0.300 C 
ATOM     23  H   UNL     1      21.677   4.463  22.434  0.00  0.00    +0.151 HD
ATOM     24  H   UNL     1      23.316   3.308  22.999  0.00  0.00    +0.150 HD
BRANCH   5  18
ATOM     18  C   UNL     1      25.071   2.721  21.956  0.00  0.00    +0.102 C 
ATOM     22  C   UNL     1      24.895   1.298  21.467  0.00  0.00    +0.024 C 
ENDBRANCH   5  18
ENDBRANCH   8   3
BRANCH   7  10
ATOM     10  C   UNL     1      17.820   6.455  21.007  0.00  0.00    +0.063 C 
BRANCH  10  13
ATOM      1  O   UNL     1      15.636   6.237  18.189  0.00  0.00    -0.359 OA
ATOM      4  N   UNL     1      16.676   5.760  18.977  0.00  0.00    -0.083 NA
ATOM     13  C   UNL     1      16.797   6.649  19.966  0.00  0.00    +0.084 A 
ATOM     15  C   UNL     1      15.869   7.700  19.857  0.00  0.00    +0.071 A 
ATOM     16  C   UNL     1      15.163   7.393  18.722  0.00  0.00    +0.138 A 
BRANCH  16  17
ATOM     17  C   UNL     1      14.022   8.056  17.990  0.00  0.00    +0.080 C 
BRANCH  17  19
ATOM     19  C   UNL     1      14.099   9.596  17.981  0.00  0.00    -0.010 C 
ATOM     20  C   UNL     1      13.737  10.181  16.614  0.00  0.00    +0.007 C 
ATOM     21  C   UNL     1      13.165  10.167  19.050  0.00  0.00    +0.007 C 
ENDBRANCH  17  19
ENDBRANCH  16  17
ENDBRANCH  10  13
ENDBRANCH   7  10
TORSDOF 6
ENDMDL
