MODEL 1
REMARK VINA RESULT:      -6.8      0.000      0.000
REMARK  Name = 45784144
REMARK  10 active torsions:
REMARK  status: ('A' for Active; 'I' for Inactive)
REMARK    1  A    between atoms: N_3  and  C_16
REMARK    2  A    between atoms: C_9  and  C_13
REMARK    3  A    between atoms: C_10  and  C_16
REMARK    4  A    between atoms: C_12  and  C_17
REMARK    5  A    between atoms: C_13  and  C_18
REMARK    6  A    between atoms: C_13  and  C_19
REMARK    7  A    between atoms: C_14  and  C_20
REMARK    8  A    between atoms: C_17  and  C_21
REMARK    9  A    between atoms: C_22  and  C_24
REMARK   10  A    between atoms: C_23  and  C_25
REMARK                            x       y       z     vdW  Elec       q    Type
REMARK                         _______ _______ _______ _____ _____    ______ ____
ROOT
ATOM      9  C   UNL     1      18.321   9.115  21.862  0.00  0.00    +0.000 C 
ATOM     10  C   UNL     1      17.368   8.517  20.798  0.00  0.00    +0.032 C 
ATOM     11  C   UNL     1      19.780   8.761  21.535  0.00  0.00    +0.012 C 
ATOM     12  C   UNL     1      20.011   7.239  21.474  0.00  0.00    +0.024 C 
ATOM     14  C   UNL     1      18.945   6.540  20.654  0.00  0.00    -0.073 C 
ATOM     15  C   UNL     1      17.776   7.131  20.350  0.00  0.00    -0.022 C 
ATOM     20  C   UNL     1      19.272   5.162  20.151  0.00  0.00    +0.039 C 
ENDROOT
BRANCH   9  13
ATOM     13  C   UNL     1      18.168  10.635  21.971  0.00  0.00    -0.013 C 
ATOM     18  C   UNL     1      18.356  11.288  20.606  0.00  0.00    +0.007 C 
ATOM     19  C   UNL     1      19.163  11.199  22.982  0.00  0.00    +0.007 C 
ENDBRANCH   9  13
BRANCH  10  16
ATOM     16  C   UNL     1      15.922   8.483  21.305  0.00  0.00    +0.112 C 
BRANCH  16   3
ATOM      2  O   UNL     1      14.298   6.575  19.904  0.00  0.00    -0.268 OA
ATOM      3  N   UNL     1      15.005   8.758  20.243  0.00  0.00    -0.309 N 
ATOM     22  C   UNL     1      14.253   7.767  19.615  0.00  0.00    +0.264 C 
ATOM     33  H   UNL     1      14.868   9.725  19.959  0.00  0.00    +0.149 HD
BRANCH  22  24
ATOM      6  N   UNL     1      13.660   9.396  17.938  0.00  0.00    -0.247 NA
ATOM      7  N   UNL     1      11.480   7.844  17.099  0.00  0.00    -0.259 NA
ATOM     24  C   UNL     1      13.364   8.213  18.510  0.00  0.00    +0.143 A 
ATOM     26  C   UNL     1      12.294   7.451  18.098  0.00  0.00    +0.143 A 
ATOM     29  C   UNL     1      12.846   9.791  16.939  0.00  0.00    +0.131 A 
ATOM     30  C   UNL     1      11.775   9.029  16.526  0.00  0.00    +0.130 A 
ENDBRANCH  22  24
ENDBRANCH  16   3
ENDBRANCH  10  16
BRANCH  12  17
ATOM     17  C   UNL     1      20.103   6.637  22.881  0.00  0.00    +0.105 C 
BRANCH  17  21
ATOM      1  O   UNL     1      21.613   4.741  22.590  0.00  0.00    -0.420 OA
ATOM      4  N   UNL     1      22.487   6.438  23.758  0.00  0.00    -0.112 NA
ATOM      5  N   UNL     1      23.442   5.442  23.671  0.00  0.00    -0.107 NA
ATOM     21  C   UNL     1      21.437   5.986  23.112  0.00  0.00    +0.218 A 
ATOM     23  C   UNL     1      22.888   4.472  22.981  0.00  0.00    +0.248 A 
BRANCH  23  25
ATOM      8  N   UNL     1      24.428   0.712  21.809  0.00  0.00    -0.263 NA
ATOM     25  C   UNL     1      23.410   3.196  22.583  0.00  0.00    +0.041 A 
ATOM     27  C   UNL     1      23.542   2.887  21.235  0.00  0.00    +0.033 A 
ATOM     28  C   UNL     1      23.786   2.266  23.545  0.00  0.00    +0.033 A 
ATOM     31  C   UNL     1      24.052   1.641  20.902  0.00  0.00    +0.111 A 
ATOM     32  C   UNL     1      24.285   1.049  23.110  0.00  0.00    +0.111 A 
ENDBRANCH  23  25
ENDBRANCH  17  21
ENDBRANCH  12  17
TORSDOF 7
ENDMDL
MODEL 2
REMARK VINA RESULT:      -6.8     28.262     31.951
REMARK  Name = 45784144
REMARK  10 active torsions:
REMARK  status: ('A' for Active; 'I' for Inactive)
REMARK    1  A    between atoms: N_3  and  C_16
REMARK    2  A    between atoms: C_9  and  C_13
REMARK    3  A    between atoms: C_10  and  C_16
REMARK    4  A    between atoms: C_12  and  C_17
REMARK    5  A    between atoms: C_13  and  C_18
REMARK    6  A    between atoms: C_13  and  C_19
REMARK    7  A    between atoms: C_14  and  C_20
REMARK    8  A    between atoms: C_17  and  C_21
REMARK    9  A    between atoms: C_22  and  C_24
REMARK   10  A    between atoms: C_23  and  C_25
REMARK                            x       y       z     vdW  Elec       q    Type
REMARK                         _______ _______ _______ _____ _____    ______ ____
ROOT
ATOM      9  C   UNL     1      -3.152 -12.283  12.940  0.00  0.00    +0.000 C 
ATOM     10  C   UNL     1      -2.030 -11.218  12.866  0.00  0.00    +0.032 C 
ATOM     11  C   UNL     1      -3.648 -12.638  11.529  0.00  0.00    +0.012 C 
ATOM     12  C   UNL     1      -4.190 -11.409  10.776  0.00  0.00    +0.024 C 
ATOM     14  C   UNL     1      -3.254 -10.223  10.885  0.00  0.00    -0.073 C 
ATOM     15  C   UNL     1      -2.285 -10.160  11.816  0.00  0.00    -0.022 C 
ATOM     20  C   UNL     1      -3.425  -9.129   9.868  0.00  0.00    +0.039 C 
ENDROOT
BRANCH   9  13
ATOM     13  C   UNL     1      -2.684 -13.551  13.660  0.00  0.00    -0.013 C 
ATOM     18  C   UNL     1      -2.188 -14.583  12.653  0.00  0.00    +0.007 C 
ATOM     19  C   UNL     1      -3.813 -14.126  14.511  0.00  0.00    +0.007 C 
ENDBRANCH   9  13
BRANCH  10  16
ATOM     16  C   UNL     1      -1.815 -10.545  14.226  0.00  0.00    +0.112 C 
BRANCH  16   3
ATOM      2  O   UNL     1      -2.400 -11.064  16.989  0.00  0.00    -0.268 OA
ATOM      3  N   UNL     1      -3.064 -10.332  14.889  0.00  0.00    -0.309 N 
ATOM     22  C   UNL     1      -3.262 -10.613  16.241  0.00  0.00    +0.264 C 
ATOM     33  H   UNL     1      -3.829  -9.921  14.362  0.00  0.00    +0.149 HD
BRANCH  22  24
ATOM      6  N   UNL     1      -5.501  -9.768  15.938  0.00  0.00    -0.247 NA
ATOM      7  N   UNL     1      -6.203 -10.488  18.556  0.00  0.00    -0.259 NA
ATOM     24  C   UNL     1      -4.626 -10.360  16.774  0.00  0.00    +0.143 A 
ATOM     26  C   UNL     1      -4.971 -10.714  18.059  0.00  0.00    +0.143 A 
ATOM     29  C   UNL     1      -6.734  -9.543  16.433  0.00  0.00    +0.131 A 
ATOM     30  C   UNL     1      -7.079  -9.896  17.719  0.00  0.00    +0.130 A 
ENDBRANCH  22  24
ENDBRANCH  16   3
ENDBRANCH  10  16
BRANCH  12  17
ATOM     17  C   UNL     1      -5.598 -11.043  11.258  0.00  0.00    +0.105 C 
BRANCH  17  21
ATOM      1  O   UNL     1      -7.082  -9.373  10.274  0.00  0.00    -0.420 OA
ATOM      4  N   UNL     1      -6.725 -11.160   8.976  0.00  0.00    -0.112 NA
ATOM      5  N   UNL     1      -7.574 -10.304   8.300  0.00  0.00    -0.107 NA
ATOM     21  C   UNL     1      -6.463 -10.576  10.121  0.00  0.00    +0.218 A 
ATOM     23  C   UNL     1      -7.755  -9.276   9.096  0.00  0.00    +0.248 A 
BRANCH  23  25
ATOM      8  N   UNL     1     -10.063  -5.770   8.572  0.00  0.00    -0.263 NA
ATOM     25  C   UNL     1      -8.538  -8.087   8.917  0.00  0.00    +0.041 A 
ATOM     27  C   UNL     1      -9.861  -8.052   9.343  0.00  0.00    +0.033 A 
ATOM     28  C   UNL     1      -7.976  -6.965   8.319  0.00  0.00    +0.033 A 
ATOM     31  C   UNL     1     -10.574  -6.879   9.149  0.00  0.00    +0.111 A 
ATOM     32  C   UNL     1      -8.773  -5.841   8.171  0.00  0.00    +0.111 A 
ENDBRANCH  23  25
ENDBRANCH  17  21
ENDBRANCH  12  17
TORSDOF 7
ENDMDL
MODEL 3
REMARK VINA RESULT:      -6.7     29.037     31.664
REMARK  Name = 45784144
REMARK  10 active torsions:
REMARK  status: ('A' for Active; 'I' for Inactive)
REMARK    1  A    between atoms: N_3  and  C_16
REMARK    2  A    between atoms: C_9  and  C_13
REMARK    3  A    between atoms: C_10  and  C_16
REMARK    4  A    between atoms: C_12  and  C_17
REMARK    5  A    between atoms: C_13  and  C_18
REMARK    6  A    between atoms: C_13  and  C_19
REMARK    7  A    between atoms: C_14  and  C_20
REMARK    8  A    between atoms: C_17  and  C_21
REMARK    9  A    between atoms: C_22  and  C_24
REMARK   10  A    between atoms: C_23  and  C_25
REMARK                            x       y       z     vdW  Elec       q    Type
REMARK                         _______ _______ _______ _____ _____    ______ ____
ROOT
ATOM      9  C   UNL     1      -6.398 -11.079  16.148  0.00  0.00    +0.000 C 
ATOM     10  C   UNL     1      -6.925 -11.078  17.604  0.00  0.00    +0.032 C 
ATOM     11  C   UNL     1      -5.376 -12.210  15.948  0.00  0.00    +0.012 C 
ATOM     12  C   UNL     1      -4.174 -12.083  16.901  0.00  0.00    +0.024 C 
ATOM     14  C   UNL     1      -4.610 -11.810  18.326  0.00  0.00    -0.073 C 
ATOM     15  C   UNL     1      -5.848 -11.374  18.623  0.00  0.00    -0.022 C 
ATOM     20  C   UNL     1      -3.607 -12.094  19.409  0.00  0.00    +0.039 C 
ENDROOT
BRANCH   9  13
ATOM     13  C   UNL     1      -7.536 -11.224  15.133  0.00  0.00    -0.013 C 
ATOM     18  C   UNL     1      -7.210 -12.315  14.118  0.00  0.00    +0.007 C 
ATOM     19  C   UNL     1      -7.795  -9.893  14.431  0.00  0.00    +0.007 C 
ENDBRANCH   9  13
BRANCH  10  16
ATOM     16  C   UNL     1      -7.599  -9.745  17.948  0.00  0.00    +0.112 C 
BRANCH  16   3
ATOM      2  O   UNL     1      -9.881  -8.202  17.141  0.00  0.00    -0.268 OA
ATOM      3  N   UNL     1      -8.956  -9.952  18.350  0.00  0.00    -0.309 N 
ATOM     22  C   UNL     1     -10.008  -9.151  17.908  0.00  0.00    +0.264 C 
ATOM     33  H   UNL     1      -9.167 -10.742  18.953  0.00  0.00    +0.149 HD
BRANCH  22  24
ATOM      6  N   UNL     1     -12.402  -9.233  17.625  0.00  0.00    -0.247 NA
ATOM      7  N   UNL     1     -12.739 -10.317  20.190  0.00  0.00    -0.259 NA
ATOM     24  C   UNL     1     -11.356  -9.482  18.438  0.00  0.00    +0.143 A 
ATOM     26  C   UNL     1     -11.522 -10.014  19.697  0.00  0.00    +0.143 A 
ATOM     29  C   UNL     1     -13.620  -9.536  18.117  0.00  0.00    +0.131 A 
ATOM     30  C   UNL     1     -13.786 -10.068  19.377  0.00  0.00    +0.130 A 
ENDBRANCH  22  24
ENDBRANCH  16   3
ENDBRANCH  10  16
BRANCH  12  17
ATOM     17  C   UNL     1      -3.193 -11.011  16.413  0.00  0.00    +0.105 C 
BRANCH  17  21
ATOM      1  O   UNL     1      -3.687 -10.350  14.116  0.00  0.00    -0.420 OA
ATOM      4  N   UNL     1      -2.080 -11.895  14.300  0.00  0.00    -0.112 NA
ATOM      5  N   UNL     1      -2.254 -11.618  12.956  0.00  0.00    -0.107 NA
ATOM     21  C   UNL     1      -2.935 -11.133  14.938  0.00  0.00    +0.218 A 
ATOM     23  C   UNL     1      -3.202 -10.711  12.898  0.00  0.00    +0.248 A 
BRANCH  23  25
ATOM      8  N   UNL     1      -4.944  -8.776   9.564  0.00  0.00    -0.263 NA
ATOM     25  C   UNL     1      -3.793 -10.054  11.767  0.00  0.00    +0.041 A 
ATOM     27  C   UNL     1      -3.017  -9.745  10.655  0.00  0.00    +0.033 A 
ATOM     28  C   UNL     1      -5.143  -9.725  11.779  0.00  0.00    +0.033 A 
ATOM     31  C   UNL     1      -3.635  -9.111   9.589  0.00  0.00    +0.111 A 
ATOM     32  C   UNL     1      -5.666  -9.093  10.663  0.00  0.00    +0.111 A 
ENDBRANCH  23  25
ENDBRANCH  17  21
ENDBRANCH  12  17
TORSDOF 7
ENDMDL
MODEL 4
REMARK VINA RESULT:      -6.6     28.326     31.905
REMARK  Name = 45784144
REMARK  10 active torsions:
REMARK  status: ('A' for Active; 'I' for Inactive)
REMARK    1  A    between atoms: N_3  and  C_16
REMARK    2  A    between atoms: C_9  and  C_13
REMARK    3  A    between atoms: C_10  and  C_16
REMARK    4  A    between atoms: C_12  and  C_17
REMARK    5  A    between atoms: C_13  and  C_18
REMARK    6  A    between atoms: C_13  and  C_19
REMARK    7  A    between atoms: C_14  and  C_20
REMARK    8  A    between atoms: C_17  and  C_21
REMARK    9  A    between atoms: C_22  and  C_24
REMARK   10  A    between atoms: C_23  and  C_25
REMARK                            x       y       z     vdW  Elec       q    Type
REMARK                         _______ _______ _______ _____ _____    ______ ____
ROOT
ATOM      9  C   UNL     1      -3.093 -12.305  12.592  0.00  0.00    +0.000 C 
ATOM     10  C   UNL     1      -1.962 -11.247  12.592  0.00  0.00    +0.032 C 
ATOM     11  C   UNL     1      -3.602 -12.548  11.162  0.00  0.00    +0.012 C 
ATOM     12  C   UNL     1      -4.138 -11.261  10.509  0.00  0.00    +0.024 C 
ATOM     14  C   UNL     1      -3.191 -10.094  10.701  0.00  0.00    -0.073 C 
ATOM     15  C   UNL     1      -2.216 -10.110  11.627  0.00  0.00    -0.022 C 
ATOM     20  C   UNL     1      -3.360  -8.924   9.772  0.00  0.00    +0.039 C 
ENDROOT
BRANCH   9  13
ATOM     13  C   UNL     1      -2.632 -13.629  13.210  0.00  0.00    -0.013 C 
ATOM     18  C   UNL     1      -2.557 -14.717  12.144  0.00  0.00    +0.007 C 
ATOM     19  C   UNL     1      -3.569 -14.043  14.341  0.00  0.00    +0.007 C 
ENDBRANCH   9  13
BRANCH  10  16
ATOM     16  C   UNL     1      -1.732 -10.681  13.997  0.00  0.00    +0.112 C 
BRANCH  16   3
ATOM      2  O   UNL     1      -2.236 -11.008  16.805  0.00  0.00    -0.268 OA
ATOM      3  N   UNL     1      -2.976 -10.476  14.671  0.00  0.00    -0.309 N 
ATOM     22  C   UNL     1      -3.134 -10.658  16.044  0.00  0.00    +0.264 C 
ATOM     33  H   UNL     1      -3.771 -10.144  14.131  0.00  0.00    +0.149 HD
BRANCH  22  24
ATOM      6  N   UNL     1      -5.381  -9.825  15.768  0.00  0.00    -0.247 NA
ATOM      7  N   UNL     1      -6.067 -10.608  18.373  0.00  0.00    -0.259 NA
ATOM     24  C   UNL     1      -4.498 -10.428  16.588  0.00  0.00    +0.143 A 
ATOM     26  C   UNL     1      -4.835 -10.812  17.867  0.00  0.00    +0.143 A 
ATOM     29  C   UNL     1      -6.614  -9.621  16.273  0.00  0.00    +0.131 A 
ATOM     30  C   UNL     1      -6.951 -10.005  17.552  0.00  0.00    +0.130 A 
ENDBRANCH  22  24
ENDBRANCH  16   3
ENDBRANCH  10  16
BRANCH  12  17
ATOM     17  C   UNL     1      -5.540 -10.920  11.028  0.00  0.00    +0.105 C 
BRANCH  17  21
ATOM      1  O   UNL     1      -6.238 -10.328   8.765  0.00  0.00    -0.420 OA
ATOM      4  N   UNL     1      -6.939  -8.905  10.343  0.00  0.00    -0.112 NA
ATOM      5  N   UNL     1      -7.403  -8.452   9.122  0.00  0.00    -0.107 NA
ATOM     21  C   UNL     1      -6.266 -10.002  10.087  0.00  0.00    +0.218 A 
ATOM     23  C   UNL     1      -6.969  -9.313   8.231  0.00  0.00    +0.248 A 
BRANCH  23  25
ATOM      8  N   UNL     1      -7.485  -9.415   4.034  0.00  0.00    -0.263 NA
ATOM     25  C   UNL     1      -7.145  -9.348   6.808  0.00  0.00    +0.041 A 
ATOM     27  C   UNL     1      -7.765  -8.289   6.155  0.00  0.00    +0.033 A 
ATOM     28  C   UNL     1      -6.694 -10.441   6.076  0.00  0.00    +0.033 A 
ATOM     31  C   UNL     1      -7.910  -8.370   4.779  0.00  0.00    +0.111 A 
ATOM     32  C   UNL     1      -6.887 -10.426   4.704  0.00  0.00    +0.111 A 
ENDBRANCH  23  25
ENDBRANCH  17  21
ENDBRANCH  12  17
TORSDOF 7
ENDMDL
MODEL 5
REMARK VINA RESULT:      -6.6     28.876     33.523
REMARK  Name = 45784144
REMARK  10 active torsions:
REMARK  status: ('A' for Active; 'I' for Inactive)
REMARK    1  A    between atoms: N_3  and  C_16
REMARK    2  A    between atoms: C_9  and  C_13
REMARK    3  A    between atoms: C_10  and  C_16
REMARK    4  A    between atoms: C_12  and  C_17
REMARK    5  A    between atoms: C_13  and  C_18
REMARK    6  A    between atoms: C_13  and  C_19
REMARK    7  A    between atoms: C_14  and  C_20
REMARK    8  A    between atoms: C_17  and  C_21
REMARK    9  A    between atoms: C_22  and  C_24
REMARK   10  A    between atoms: C_23  and  C_25
REMARK                            x       y       z     vdW  Elec       q    Type
REMARK                         _______ _______ _______ _____ _____    ______ ____
ROOT
ATOM      9  C   UNL     1     -10.326  -9.668  18.423  0.00  0.00    +0.000 C 
ATOM     10  C   UNL     1     -11.218 -10.650  19.223  0.00  0.00    +0.032 C 
ATOM     11  C   UNL     1      -9.295 -10.439  17.586  0.00  0.00    +0.012 C 
ATOM     12  C   UNL     1      -8.385 -11.326  18.456  0.00  0.00    +0.024 C 
ATOM     14  C   UNL     1      -9.179 -12.134  19.462  0.00  0.00    -0.073 C 
ATOM     15  C   UNL     1     -10.448 -11.825  19.783  0.00  0.00    -0.022 C 
ATOM     20  C   UNL     1      -8.497 -13.333  20.059  0.00  0.00    +0.039 C 
ENDROOT
BRANCH   9  13
ATOM     13  C   UNL     1     -11.158  -8.759  17.513  0.00  0.00    -0.013 C 
ATOM     18  C   UNL     1     -11.703  -9.548  16.327  0.00  0.00    +0.007 C 
ATOM     19  C   UNL     1     -10.322  -7.575  17.036  0.00  0.00    +0.007 C 
ENDBRANCH   9  13
BRANCH  10  16
ATOM     16  C   UNL     1     -11.951  -9.932  20.362  0.00  0.00    +0.112 C 
BRANCH  16   3
ATOM      2  O   UNL     1     -14.748 -10.507  20.658  0.00  0.00    -0.268 OA
ATOM      3  N   UNL     1     -12.538 -10.876  21.261  0.00  0.00    -0.309 N 
ATOM     22  C   UNL     1     -13.913 -11.093  21.341  0.00  0.00    +0.264 C 
ATOM     33  H   UNL     1     -11.923 -11.441  21.840  0.00  0.00    +0.149 HD
BRANCH  22  24
ATOM      6  N   UNL     1     -15.692 -12.320  22.412  0.00  0.00    -0.247 NA
ATOM      7  N   UNL     1     -13.869 -13.647  24.080  0.00  0.00    -0.259 NA
ATOM     24  C   UNL     1     -14.366 -12.090  22.345  0.00  0.00    +0.143 A 
ATOM     26  C   UNL     1     -13.471 -12.742  23.164  0.00  0.00    +0.143 A 
ATOM     29  C   UNL     1     -16.091 -13.225  23.327  0.00  0.00    +0.131 A 
ATOM     30  C   UNL     1     -15.196 -13.877  24.147  0.00  0.00    +0.130 A 
ENDBRANCH  22  24
ENDBRANCH  16   3
ENDBRANCH  10  16
BRANCH  12  17
ATOM     17  C   UNL     1      -7.304 -10.492  19.153  0.00  0.00    +0.105 C 
BRANCH  17  21
ATOM      1  O   UNL     1      -5.511 -10.531  17.497  0.00  0.00    -0.420 OA
ATOM      4  N   UNL     1      -5.036 -11.628  19.388  0.00  0.00    -0.112 NA
ATOM      5  N   UNL     1      -3.942 -11.731  18.549  0.00  0.00    -0.107 NA
ATOM     21  C   UNL     1      -5.925 -10.920  18.734  0.00  0.00    +0.218 A 
ATOM     23  C   UNL     1      -4.265 -11.077  17.458  0.00  0.00    +0.248 A 
BRANCH  23  25
ATOM      8  N   UNL     1      -2.067 -10.415  13.904  0.00  0.00    -0.263 NA
ATOM     25  C   UNL     1      -3.519 -10.851  16.252  0.00  0.00    +0.041 A 
ATOM     27  C   UNL     1      -2.147 -10.639  16.310  0.00  0.00    +0.033 A 
ATOM     28  C   UNL     1      -4.167 -10.846  15.022  0.00  0.00    +0.033 A 
ATOM     31  C   UNL     1      -1.472 -10.427  15.118  0.00  0.00    +0.111 A 
ATOM     32  C   UNL     1      -3.403 -10.625  13.888  0.00  0.00    +0.111 A 
ENDBRANCH  23  25
ENDBRANCH  17  21
ENDBRANCH  12  17
TORSDOF 7
ENDMDL
MODEL 6
REMARK VINA RESULT:      -6.5     28.388     31.520
REMARK  Name = 45784144
REMARK  10 active torsions:
REMARK  status: ('A' for Active; 'I' for Inactive)
REMARK    1  A    between atoms: N_3  and  C_16
REMARK    2  A    between atoms: C_9  and  C_13
REMARK    3  A    between atoms: C_10  and  C_16
REMARK    4  A    between atoms: C_12  and  C_17
REMARK    5  A    between atoms: C_13  and  C_18
REMARK    6  A    between atoms: C_13  and  C_19
REMARK    7  A    between atoms: C_14  and  C_20
REMARK    8  A    between atoms: C_17  and  C_21
REMARK    9  A    between atoms: C_22  and  C_24
REMARK   10  A    between atoms: C_23  and  C_25
REMARK                            x       y       z     vdW  Elec       q    Type
REMARK                         _______ _______ _______ _____ _____    ______ ____
ROOT
ATOM      9  C   UNL     1      -3.048 -12.316  13.643  0.00  0.00    +0.000 C 
ATOM     10  C   UNL     1      -1.927 -11.337  14.073  0.00  0.00    +0.032 C 
ATOM     11  C   UNL     1      -2.930 -12.643  12.146  0.00  0.00    +0.012 C 
ATOM     12  C   UNL     1      -3.018 -11.383  11.266  0.00  0.00    +0.024 C 
ATOM     14  C   UNL     1      -2.133 -10.268  11.786  0.00  0.00    -0.073 C 
ATOM     15  C   UNL     1      -1.643 -10.271  13.039  0.00  0.00    -0.022 C 
ATOM     20  C   UNL     1      -1.785  -9.172  10.819  0.00  0.00    +0.039 C 
ENDROOT
BRANCH   9  13
ATOM     13  C   UNL     1      -3.017 -13.610  14.461  0.00  0.00    -0.013 C 
ATOM     18  C   UNL     1      -1.976 -14.572  13.897  0.00  0.00    +0.007 C 
ATOM     19  C   UNL     1      -4.398 -14.260  14.483  0.00  0.00    +0.007 C 
ENDBRANCH   9  13
BRANCH  10  16
ATOM     16  C   UNL     1      -2.256 -10.672  15.414  0.00  0.00    +0.112 C 
BRANCH  16   3
ATOM      2  O   UNL     1      -4.052 -11.277  17.571  0.00  0.00    -0.268 OA
ATOM      3  N   UNL     1      -3.644 -10.340  15.488  0.00  0.00    -0.309 N 
ATOM     22  C   UNL     1      -4.447 -10.673  16.578  0.00  0.00    +0.264 C 
ATOM     33  H   UNL     1      -4.055  -9.802  14.730  0.00  0.00    +0.149 HD
BRANCH  22  24
ATOM      6  N   UNL     1      -6.431 -10.284  15.262  0.00  0.00    -0.247 NA
ATOM      7  N   UNL     1      -7.890  -9.560  17.545  0.00  0.00    -0.259 NA
ATOM     24  C   UNL     1      -5.877 -10.278  16.490  0.00  0.00    +0.143 A 
ATOM     26  C   UNL     1      -6.593  -9.922  17.611  0.00  0.00    +0.143 A 
ATOM     29  C   UNL     1      -7.727  -9.922  15.195  0.00  0.00    +0.131 A 
ATOM     30  C   UNL     1      -8.444  -9.566  16.316  0.00  0.00    +0.130 A 
ENDBRANCH  22  24
ENDBRANCH  16   3
ENDBRANCH  10  16
BRANCH  12  17
ATOM     17  C   UNL     1      -4.469 -10.909  11.123  0.00  0.00    +0.105 C 
BRANCH  17  21
ATOM      1  O   UNL     1      -4.375 -11.580   8.777  0.00  0.00    -0.420 OA
ATOM      4  N   UNL     1      -5.528  -9.698   9.148  0.00  0.00    -0.112 NA
ATOM      5  N   UNL     1      -5.558  -9.957   7.790  0.00  0.00    -0.107 NA
ATOM     21  C   UNL     1      -4.829 -10.671   9.684  0.00  0.00    +0.218 A 
ATOM     23  C   UNL     1      -4.872 -11.064   7.621  0.00  0.00    +0.248 A 
BRANCH  23  25
ATOM      8  N   UNL     1      -3.987 -13.235   4.100  0.00  0.00    -0.263 NA
ATOM     25  C   UNL     1      -4.571 -11.800   6.426  0.00  0.00    +0.041 A 
ATOM     27  C   UNL     1      -3.707 -12.888   6.476  0.00  0.00    +0.033 A 
ATOM     28  C   UNL     1      -5.144 -11.428   5.215  0.00  0.00    +0.033 A 
ATOM     31  C   UNL     1      -3.450 -13.566   5.295  0.00  0.00    +0.111 A 
ATOM     32  C   UNL     1      -4.823 -12.172   4.091  0.00  0.00    +0.111 A 
ENDBRANCH  23  25
ENDBRANCH  17  21
ENDBRANCH  12  17
TORSDOF 7
ENDMDL
MODEL 7
REMARK VINA RESULT:      -6.5     27.952     31.840
REMARK  Name = 45784144
REMARK  10 active torsions:
REMARK  status: ('A' for Active; 'I' for Inactive)
REMARK    1  A    between atoms: N_3  and  C_16
REMARK    2  A    between atoms: C_9  and  C_13
REMARK    3  A    between atoms: C_10  and  C_16
REMARK    4  A    between atoms: C_12  and  C_17
REMARK    5  A    between atoms: C_13  and  C_18
REMARK    6  A    between atoms: C_13  and  C_19
REMARK    7  A    between atoms: C_14  and  C_20
REMARK    8  A    between atoms: C_17  and  C_21
REMARK    9  A    between atoms: C_22  and  C_24
REMARK   10  A    between atoms: C_23  and  C_25
REMARK                            x       y       z     vdW  Elec       q    Type
REMARK                         _______ _______ _______ _____ _____    ______ ____
ROOT
ATOM      9  C   UNL     1      -4.110 -11.274  12.519  0.00  0.00    +0.000 C 
ATOM     10  C   UNL     1      -2.846 -11.178  13.408  0.00  0.00    +0.032 C 
ATOM     11  C   UNL     1      -3.717 -11.354  11.035  0.00  0.00    +0.012 C 
ATOM     12  C   UNL     1      -2.895 -10.133  10.584  0.00  0.00    +0.024 C 
ATOM     14  C   UNL     1      -1.783  -9.809  11.561  0.00  0.00    -0.073 C 
ATOM     15  C   UNL     1      -1.771 -10.296  12.815  0.00  0.00    -0.022 C 
ATOM     20  C   UNL     1      -0.660  -8.950  11.051  0.00  0.00    +0.039 C 
ENDROOT
BRANCH   9  13
ATOM     13  C   UNL     1      -4.976 -12.481  12.891  0.00  0.00    -0.013 C 
ATOM     18  C   UNL     1      -4.245 -13.780  12.572  0.00  0.00    +0.007 C 
ATOM     19  C   UNL     1      -6.315 -12.421  12.161  0.00  0.00    +0.007 C 
ENDBRANCH   9  13
BRANCH  10  16
ATOM     16  C   UNL     1      -3.195 -10.680  14.815  0.00  0.00    +0.112 C 
BRANCH  16   3
ATOM      2  O   UNL     1      -4.754 -10.365  17.206  0.00  0.00    -0.268 OA
ATOM      3  N   UNL     1      -4.574 -10.307  14.893  0.00  0.00    -0.309 N 
ATOM     22  C   UNL     1      -5.256 -10.176  16.102  0.00  0.00    +0.264 C 
ATOM     33  H   UNL     1      -5.066 -10.089  14.032  0.00  0.00    +0.149 HD
BRANCH  22  24
ATOM      6  N   UNL     1      -7.256  -9.294  17.124  0.00  0.00    -0.247 NA
ATOM      7  N   UNL     1      -8.711  -9.652  14.753  0.00  0.00    -0.259 NA
ATOM     24  C   UNL     1      -6.693  -9.806  16.011  0.00  0.00    +0.143 A 
ATOM     26  C   UNL     1      -7.407  -9.982  14.847  0.00  0.00    +0.143 A 
ATOM     29  C   UNL     1      -8.559  -8.964  17.030  0.00  0.00    +0.131 A 
ATOM     30  C   UNL     1      -9.274  -9.140  15.865  0.00  0.00    +0.130 A 
ENDBRANCH  22  24
ENDBRANCH  16   3
ENDBRANCH  10  16
BRANCH  12  17
ATOM     17  C   UNL     1      -3.796  -8.914  10.355  0.00  0.00    +0.105 C 
BRANCH  17  21
ATOM      1  O   UNL     1      -4.649  -9.756   8.228  0.00  0.00    -0.420 OA
ATOM      4  N   UNL     1      -6.240  -9.120   9.668  0.00  0.00    -0.112 NA
ATOM      5  N   UNL     1      -6.860  -9.571   8.517  0.00  0.00    -0.107 NA
ATOM     21  C   UNL     1      -4.951  -9.247   9.455  0.00  0.00    +0.218 A 
ATOM     23  C   UNL     1      -5.893  -9.931   7.706  0.00  0.00    +0.248 A 
BRANCH  23  25
ATOM      8  N   UNL     1      -6.043 -11.524   3.790  0.00  0.00    -0.263 NA
ATOM     25  C   UNL     1      -5.944 -10.472   6.378  0.00  0.00    +0.041 A 
ATOM     27  C   UNL     1      -6.900 -10.019   5.476  0.00  0.00    +0.033 A 
ATOM     28  C   UNL     1      -5.037 -11.450   5.987  0.00  0.00    +0.033 A 
ATOM     31  C   UNL     1      -6.908 -10.572   4.206  0.00  0.00    +0.111 A 
ATOM     32  C   UNL     1      -5.127 -11.939   4.694  0.00  0.00    +0.111 A 
ENDBRANCH  23  25
ENDBRANCH  17  21
ENDBRANCH  12  17
TORSDOF 7
ENDMDL
MODEL 8
REMARK VINA RESULT:      -6.4     15.789     18.939
REMARK  Name = 45784144
REMARK  10 active torsions:
REMARK  status: ('A' for Active; 'I' for Inactive)
REMARK    1  A    between atoms: N_3  and  C_16
REMARK    2  A    between atoms: C_9  and  C_13
REMARK    3  A    between atoms: C_10  and  C_16
REMARK    4  A    between atoms: C_12  and  C_17
REMARK    5  A    between atoms: C_13  and  C_18
REMARK    6  A    between atoms: C_13  and  C_19
REMARK    7  A    between atoms: C_14  and  C_20
REMARK    8  A    between atoms: C_17  and  C_21
REMARK    9  A    between atoms: C_22  and  C_24
REMARK   10  A    between atoms: C_23  and  C_25
REMARK                            x       y       z     vdW  Elec       q    Type
REMARK                         _______ _______ _______ _____ _____    ______ ____
ROOT
ATOM      9  C   UNL     1       8.875   8.554   5.596  0.00  0.00    +0.000 C 
ATOM     10  C   UNL     1       8.614   8.199   7.081  0.00  0.00    +0.032 C 
ATOM     11  C   UNL     1       8.599   7.338   4.698  0.00  0.00    +0.012 C 
ATOM     12  C   UNL     1       9.475   6.128   5.071  0.00  0.00    +0.024 C 
ATOM     14  C   UNL     1       9.483   5.877   6.565  0.00  0.00    -0.073 C 
ATOM     15  C   UNL     1       9.082   6.809   7.448  0.00  0.00    -0.022 C 
ATOM     20  C   UNL     1       9.919   4.512   7.021  0.00  0.00    +0.039 C 
ENDROOT
BRANCH   9  13
ATOM     13  C   UNL     1       8.022   9.741   5.139  0.00  0.00    -0.013 C 
ATOM     18  C   UNL     1       7.163   9.350   3.941  0.00  0.00    +0.007 C 
ATOM     19  C   UNL     1       8.910  10.935   4.800  0.00  0.00    +0.007 C 
ENDBRANCH   9  13
BRANCH  10  16
ATOM     16  C   UNL     1       9.268   9.221   8.018  0.00  0.00    +0.112 C 
BRANCH  16   3
ATOM      2  O   UNL     1      10.869  11.520   8.646  0.00  0.00    -0.268 OA
ATOM      3  N   UNL     1      10.637   9.431   7.663  0.00  0.00    -0.309 N 
ATOM     22  C   UNL     1      11.342  10.582   8.010  0.00  0.00    +0.264 C 
ATOM     33  H   UNL     1      11.129   8.691   7.170  0.00  0.00    +0.149 HD
BRANCH  22  24
ATOM      6  N   UNL     1      13.420  11.794   7.827  0.00  0.00    -0.247 NA
ATOM      7  N   UNL     1      14.612   9.678   6.424  0.00  0.00    -0.259 NA
ATOM     24  C   UNL     1      12.751  10.659   7.543  0.00  0.00    +0.143 A 
ATOM     26  C   UNL     1      13.337   9.620   6.854  0.00  0.00    +0.143 A 
ATOM     29  C   UNL     1      14.696  11.852   7.398  0.00  0.00    +0.131 A 
ATOM     30  C   UNL     1      15.282  10.813   6.708  0.00  0.00    +0.130 A 
ENDBRANCH  22  24
ENDBRANCH  16   3
ENDBRANCH  10  16
BRANCH  12  17
ATOM     17  C   UNL     1      10.902   6.293   4.535  0.00  0.00    +0.105 C 
BRANCH  17  21
ATOM      1  O   UNL     1      12.316   5.438   2.739  0.00  0.00    -0.420 OA
ATOM      4  N   UNL     1      10.667   4.052   3.347  0.00  0.00    -0.112 NA
ATOM      5  N   UNL     1      11.382   3.446   2.330  0.00  0.00    -0.107 NA
ATOM     21  C   UNL     1      11.248   5.211   3.552  0.00  0.00    +0.218 A 
ATOM     23  C   UNL     1      12.334   4.290   2.007  0.00  0.00    +0.248 A 
BRANCH  23  25
ATOM      8  N   UNL     1      15.390   4.003  -0.903  0.00  0.00    -0.263 NA
ATOM     25  C   UNL     1      13.370   4.192   1.020  0.00  0.00    +0.041 A 
ATOM     27  C   UNL     1      13.047   4.179  -0.332  0.00  0.00    +0.033 A 
ATOM     28  C   UNL     1      14.702   4.112   1.412  0.00  0.00    +0.033 A 
ATOM     31  C   UNL     1      14.085   4.083  -1.246  0.00  0.00    +0.111 A 
ATOM     32  C   UNL     1      15.665   4.020   0.421  0.00  0.00    +0.111 A 
ENDBRANCH  23  25
ENDBRANCH  17  21
ENDBRANCH  12  17
TORSDOF 7
ENDMDL
MODEL 9
REMARK VINA RESULT:      -6.4     27.729     31.978
REMARK  Name = 45784144
REMARK  10 active torsions:
REMARK  status: ('A' for Active; 'I' for Inactive)
REMARK    1  A    between atoms: N_3  and  C_16
REMARK    2  A    between atoms: C_9  and  C_13
REMARK    3  A    between atoms: C_10  and  C_16
REMARK    4  A    between atoms: C_12  and  C_17
REMARK    5  A    between atoms: C_13  and  C_18
REMARK    6  A    between atoms: C_13  and  C_19
REMARK    7  A    between atoms: C_14  and  C_20
REMARK    8  A    between atoms: C_17  and  C_21
REMARK    9  A    between atoms: C_22  and  C_24
REMARK   10  A    between atoms: C_23  and  C_25
REMARK                            x       y       z     vdW  Elec       q    Type
REMARK                         _______ _______ _______ _____ _____    ______ ____
ROOT
ATOM      9  C   UNL     1      -8.943  -9.404  16.054  0.00  0.00    +0.000 C 
ATOM     10  C   UNL     1     -10.268  -8.766  16.543  0.00  0.00    +0.032 C 
ATOM     11  C   UNL     1      -8.840 -10.860  16.532  0.00  0.00    +0.012 C 
ATOM     12  C   UNL     1      -8.899 -10.974  18.067  0.00  0.00    +0.024 C 
ATOM     14  C   UNL     1     -10.027 -10.149  18.651  0.00  0.00    -0.073 C 
ATOM     15  C   UNL     1     -10.636  -9.175  17.951  0.00  0.00    -0.022 C 
ATOM     20  C   UNL     1     -10.472 -10.498  20.044  0.00  0.00    +0.039 C 
ENDROOT
BRANCH   9  13
ATOM     13  C   UNL     1      -8.817  -9.349  14.528  0.00  0.00    -0.013 C 
ATOM     18  C   UNL     1     -10.038  -9.981  13.869  0.00  0.00    +0.007 C 
ATOM     19  C   UNL     1      -7.537 -10.046  14.076  0.00  0.00    +0.007 C 
ENDBRANCH   9  13
BRANCH  10  16
ATOM     16  C   UNL     1     -10.212  -7.237  16.455  0.00  0.00    +0.112 C 
BRANCH  16   3
ATOM      2  O   UNL     1     -12.846  -6.216  15.940  0.00  0.00    -0.268 OA
ATOM      3  N   UNL     1     -10.722  -6.783  15.198  0.00  0.00    -0.309 N 
ATOM     22  C   UNL     1     -12.020  -6.300  15.036  0.00  0.00    +0.264 C 
ATOM     33  H   UNL     1     -10.098  -6.776  14.396  0.00  0.00    +0.149 HD
BRANCH  22  24
ATOM      6  N   UNL     1     -12.191  -4.601  13.332  0.00  0.00    -0.247 NA
ATOM      7  N   UNL     1     -13.307  -6.430  11.521  0.00  0.00    -0.259 NA
ATOM     24  C   UNL     1     -12.404  -5.891  13.660  0.00  0.00    +0.143 A 
ATOM     26  C   UNL     1     -12.952  -6.788  12.771  0.00  0.00    +0.143 A 
ATOM     29  C   UNL     1     -12.545  -4.242  12.083  0.00  0.00    +0.131 A 
ATOM     30  C   UNL     1     -13.094  -5.139  11.193  0.00  0.00    +0.130 A 
ENDBRANCH  22  24
ENDBRANCH  16   3
ENDBRANCH  10  16
BRANCH  12  17
ATOM     17  C   UNL     1      -7.556 -10.594  18.701  0.00  0.00    +0.105 C 
BRANCH  17  21
ATOM      1  O   UNL     1      -5.604 -10.583  17.235  0.00  0.00    -0.420 OA
ATOM      4  N   UNL     1      -6.067 -12.581  18.130  0.00  0.00    -0.112 NA
ATOM      5  N   UNL     1      -4.948 -12.720  17.330  0.00  0.00    -0.107 NA
ATOM     21  C   UNL     1      -6.414 -11.318  18.045  0.00  0.00    +0.218 A 
ATOM     23  C   UNL     1      -4.715 -11.529  16.829  0.00  0.00    +0.248 A 
BRANCH  23  25
ATOM      8  N   UNL     1      -1.683 -10.204  14.194  0.00  0.00    -0.263 NA
ATOM     25  C   UNL     1      -3.686 -11.081  15.935  0.00  0.00    +0.041 A 
ATOM     27  C   UNL     1      -3.956 -10.931  14.579  0.00  0.00    +0.033 A 
ATOM     28  C   UNL     1      -2.417 -10.792  16.421  0.00  0.00    +0.033 A 
ATOM     31  C   UNL     1      -2.929 -10.494  13.758  0.00  0.00    +0.111 A 
ATOM     32  C   UNL     1      -1.459 -10.360  15.518  0.00  0.00    +0.111 A 
ENDBRANCH  23  25
ENDBRANCH  17  21
ENDBRANCH  12  17
TORSDOF 7
ENDMDL
MODEL 10
REMARK VINA RESULT:      -6.4     28.054     31.319
REMARK  Name = 45784144
REMARK  10 active torsions:
REMARK  status: ('A' for Active; 'I' for Inactive)
REMARK    1  A    between atoms: N_3  and  C_16
REMARK    2  A    between atoms: C_9  and  C_13
REMARK    3  A    between atoms: C_10  and  C_16
REMARK    4  A    between atoms: C_12  and  C_17
REMARK    5  A    between atoms: C_13  and  C_18
REMARK    6  A    between atoms: C_13  and  C_19
REMARK    7  A    between atoms: C_14  and  C_20
REMARK    8  A    between atoms: C_17  and  C_21
REMARK    9  A    between atoms: C_22  and  C_24
REMARK   10  A    between atoms: C_23  and  C_25
REMARK                            x       y       z     vdW  Elec       q    Type
REMARK                         _______ _______ _______ _____ _____    ______ ____
ROOT
ATOM      9  C   UNL     1      -5.417 -10.782  10.994  0.00  0.00    +0.000 C 
ATOM     10  C   UNL     1      -4.834 -10.221   9.673  0.00  0.00    +0.032 C 
ATOM     11  C   UNL     1      -4.933  -9.948  12.191  0.00  0.00    +0.012 C 
ATOM     12  C   UNL     1      -3.397  -9.929  12.304  0.00  0.00    +0.024 C 
ATOM     14  C   UNL     1      -2.737  -9.645  10.970  0.00  0.00    -0.073 C 
ATOM     15  C   UNL     1      -3.398  -9.767   9.805  0.00  0.00    -0.022 C 
ATOM     20  C   UNL     1      -1.311  -9.170  11.007  0.00  0.00    +0.039 C 
ENDROOT
BRANCH   9  13
ATOM     13  C   UNL     1      -6.948 -10.815  10.970  0.00  0.00    -0.013 C 
ATOM     18  C   UNL     1      -7.516  -9.448  11.337  0.00  0.00    +0.007 C 
ATOM     19  C   UNL     1      -7.471 -11.890  11.919  0.00  0.00    +0.007 C 
ENDBRANCH   9  13
BRANCH  10  16
ATOM     16  C   UNL     1      -4.942 -11.247   8.540  0.00  0.00    +0.112 C 
BRANCH  16   3
ATOM      2  O   UNL     1      -4.446 -11.485   5.722  0.00  0.00    -0.268 OA
ATOM      3  N   UNL     1      -5.766 -10.750   7.482  0.00  0.00    -0.309 N 
ATOM     22  C   UNL     1      -5.449 -10.910   6.134  0.00  0.00    +0.264 C 
ATOM     33  H   UNL     1      -6.642 -10.294   7.724  0.00  0.00    +0.149 HD
BRANCH  22  24
ATOM      6  N   UNL     1      -6.748 -11.083   4.109  0.00  0.00    -0.247 NA
ATOM      7  N   UNL     1      -7.744  -8.482   4.442  0.00  0.00    -0.259 NA
ATOM     24  C   UNL     1      -6.396 -10.313   5.158  0.00  0.00    +0.143 A 
ATOM     26  C   UNL     1      -6.886  -9.036   5.321  0.00  0.00    +0.143 A 
ATOM     29  C   UNL     1      -7.607 -10.531   3.230  0.00  0.00    +0.131 A 
ATOM     30  C   UNL     1      -8.096  -9.253   3.393  0.00  0.00    +0.130 A 
ENDBRANCH  22  24
ENDBRANCH  16   3
ENDBRANCH  10  16
BRANCH  12  17
ATOM     17  C   UNL     1      -2.871 -11.236  12.908  0.00  0.00    +0.105 C 
BRANCH  17  21
ATOM      1  O   UNL     1      -3.859 -11.173  15.140  0.00  0.00    -0.420 OA
ATOM      4  N   UNL     1      -1.629 -10.993  15.119  0.00  0.00    -0.112 NA
ATOM      5  N   UNL     1      -2.049 -10.944  16.435  0.00  0.00    -0.107 NA
ATOM     21  C   UNL     1      -2.718 -11.129  14.399  0.00  0.00    +0.218 A 
ATOM     23  C   UNL     1      -3.357 -11.052  16.398  0.00  0.00    +0.248 A 
BRANCH  23  25
ATOM      8  N   UNL     1      -6.196 -11.082  19.533  0.00  0.00    -0.263 NA
ATOM     25  C   UNL     1      -4.320 -11.063  17.462  0.00  0.00    +0.041 A 
ATOM     27  C   UNL     1      -4.050 -11.748  18.641  0.00  0.00    +0.033 A 
ATOM     28  C   UNL     1      -5.527 -10.388  17.317  0.00  0.00    +0.033 A 
ATOM     31  C   UNL     1      -5.013 -11.727  19.638  0.00  0.00    +0.111 A 
ATOM     32  C   UNL     1      -6.423 -10.427  18.372  0.00  0.00    +0.111 A 
ENDBRANCH  23  25
ENDBRANCH  17  21
ENDBRANCH  12  17
TORSDOF 7
ENDMDL
