MODEL 1
REMARK VINA RESULT:      -7.1      0.000      0.000
REMARK  Name = 25390790
REMARK  9 active torsions:
REMARK  status: ('A' for Active; 'I' for Inactive)
REMARK    1  A    between atoms: O_3  and  C_13
REMARK    2  A    between atoms: O_3  and  C_16
REMARK    3  A    between atoms: O_5  and  C_29
REMARK    4  A    between atoms: O_5  and  C_30
REMARK    5  A    between atoms: N_6  and  C_12
REMARK    6  A    between atoms: N_9  and  C_23
REMARK    7  A    between atoms: N_9  and  C_24
REMARK    8  A    between atoms: C_16  and  C_18
REMARK    9  A    between atoms: C_19  and  C_22
REMARK                            x       y       z     vdW  Elec       q    Type
REMARK                         _______ _______ _______ _____ _____    ______ ____
ROOT
ATOM      6  N   UNL     1      -3.761 -10.521  12.450  0.00  0.00    -0.306 N 
ATOM      7  N   UNL     1      -4.211 -10.616  14.727  0.00  0.00    -0.214 NA
ATOM      8  N   UNL     1      -1.950 -10.501  13.902  0.00  0.00    -0.223 NA
ATOM     17  C   UNL     1      -3.287 -10.546  13.750  0.00  0.00    +0.216 A 
ATOM     19  C   UNL     1      -3.713 -10.641  15.981  0.00  0.00    +0.076 A 
ATOM     20  C   UNL     1      -1.521 -10.530  15.181  0.00  0.00    +0.116 A 
ATOM     21  C   UNL     1      -2.364 -10.600  16.271  0.00  0.00    +0.048 A 
ATOM     31  H   UNL     1      -3.070 -10.524  11.709  0.00  0.00    +0.149 HD
ENDROOT
BRANCH   6  12
ATOM      1  O   UNL     1      -5.613  -8.564  10.897  0.00  0.00    -0.369 OA
ATOM      2  O   UNL     1      -6.679 -11.400  10.414  0.00  0.00    -0.369 OA
ATOM     10  C   UNL     1      -5.344 -10.907  10.648  0.00  0.00    +0.172 C 
ATOM     11  C   UNL     1      -5.239  -9.570   9.942  0.00  0.00    +0.180 C 
ATOM     12  C   UNL     1      -5.167 -10.563  12.109  0.00  0.00    +0.130 C 
ATOM     13  C   UNL     1      -6.262  -9.702   8.839  0.00  0.00    +0.176 C 
ATOM     14  C   UNL     1      -5.771  -9.171  12.189  0.00  0.00    +0.185 C 
ATOM     15  C   UNL     1      -7.350 -10.511   9.509  0.00  0.00    +0.194 C 
BRANCH  13   3
ATOM      3  O   UNL     1      -6.738  -8.464   8.363  0.00  0.00    -0.362 OA
BRANCH   3  16
ATOM     16  C   UNL     1      -8.146  -8.329   8.543  0.00  0.00    +0.256 C 
BRANCH  16  18
ATOM      4  O   UNL     1      -7.709  -6.060   8.017  0.00  0.00    -0.273 OA
ATOM      9  N   UNL     1      -9.813  -6.516   8.886  0.00  0.00    -0.306 N 
ATOM     18  C   UNL     1      -8.531  -6.867   8.460  0.00  0.00    +0.241 C 
ATOM     23  C   UNL     1     -10.234  -5.121   8.817  0.00  0.00    +0.131 C 
ATOM     24  C   UNL     1     -10.819  -7.442   9.400  0.00  0.00    +0.131 C 
ENDBRANCH  16  18
ENDBRANCH   3  16
ENDBRANCH  13   3
ENDBRANCH   6  12
BRANCH  19  22
ATOM     22  C   UNL     1      -4.701 -10.716  17.031  0.00  0.00    +0.001 A 
ATOM     25  C   UNL     1      -5.934 -10.083  16.875  0.00  0.00    +0.013 A 
ATOM     26  C   UNL     1      -4.420 -11.418  18.203  0.00  0.00    +0.013 A 
ATOM     27  C   UNL     1      -6.888 -10.153  17.890  0.00  0.00    +0.046 A 
ATOM     28  C   UNL     1      -5.374 -11.488  19.218  0.00  0.00    +0.046 A 
ATOM     29  C   UNL     1      -6.608 -10.856  19.062  0.00  0.00    +0.120 A 
BRANCH  29   5
ATOM      5  O   UNL     1      -7.538 -10.924  20.053  0.00  0.00    -0.495 OA
ATOM     30  C   UNL     1      -8.877 -11.231  19.666  0.00  0.00    +0.277 C 
ENDBRANCH  29   5
ENDBRANCH  19  22
TORSDOF 6
ENDMDL
MODEL 2
REMARK VINA RESULT:      -6.8     23.409     25.263
REMARK  Name = 25390790
REMARK  9 active torsions:
REMARK  status: ('A' for Active; 'I' for Inactive)
REMARK    1  A    between atoms: O_3  and  C_13
REMARK    2  A    between atoms: O_3  and  C_16
REMARK    3  A    between atoms: O_5  and  C_29
REMARK    4  A    between atoms: O_5  and  C_30
REMARK    5  A    between atoms: N_6  and  C_12
REMARK    6  A    between atoms: N_9  and  C_23
REMARK    7  A    between atoms: N_9  and  C_24
REMARK    8  A    between atoms: C_16  and  C_18
REMARK    9  A    between atoms: C_19  and  C_22
REMARK                            x       y       z     vdW  Elec       q    Type
REMARK                         _______ _______ _______ _____ _____    ______ ____
ROOT
ATOM      6  N   UNL     1      10.093   6.552   1.441  0.00  0.00    -0.306 N 
ATOM      7  N   UNL     1       9.586   6.654   3.706  0.00  0.00    -0.214 NA
ATOM      8  N   UNL     1       8.557   8.153   2.125  0.00  0.00    -0.223 NA
ATOM     17  C   UNL     1       9.380   7.145   2.469  0.00  0.00    +0.216 A 
ATOM     19  C   UNL     1       8.878   7.257   4.684  0.00  0.00    +0.076 A 
ATOM     20  C   UNL     1       7.880   8.711   3.151  0.00  0.00    +0.116 A 
ATOM     21  C   UNL     1       8.001   8.301   4.463  0.00  0.00    +0.048 A 
ATOM     31  H   UNL     1       9.983   6.952   0.517  0.00  0.00    +0.149 HD
ENDROOT
BRANCH   6  12
ATOM      1  O   UNL     1      10.536   3.871  -0.071  0.00  0.00    -0.369 OA
ATOM      2  O   UNL     1      13.257   4.745   1.048  0.00  0.00    -0.369 OA
ATOM     10  C   UNL     1      12.117   5.507   0.599  0.00  0.00    +0.172 C 
ATOM     11  C   UNL     1      11.533   4.768  -0.588  0.00  0.00    +0.180 C 
ATOM     12  C   UNL     1      11.019   5.457   1.637  0.00  0.00    +0.130 C 
ATOM     13  C   UNL     1      12.729   4.021  -1.129  0.00  0.00    +0.176 C 
ATOM     14  C   UNL     1      10.343   4.132   1.328  0.00  0.00    +0.185 C 
ATOM     15  C   UNL     1      13.477   3.659   0.135  0.00  0.00    +0.194 C 
BRANCH  13   3
ATOM      3  O   UNL     1      12.387   2.883  -1.887  0.00  0.00    -0.362 OA
BRANCH   3  16
ATOM     16  C   UNL     1      12.427   3.144  -3.287  0.00  0.00    +0.256 C 
BRANCH  16  18
ATOM      4  O   UNL     1      10.119   2.626  -3.138  0.00  0.00    -0.273 OA
ATOM      9  N   UNL     1      10.937   3.023  -5.275  0.00  0.00    -0.306 N 
ATOM     18  C   UNL     1      11.058   2.905  -3.890  0.00  0.00    +0.241 C 
ATOM     23  C   UNL     1       9.637   2.812  -5.900  0.00  0.00    +0.131 C 
ATOM     24  C   UNL     1      12.019   3.366  -6.194  0.00  0.00    +0.131 C 
ENDBRANCH  16  18
ENDBRANCH   3  16
ENDBRANCH  13   3
ENDBRANCH   6  12
BRANCH  19  22
ATOM     22  C   UNL     1       9.096   6.734   6.011  0.00  0.00    +0.001 A 
ATOM     25  C   UNL     1       8.748   7.495   7.127  0.00  0.00    +0.013 A 
ATOM     26  C   UNL     1       9.658   5.468   6.177  0.00  0.00    +0.013 A 
ATOM     27  C   UNL     1       8.961   6.991   8.409  0.00  0.00    +0.046 A 
ATOM     28  C   UNL     1       9.870   4.964   7.460  0.00  0.00    +0.046 A 
ATOM     29  C   UNL     1       9.522   5.725   8.576  0.00  0.00    +0.120 A 
BRANCH  29   5
ATOM      5  O   UNL     1       9.730   5.233   9.828  0.00  0.00    -0.495 OA
ATOM     30  C   UNL     1       8.663   4.492  10.420  0.00  0.00    +0.277 C 
ENDBRANCH  29   5
ENDBRANCH  19  22
TORSDOF 6
ENDMDL
MODEL 3
REMARK VINA RESULT:      -6.8      4.632      6.964
REMARK  Name = 25390790
REMARK  9 active torsions:
REMARK  status: ('A' for Active; 'I' for Inactive)
REMARK    1  A    between atoms: O_3  and  C_13
REMARK    2  A    between atoms: O_3  and  C_16
REMARK    3  A    between atoms: O_5  and  C_29
REMARK    4  A    between atoms: O_5  and  C_30
REMARK    5  A    between atoms: N_6  and  C_12
REMARK    6  A    between atoms: N_9  and  C_23
REMARK    7  A    between atoms: N_9  and  C_24
REMARK    8  A    between atoms: C_16  and  C_18
REMARK    9  A    between atoms: C_19  and  C_22
REMARK                            x       y       z     vdW  Elec       q    Type
REMARK                         _______ _______ _______ _____ _____    ______ ____
ROOT
ATOM      6  N   UNL     1      -8.646  -9.509  18.066  0.00  0.00    -0.306 N 
ATOM      7  N   UNL     1      -6.538 -10.102  17.289  0.00  0.00    -0.214 NA
ATOM      8  N   UNL     1      -7.239 -10.630  19.534  0.00  0.00    -0.223 NA
ATOM     17  C   UNL     1      -7.421 -10.107  18.306  0.00  0.00    +0.216 A 
ATOM     19  C   UNL     1      -5.355 -10.690  17.560  0.00  0.00    +0.076 A 
ATOM     20  C   UNL     1      -6.034 -11.202  19.736  0.00  0.00    +0.116 A 
ATOM     21  C   UNL     1      -5.043 -11.262  18.777  0.00  0.00    +0.048 A 
ATOM     31  H   UNL     1      -9.294  -9.462  18.843  0.00  0.00    +0.149 HD
ENDROOT
BRANCH   6  12
ATOM      1  O   UNL     1     -11.242  -9.579  16.355  0.00  0.00    -0.369 OA
ATOM      2  O   UNL     1      -9.914  -6.855  15.880  0.00  0.00    -0.369 OA
ATOM     10  C   UNL     1      -9.929  -7.725  17.031  0.00  0.00    +0.172 C 
ATOM     11  C   UNL     1     -11.308  -8.349  17.094  0.00  0.00    +0.180 C 
ATOM     12  C   UNL     1      -9.006  -8.900  16.803  0.00  0.00    +0.130 C 
ATOM     13  C   UNL     1     -12.164  -7.321  16.392  0.00  0.00    +0.176 C 
ATOM     14  C   UNL     1      -9.878  -9.843  15.992  0.00  0.00    +0.185 C 
ATOM     15  C   UNL     1     -11.232  -6.814  15.314  0.00  0.00    +0.194 C 
BRANCH  13   3
ATOM      3  O   UNL     1     -13.355  -7.852  15.858  0.00  0.00    -0.362 OA
BRANCH   3  16
ATOM     16  C   UNL     1     -13.467  -7.609  14.458  0.00  0.00    +0.256 C 
BRANCH  16  18
ATOM      4  O   UNL     1     -15.424  -6.367  14.948  0.00  0.00    -0.273 OA
ATOM      9  N   UNL     1     -14.152  -5.598  13.165  0.00  0.00    -0.306 N 
ATOM     18  C   UNL     1     -14.438  -6.473  14.214  0.00  0.00    +0.241 C 
ATOM     23  C   UNL     1     -15.052  -4.483  12.897  0.00  0.00    +0.131 C 
ATOM     24  C   UNL     1     -12.988  -5.681  12.285  0.00  0.00    +0.131 C 
ENDBRANCH  16  18
ENDBRANCH   3  16
ENDBRANCH  13   3
ENDBRANCH   6  12
BRANCH  19  22
ATOM     22  C   UNL     1      -4.406 -10.686  16.472  0.00  0.00    +0.001 A 
ATOM     25  C   UNL     1      -4.857 -10.657  15.153  0.00  0.00    +0.013 A 
ATOM     26  C   UNL     1      -3.037 -10.715  16.741  0.00  0.00    +0.013 A 
ATOM     27  C   UNL     1      -3.941 -10.655  14.101  0.00  0.00    +0.046 A 
ATOM     28  C   UNL     1      -2.121 -10.713  15.689  0.00  0.00    +0.046 A 
ATOM     29  C   UNL     1      -2.572 -10.684  14.370  0.00  0.00    +0.120 A 
BRANCH  29   5
ATOM      5  O   UNL     1      -1.678 -10.682  13.344  0.00  0.00    -0.495 OA
ATOM     30  C   UNL     1      -2.023 -11.431  12.180  0.00  0.00    +0.277 C 
ENDBRANCH  29   5
ENDBRANCH  19  22
TORSDOF 6
ENDMDL
MODEL 4
REMARK VINA RESULT:      -6.7     26.808     28.772
REMARK  Name = 25390790
REMARK  9 active torsions:
REMARK  status: ('A' for Active; 'I' for Inactive)
REMARK    1  A    between atoms: O_3  and  C_13
REMARK    2  A    between atoms: O_3  and  C_16
REMARK    3  A    between atoms: O_5  and  C_29
REMARK    4  A    between atoms: O_5  and  C_30
REMARK    5  A    between atoms: N_6  and  C_12
REMARK    6  A    between atoms: N_9  and  C_23
REMARK    7  A    between atoms: N_9  and  C_24
REMARK    8  A    between atoms: C_16  and  C_18
REMARK    9  A    between atoms: C_19  and  C_22
REMARK                            x       y       z     vdW  Elec       q    Type
REMARK                         _______ _______ _______ _____ _____    ______ ____
ROOT
ATOM      6  N   UNL     1      13.603   9.517  18.031  0.00  0.00    -0.306 N 
ATOM      7  N   UNL     1      15.237   8.507  19.338  0.00  0.00    -0.214 NA
ATOM      8  N   UNL     1      13.063   9.031  20.237  0.00  0.00    -0.223 NA
ATOM     17  C   UNL     1      13.984   8.995  19.255  0.00  0.00    +0.216 A 
ATOM     19  C   UNL     1      15.575   8.009  20.545  0.00  0.00    +0.076 A 
ATOM     20  C   UNL     1      13.467   8.517  21.417  0.00  0.00    +0.116 A 
ATOM     21  C   UNL     1      14.723   7.987  21.632  0.00  0.00    +0.048 A 
ATOM     31  H   UNL     1      12.681   9.935  17.978  0.00  0.00    +0.149 HD
ENDROOT
BRANCH   6  12
ATOM      1  O   UNL     1      13.034   9.710  14.980  0.00  0.00    -0.369 OA
ATOM      2  O   UNL     1      15.716  11.109  15.495  0.00  0.00    -0.369 OA
ATOM     10  C   UNL     1      14.540  10.961  16.318  0.00  0.00    +0.172 C 
ATOM     11  C   UNL     1      13.342  11.051  15.394  0.00  0.00    +0.180 C 
ATOM     12  C   UNL     1      14.469   9.557  16.873  0.00  0.00    +0.130 C 
ATOM     13  C   UNL     1      13.874  11.881  14.249  0.00  0.00    +0.176 C 
ATOM     14  C   UNL     1      13.846   8.786  15.721  0.00  0.00    +0.185 C 
ATOM     15  C   UNL     1      15.307  11.407  14.152  0.00  0.00    +0.194 C 
BRANCH  13   3
ATOM      3  O   UNL     1      13.170  11.692  13.043  0.00  0.00    -0.362 OA
BRANCH   3  16
ATOM     16  C   UNL     1      12.231  12.738  12.804  0.00  0.00    +0.256 C 
BRANCH  16  18
ATOM      4  O   UNL     1      10.207  11.653  13.389  0.00  0.00    -0.273 OA
ATOM      9  N   UNL     1      10.461  12.192  11.144  0.00  0.00    -0.306 N 
ATOM     18  C   UNL     1      10.878  12.143  12.476  0.00  0.00    +0.241 C 
ATOM     23  C   UNL     1       9.162  11.640  10.781  0.00  0.00    +0.131 C 
ATOM     24  C   UNL     1      11.218  12.776  10.040  0.00  0.00    +0.131 C 
ENDBRANCH  16  18
ENDBRANCH   3  16
ENDBRANCH  13   3
ENDBRANCH   6  12
BRANCH  19  22
ATOM     22  C   UNL     1      16.917   7.486  20.638  0.00  0.00    +0.001 A 
ATOM     25  C   UNL     1      17.849   8.101  21.474  0.00  0.00    +0.013 A 
ATOM     26  C   UNL     1      17.282   6.366  19.890  0.00  0.00    +0.013 A 
ATOM     27  C   UNL     1      19.147   7.597  21.562  0.00  0.00    +0.046 A 
ATOM     28  C   UNL     1      18.580   5.863  19.979  0.00  0.00    +0.046 A 
ATOM     29  C   UNL     1      19.512   6.478  20.814  0.00  0.00    +0.120 A 
BRANCH  29   5
ATOM      5  O   UNL     1      20.778   5.986  20.900  0.00  0.00    -0.495 OA
ATOM     30  C   UNL     1      20.960   4.603  20.597  0.00  0.00    +0.277 C 
ENDBRANCH  29   5
ENDBRANCH  19  22
TORSDOF 6
ENDMDL
MODEL 5
REMARK VINA RESULT:      -6.7      5.309      7.278
REMARK  Name = 25390790
REMARK  9 active torsions:
REMARK  status: ('A' for Active; 'I' for Inactive)
REMARK    1  A    between atoms: O_3  and  C_13
REMARK    2  A    between atoms: O_3  and  C_16
REMARK    3  A    between atoms: O_5  and  C_29
REMARK    4  A    between atoms: O_5  and  C_30
REMARK    5  A    between atoms: N_6  and  C_12
REMARK    6  A    between atoms: N_9  and  C_23
REMARK    7  A    between atoms: N_9  and  C_24
REMARK    8  A    between atoms: C_16  and  C_18
REMARK    9  A    between atoms: C_19  and  C_22
REMARK                            x       y       z     vdW  Elec       q    Type
REMARK                         _______ _______ _______ _____ _____    ______ ____
ROOT
ATOM      6  N   UNL     1     -11.027  -8.875  17.520  0.00  0.00    -0.306 N 
ATOM      7  N   UNL     1      -8.866  -9.708  17.702  0.00  0.00    -0.214 NA
ATOM      8  N   UNL     1     -10.595 -10.363  19.249  0.00  0.00    -0.223 NA
ATOM     17  C   UNL     1     -10.123  -9.685  18.185  0.00  0.00    +0.216 A 
ATOM     19  C   UNL     1      -8.012 -10.506  18.377  0.00  0.00    +0.076 A 
ATOM     20  C   UNL     1      -9.687 -11.140  19.877  0.00  0.00    +0.116 A 
ATOM     21  C   UNL     1      -8.370 -11.252  19.482  0.00  0.00    +0.048 A 
ATOM     31  H   UNL     1     -11.960  -8.810  17.911  0.00  0.00    +0.149 HD
ENDROOT
BRANCH   6  12
ATOM      1  O   UNL     1     -12.499  -8.324  14.837  0.00  0.00    -0.369 OA
ATOM      2  O   UNL     1     -10.850  -5.823  15.499  0.00  0.00    -0.369 OA
ATOM     10  C   UNL     1     -11.490  -6.799  16.347  0.00  0.00    +0.172 C 
ATOM     11  C   UNL     1     -12.788  -7.188  15.668  0.00  0.00    +0.180 C 
ATOM     12  C   UNL     1     -10.687  -8.079  16.360  0.00  0.00    +0.130 C 
ATOM     13  C   UNL     1     -13.107  -5.961  14.846  0.00  0.00    +0.176 C 
ATOM     14  C   UNL     1     -11.158  -8.769  15.091  0.00  0.00    +0.185 C 
ATOM     15  C   UNL     1     -11.733  -5.501  14.414  0.00  0.00    +0.194 C 
BRANCH  13   3
ATOM      3  O   UNL     1     -13.949  -6.224  13.747  0.00  0.00    -0.362 OA
BRANCH   3  16
ATOM     16  C   UNL     1     -15.116  -5.407  13.761  0.00  0.00    +0.256 C 
BRANCH  16  18
ATOM      4  O   UNL     1     -14.404  -3.219  13.193  0.00  0.00    -0.273 OA
ATOM      9  N   UNL     1     -15.402  -4.439  11.488  0.00  0.00    -0.306 N 
ATOM     18  C   UNL     1     -14.943  -4.255  12.793  0.00  0.00    +0.241 C 
ATOM     23  C   UNL     1     -15.249  -3.362  10.517  0.00  0.00    +0.131 C 
ATOM     24  C   UNL     1     -16.029  -5.654  10.974  0.00  0.00    +0.131 C 
ENDBRANCH  16  18
ENDBRANCH   3  16
ENDBRANCH  13   3
ENDBRANCH   6  12
BRANCH  19  22
ATOM     22  C   UNL     1      -6.664 -10.534  17.862  0.00  0.00    +0.001 A 
ATOM     25  C   UNL     1      -5.666 -11.217  18.556  0.00  0.00    +0.013 A 
ATOM     26  C   UNL     1      -6.359  -9.875  16.671  0.00  0.00    +0.013 A 
ATOM     27  C   UNL     1      -4.363 -11.243  18.061  0.00  0.00    +0.046 A 
ATOM     28  C   UNL     1      -5.056  -9.900  16.175  0.00  0.00    +0.046 A 
ATOM     29  C   UNL     1      -4.057 -10.584  16.870  0.00  0.00    +0.120 A 
BRANCH  29   5
ATOM      5  O   UNL     1      -2.786 -10.608  16.385  0.00  0.00    -0.495 OA
ATOM     30  C   UNL     1      -2.629 -10.806  14.981  0.00  0.00    +0.277 C 
ENDBRANCH  29   5
ENDBRANCH  19  22
TORSDOF 6
ENDMDL
MODEL 6
REMARK VINA RESULT:      -6.4     21.830     26.273
REMARK  Name = 25390790
REMARK  9 active torsions:
REMARK  status: ('A' for Active; 'I' for Inactive)
REMARK    1  A    between atoms: O_3  and  C_13
REMARK    2  A    between atoms: O_3  and  C_16
REMARK    3  A    between atoms: O_5  and  C_29
REMARK    4  A    between atoms: O_5  and  C_30
REMARK    5  A    between atoms: N_6  and  C_12
REMARK    6  A    between atoms: N_9  and  C_23
REMARK    7  A    between atoms: N_9  and  C_24
REMARK    8  A    between atoms: C_16  and  C_18
REMARK    9  A    between atoms: C_19  and  C_22
REMARK                            x       y       z     vdW  Elec       q    Type
REMARK                         _______ _______ _______ _____ _____    ______ ____
ROOT
ATOM      6  N   UNL     1     -15.341   3.181  32.869  0.00  0.00    -0.306 N 
ATOM      7  N   UNL     1     -15.675   2.501  30.673  0.00  0.00    -0.214 NA
ATOM      8  N   UNL     1     -14.846   0.974  32.343  0.00  0.00    -0.223 NA
ATOM     17  C   UNL     1     -15.286   2.175  31.920  0.00  0.00    +0.216 A 
ATOM     19  C   UNL     1     -15.606   1.497  29.774  0.00  0.00    +0.076 A 
ATOM     20  C   UNL     1     -14.802   0.017  31.393  0.00  0.00    +0.116 A 
ATOM     21  C   UNL     1     -15.173   0.222  30.079  0.00  0.00    +0.048 A 
ATOM     31  H   UNL     1     -14.998   2.957  33.796  0.00  0.00    +0.149 HD
ENDROOT
BRANCH   6  12
ATOM      1  O   UNL     1     -15.245   5.825  34.503  0.00  0.00    -0.369 OA
ATOM      2  O   UNL     1     -15.056   6.583  31.536  0.00  0.00    -0.369 OA
ATOM     10  C   UNL     1     -14.610   5.414  32.256  0.00  0.00    +0.172 C 
ATOM     11  C   UNL     1     -14.122   5.891  33.609  0.00  0.00    +0.180 C 
ATOM     12  C   UNL     1     -15.789   4.527  32.583  0.00  0.00    +0.130 C 
ATOM     13  C   UNL     1     -13.716   7.318  33.326  0.00  0.00    +0.176 C 
ATOM     14  C   UNL     1     -16.342   5.177  33.840  0.00  0.00    +0.185 C 
ATOM     15  C   UNL     1     -14.755   7.750  32.315  0.00  0.00    +0.194 C 
BRANCH  13   3
ATOM      3  O   UNL     1     -13.716   8.140  34.471  0.00  0.00    -0.362 OA
BRANCH   3  16
ATOM     16  C   UNL     1     -12.403   8.572  34.817  0.00  0.00    +0.256 C 
BRANCH  16  18
ATOM      4  O   UNL     1     -12.699   7.043  36.604  0.00  0.00    -0.273 OA
ATOM      9  N   UNL     1     -10.771   8.336  36.680  0.00  0.00    -0.306 N 
ATOM     18  C   UNL     1     -11.976   7.916  36.114  0.00  0.00    +0.241 C 
ATOM     23  C   UNL     1     -10.314   7.726  37.923  0.00  0.00    +0.131 C 
ATOM     24  C   UNL     1      -9.882   9.352  36.122  0.00  0.00    +0.131 C 
ENDBRANCH  16  18
ENDBRANCH   3  16
ENDBRANCH  13   3
ENDBRANCH   6  12
BRANCH  19  22
ATOM     22  C   UNL     1     -16.022   1.843  28.436  0.00  0.00    +0.001 A 
ATOM     25  C   UNL     1     -16.609   0.878  27.616  0.00  0.00    +0.013 A 
ATOM     26  C   UNL     1     -15.835   3.141  27.961  0.00  0.00    +0.013 A 
ATOM     27  C   UNL     1     -17.009   1.211  26.323  0.00  0.00    +0.046 A 
ATOM     28  C   UNL     1     -16.236   3.474  26.667  0.00  0.00    +0.046 A 
ATOM     29  C   UNL     1     -16.822   2.510  25.848  0.00  0.00    +0.120 A 
BRANCH  29   5
ATOM      5  O   UNL     1     -17.213   2.835  24.585  0.00  0.00    -0.495 OA
ATOM     30  C   UNL     1     -16.344   3.684  23.835  0.00  0.00    +0.277 C 
ENDBRANCH  29   5
ENDBRANCH  19  22
TORSDOF 6
ENDMDL
MODEL 7
REMARK VINA RESULT:      -6.4     27.437     30.568
REMARK  Name = 25390790
REMARK  9 active torsions:
REMARK  status: ('A' for Active; 'I' for Inactive)
REMARK    1  A    between atoms: O_3  and  C_13
REMARK    2  A    between atoms: O_3  and  C_16
REMARK    3  A    between atoms: O_5  and  C_29
REMARK    4  A    between atoms: O_5  and  C_30
REMARK    5  A    between atoms: N_6  and  C_12
REMARK    6  A    between atoms: N_9  and  C_23
REMARK    7  A    between atoms: N_9  and  C_24
REMARK    8  A    between atoms: C_16  and  C_18
REMARK    9  A    between atoms: C_19  and  C_22
REMARK                            x       y       z     vdW  Elec       q    Type
REMARK                         _______ _______ _______ _____ _____    ______ ____
ROOT
ATOM      6  N   UNL     1      15.825   7.467  19.677  0.00  0.00    -0.306 N 
ATOM      7  N   UNL     1      13.946   8.622  20.406  0.00  0.00    -0.214 NA
ATOM      8  N   UNL     1      14.072   7.718  18.175  0.00  0.00    -0.223 NA
ATOM     17  C   UNL     1      14.558   7.956  19.408  0.00  0.00    +0.216 A 
ATOM     19  C   UNL     1      12.714   9.087  20.108  0.00  0.00    +0.076 A 
ATOM     20  C   UNL     1      12.837   8.211  17.945  0.00  0.00    +0.116 A 
ATOM     21  C   UNL     1      12.104   8.910  18.883  0.00  0.00    +0.048 A 
ATOM     31  H   UNL     1      16.313   7.013  18.913  0.00  0.00    +0.149 HD
ENDROOT
BRANCH   6  12
ATOM      1  O   UNL     1      18.037   5.830  21.125  0.00  0.00    -0.369 OA
ATOM      2  O   UNL     1      18.384   8.763  21.957  0.00  0.00    -0.369 OA
ATOM     10  C   UNL     1      17.894   8.166  20.739  0.00  0.00    +0.172 C 
ATOM     11  C   UNL     1      18.725   6.923  20.494  0.00  0.00    +0.180 C 
ATOM     12  C   UNL     1      16.495   7.635  20.949  0.00  0.00    +0.130 C 
ATOM     13  C   UNL     1      20.020   7.250  21.200  0.00  0.00    +0.176 C 
ATOM     14  C   UNL     1      16.756   6.282  21.590  0.00  0.00    +0.185 C 
ATOM     15  C   UNL     1      19.538   8.034  22.400  0.00  0.00    +0.194 C 
BRANCH  13   3
ATOM      3  O   UNL     1      20.761   6.111  21.572  0.00  0.00    -0.362 OA
BRANCH   3  16
ATOM     16  C   UNL     1      21.671   5.709  20.551  0.00  0.00    +0.256 C 
BRANCH  16  18
ATOM      4  O   UNL     1      21.112   3.432  20.891  0.00  0.00    -0.273 OA
ATOM      9  N   UNL     1      23.377   3.905  20.693  0.00  0.00    -0.306 N 
ATOM     18  C   UNL     1      22.024   4.248  20.730  0.00  0.00    +0.241 C 
ATOM     23  C   UNL     1      23.765   2.508  20.850  0.00  0.00    +0.131 C 
ATOM     24  C   UNL     1      24.482   4.837  20.488  0.00  0.00    +0.131 C 
ENDBRANCH  16  18
ENDBRANCH   3  16
ENDBRANCH  13   3
ENDBRANCH   6  12
BRANCH  19  22
ATOM     22  C   UNL     1      12.055   9.801  21.174  0.00  0.00    +0.001 A 
ATOM     25  C   UNL     1      12.111  11.194  21.221  0.00  0.00    +0.013 A 
ATOM     26  C   UNL     1      11.362   9.098  22.161  0.00  0.00    +0.013 A 
ATOM     27  C   UNL     1      11.476  11.884  22.253  0.00  0.00    +0.046 A 
ATOM     28  C   UNL     1      10.727   9.788  23.192  0.00  0.00    +0.046 A 
ATOM     29  C   UNL     1      10.784  11.181  23.239  0.00  0.00    +0.120 A 
BRANCH  29   5
ATOM      5  O   UNL     1      10.164  11.855  24.246  0.00  0.00    -0.495 OA
ATOM     30  C   UNL     1      10.793  13.047  24.713  0.00  0.00    +0.277 C 
ENDBRANCH  29   5
ENDBRANCH  19  22
TORSDOF 6
ENDMDL
MODEL 8
REMARK VINA RESULT:      -6.4      3.146      8.758
REMARK  Name = 25390790
REMARK  9 active torsions:
REMARK  status: ('A' for Active; 'I' for Inactive)
REMARK    1  A    between atoms: O_3  and  C_13
REMARK    2  A    between atoms: O_3  and  C_16
REMARK    3  A    between atoms: O_5  and  C_29
REMARK    4  A    between atoms: O_5  and  C_30
REMARK    5  A    between atoms: N_6  and  C_12
REMARK    6  A    between atoms: N_9  and  C_23
REMARK    7  A    between atoms: N_9  and  C_24
REMARK    8  A    between atoms: C_16  and  C_18
REMARK    9  A    between atoms: C_19  and  C_22
REMARK                            x       y       z     vdW  Elec       q    Type
REMARK                         _______ _______ _______ _____ _____    ______ ____
ROOT
ATOM      6  N   UNL     1      -4.149 -11.378  17.012  0.00  0.00    -0.306 N 
ATOM      7  N   UNL     1      -3.736 -11.007  14.757  0.00  0.00    -0.214 NA
ATOM      8  N   UNL     1      -2.039 -10.612  16.421  0.00  0.00    -0.223 NA
ATOM     17  C   UNL     1      -3.270 -10.983  16.020  0.00  0.00    +0.216 A 
ATOM     19  C   UNL     1      -2.852 -10.614  13.816  0.00  0.00    +0.076 A 
ATOM     20  C   UNL     1      -1.207 -10.229  15.430  0.00  0.00    +0.116 A 
ATOM     21  C   UNL     1      -1.562 -10.210  14.096  0.00  0.00    +0.048 A 
ATOM     31  H   UNL     1      -3.823 -11.310  17.969  0.00  0.00    +0.149 HD
ENDROOT
BRANCH   6  12
ATOM      1  O   UNL     1      -6.430 -12.388  18.870  0.00  0.00    -0.369 OA
ATOM      2  O   UNL     1      -7.753 -10.934  16.515  0.00  0.00    -0.369 OA
ATOM     10  C   UNL     1      -6.485 -10.732  17.174  0.00  0.00    +0.172 C 
ATOM     11  C   UNL     1      -6.709 -10.996  18.649  0.00  0.00    +0.180 C 
ATOM     12  C   UNL     1      -5.508 -11.806  16.755  0.00  0.00    +0.130 C 
ATOM     13  C   UNL     1      -8.178 -10.688  18.817  0.00  0.00    +0.176 C 
ATOM     14  C   UNL     1      -5.881 -12.958  17.672  0.00  0.00    +0.185 C 
ATOM     15  C   UNL     1      -8.758 -11.180  17.510  0.00  0.00    +0.194 C 
BRANCH  13   3
ATOM      3  O   UNL     1      -8.763 -11.325  19.930  0.00  0.00    -0.362 OA
BRANCH   3  16
ATOM     16  C   UNL     1     -10.144 -10.999  20.066  0.00  0.00    +0.256 C 
BRANCH  16  18
ATOM      4  O   UNL     1     -10.473 -13.163  20.976  0.00  0.00    -0.273 OA
ATOM      9  N   UNL     1     -12.197 -12.342  19.654  0.00  0.00    -0.306 N 
ATOM     18  C   UNL     1     -10.948 -12.266  20.272  0.00  0.00    +0.241 C 
ATOM     23  C   UNL     1     -13.011 -13.538  19.831  0.00  0.00    +0.131 C 
ATOM     24  C   UNL     1     -12.798 -11.297  18.829  0.00  0.00    +0.131 C 
ENDBRANCH  16  18
ENDBRANCH   3  16
ENDBRANCH  13   3
ENDBRANCH   6  12
BRANCH  19  22
ATOM     22  C   UNL     1      -3.349 -10.639  12.461  0.00  0.00    +0.001 A 
ATOM     25  C   UNL     1      -4.449 -11.432  12.135  0.00  0.00    +0.013 A 
ATOM     26  C   UNL     1      -2.726  -9.872  11.476  0.00  0.00    +0.013 A 
ATOM     27  C   UNL     1      -4.928 -11.458  10.826  0.00  0.00    +0.046 A 
ATOM     28  C   UNL     1      -3.204  -9.898  10.166  0.00  0.00    +0.046 A 
ATOM     29  C   UNL     1      -4.305 -10.691   9.841  0.00  0.00    +0.120 A 
BRANCH  29   5
ATOM      5  O   UNL     1      -4.772 -10.717   8.562  0.00  0.00    -0.495 OA
ATOM     30  C   UNL     1      -5.441  -9.547   8.092  0.00  0.00    +0.277 C 
ENDBRANCH  29   5
ENDBRANCH  19  22
TORSDOF 6
ENDMDL
MODEL 9
REMARK VINA RESULT:      -6.2     24.718     26.682
REMARK  Name = 25390790
REMARK  9 active torsions:
REMARK  status: ('A' for Active; 'I' for Inactive)
REMARK    1  A    between atoms: O_3  and  C_13
REMARK    2  A    between atoms: O_3  and  C_16
REMARK    3  A    between atoms: O_5  and  C_29
REMARK    4  A    between atoms: O_5  and  C_30
REMARK    5  A    between atoms: N_6  and  C_12
REMARK    6  A    between atoms: N_9  and  C_23
REMARK    7  A    between atoms: N_9  and  C_24
REMARK    8  A    between atoms: C_16  and  C_18
REMARK    9  A    between atoms: C_19  and  C_22
REMARK                            x       y       z     vdW  Elec       q    Type
REMARK                         _______ _______ _______ _____ _____    ______ ____
ROOT
ATOM      6  N   UNL     1      10.401   6.117   0.998  0.00  0.00    -0.306 N 
ATOM      7  N   UNL     1       9.894   6.120   3.265  0.00  0.00    -0.214 NA
ATOM      8  N   UNL     1       9.062   7.838   1.794  0.00  0.00    -0.223 NA
ATOM     17  C   UNL     1       9.757   6.717   2.065  0.00  0.00    +0.216 A 
ATOM     19  C   UNL     1       9.255   6.734   4.283  0.00  0.00    +0.076 A 
ATOM     20  C   UNL     1       8.449   8.400   2.857  0.00  0.00    +0.116 A 
ATOM     21  C   UNL     1       8.511   7.887   4.137  0.00  0.00    +0.048 A 
ATOM     31  H   UNL     1      10.347   6.591   0.103  0.00  0.00    +0.149 HD
ENDROOT
BRANCH   6  12
ATOM      1  O   UNL     1      12.224   4.587  -1.005  0.00  0.00    -0.369 OA
ATOM      2  O   UNL     1      13.380   4.138   1.801  0.00  0.00    -0.369 OA
ATOM     10  C   UNL     1      12.658   5.250   1.230  0.00  0.00    +0.172 C 
ATOM     11  C   UNL     1      13.118   5.380  -0.208  0.00  0.00    +0.180 C 
ATOM     12  C   UNL     1      11.190   4.909   1.115  0.00  0.00    +0.130 C 
ATOM     13  C   UNL     1      14.505   4.783  -0.163  0.00  0.00    +0.176 C 
ATOM     14  C   UNL     1      11.143   4.120  -0.183  0.00  0.00    +0.185 C 
ATOM     15  C   UNL     1      14.338   3.666   0.843  0.00  0.00    +0.194 C 
BRANCH  13   3
ATOM      3  O   UNL     1      14.954   4.310  -1.412  0.00  0.00    -0.362 OA
BRANCH   3  16
ATOM     16  C   UNL     1      15.609   5.328  -2.164  0.00  0.00    +0.256 C 
BRANCH  16  18
ATOM      4  O   UNL     1      17.630   4.179  -1.704  0.00  0.00    -0.273 OA
ATOM      9  N   UNL     1      17.795   6.487  -1.905  0.00  0.00    -0.306 N 
ATOM     18  C   UNL     1      17.099   5.277  -1.901  0.00  0.00    +0.241 C 
ATOM     23  C   UNL     1      19.233   6.487  -1.667  0.00  0.00    +0.131 C 
ATOM     24  C   UNL     1      17.206   7.801  -2.150  0.00  0.00    +0.131 C 
ENDBRANCH  16  18
ENDBRANCH   3  16
ENDBRANCH  13   3
ENDBRANCH   6  12
BRANCH  19  22
ATOM     22  C   UNL     1       9.400   6.097   5.569  0.00  0.00    +0.001 A 
ATOM     25  C   UNL     1       9.073   6.793   6.733  0.00  0.00    +0.013 A 
ATOM     26  C   UNL     1       9.871   4.786   5.650  0.00  0.00    +0.013 A 
ATOM     27  C   UNL     1       9.215   6.179   7.977  0.00  0.00    +0.046 A 
ATOM     28  C   UNL     1      10.013   4.173   6.894  0.00  0.00    +0.046 A 
ATOM     29  C   UNL     1       9.685   4.869   8.058  0.00  0.00    +0.120 A 
BRANCH  29   5
ATOM      5  O   UNL     1       9.824   4.269   9.272  0.00  0.00    -0.495 OA
ATOM     30  C   UNL     1       8.904   4.651  10.294  0.00  0.00    +0.277 C 
ENDBRANCH  29   5
ENDBRANCH  19  22
TORSDOF 6
ENDMDL
MODEL 10
REMARK VINA RESULT:      -6.2     28.947     32.430
REMARK  Name = 25390790
REMARK  9 active torsions:
REMARK  status: ('A' for Active; 'I' for Inactive)
REMARK    1  A    between atoms: O_3  and  C_13
REMARK    2  A    between atoms: O_3  and  C_16
REMARK    3  A    between atoms: O_5  and  C_29
REMARK    4  A    between atoms: O_5  and  C_30
REMARK    5  A    between atoms: N_6  and  C_12
REMARK    6  A    between atoms: N_9  and  C_23
REMARK    7  A    between atoms: N_9  and  C_24
REMARK    8  A    between atoms: C_16  and  C_18
REMARK    9  A    between atoms: C_19  and  C_22
REMARK                            x       y       z     vdW  Elec       q    Type
REMARK                         _______ _______ _______ _____ _____    ______ ____
ROOT
ATOM      6  N   UNL     1      20.659   7.754  21.760  0.00  0.00    -0.306 N 
ATOM      7  N   UNL     1      18.375   8.014  21.426  0.00  0.00    -0.214 NA
ATOM      8  N   UNL     1      19.867   9.906  21.396  0.00  0.00    -0.223 NA
ATOM     17  C   UNL     1      19.587   8.594  21.516  0.00  0.00    +0.216 A 
ATOM     19  C   UNL     1      17.353   8.863  21.191  0.00  0.00    +0.076 A 
ATOM     20  C   UNL     1      18.799  10.698  21.162  0.00  0.00    +0.116 A 
ATOM     21  C   UNL     1      17.507  10.227  21.049  0.00  0.00    +0.048 A 
ATOM     31  H   UNL     1      21.566   8.190  21.883  0.00  0.00    +0.149 HD
ENDROOT
BRANCH   6  12
ATOM      1  O   UNL     1      21.768   5.353  20.124  0.00  0.00    -0.369 OA
ATOM      2  O   UNL     1      21.561   4.443  23.047  0.00  0.00    -0.369 OA
ATOM     10  C   UNL     1      21.816   5.738  22.464  0.00  0.00    +0.172 C 
ATOM     11  C   UNL     1      22.669   5.505  21.233  0.00  0.00    +0.180 C 
ATOM     12  C   UNL     1      20.534   6.320  21.915  0.00  0.00    +0.130 C 
ATOM     13  C   UNL     1      23.373   4.210  21.563  0.00  0.00    +0.176 C 
ATOM     14  C   UNL     1      20.431   5.650  20.555  0.00  0.00    +0.185 C 
ATOM     15  C   UNL     1      22.306   3.453  22.323  0.00  0.00    +0.194 C 
BRANCH  13   3
ATOM      3  O   UNL     1      23.815   3.505  20.426  0.00  0.00    -0.362 OA
BRANCH   3  16
ATOM     16  C   UNL     1      24.202   2.170  20.743  0.00  0.00    +0.256 C 
BRANCH  16  18
ATOM      4  O   UNL     1      26.481   2.746  20.448  0.00  0.00    -0.273 OA
ATOM      9  N   UNL     1      25.994   1.441  22.306  0.00  0.00    -0.306 N 
ATOM     18  C   UNL     1      25.661   2.144  21.148  0.00  0.00    +0.241 C 
ATOM     23  C   UNL     1      27.385   1.395  22.741  0.00  0.00    +0.131 C 
ATOM     24  C   UNL     1      25.051   0.732  23.167  0.00  0.00    +0.131 C 
ENDBRANCH  16  18
ENDBRANCH   3  16
ENDBRANCH  13   3
ENDBRANCH   6  12
BRANCH  19  22
ATOM     22  C   UNL     1      16.053   8.244  21.094  0.00  0.00    +0.001 A 
ATOM     25  C   UNL     1      15.045   8.594  21.994  0.00  0.00    +0.013 A 
ATOM     26  C   UNL     1      15.804   7.294  20.103  0.00  0.00    +0.013 A 
ATOM     27  C   UNL     1      13.789   7.995  21.902  0.00  0.00    +0.046 A 
ATOM     28  C   UNL     1      14.548   6.696  20.012  0.00  0.00    +0.046 A 
ATOM     29  C   UNL     1      13.540   7.045  20.911  0.00  0.00    +0.120 A 
BRANCH  29   5
ATOM      5  O   UNL     1      12.314   6.460  20.822  0.00  0.00    -0.495 OA
ATOM     30  C   UNL     1      11.231   7.119  21.478  0.00  0.00    +0.277 C 
ENDBRANCH  29   5
ENDBRANCH  19  22
TORSDOF 6
ENDMDL
