MODEL 1
REMARK VINA RESULT:      -6.6      0.000      0.000
REMARK  Name = 11867111
REMARK  10 active torsions:
REMARK  status: ('A' for Active; 'I' for Inactive)
REMARK    1  A    between atoms: S_1  and  C_27
REMARK    2  A    between atoms: S_1  and  C_29
REMARK    3  A    between atoms: O_5  and  C_23
REMARK    4  A    between atoms: O_5  and  C_28
REMARK    5  A    between atoms: N_8  and  C_11
REMARK    6  A    between atoms: CA_14  and  CB_17
REMARK    7  A    between atoms: CB_17  and  CG_18
REMARK    8  A    between atoms: CG_18  and  CD1_20
REMARK    9  A    between atoms: CG_18  and  CD2_21
REMARK   10  A    between atoms: C_19  and  C_22
REMARK                            x       y       z     vdW  Elec       q    Type
REMARK                         _______ _______ _______ _____ _____    ______ ____
ROOT
ATOM      2  O   LEU A   2      14.698   9.062  18.852  0.00  0.00    -0.274 OA
ATOM      3  O   UNK A   1      11.374   6.091  21.803  0.00  0.00    -0.274 OA
ATOM      6  N   UNK A   1      13.028   8.969  20.484  0.00  0.00    -0.288 N 
ATOM      7  N   LEU A   2      13.038   6.282  20.249  0.00  0.00    -0.302 N 
ATOM      9  C   UNK A   1      12.538   8.217  21.651  0.00  0.00    +0.164 C 
ATOM     10  C   UNK A   1      11.272   8.824  22.284  0.00  0.00    +0.054 C 
ATOM     11  C   UNK A   1      11.334  10.337  22.451  0.00  0.00    +0.077 C 
ATOM     12  C   UNK A   1      11.662  10.980  21.108  0.00  0.00    +0.041 C 
ATOM     13  C   UNK A   1      12.949  10.430  20.512  0.00  0.00    +0.110 C 
ATOM     14  CA  LEU A   2      14.256   6.931  19.827  0.00  0.00    +0.159 C 
ATOM     15  C   LEU A   2      13.998   8.412  19.633  0.00  0.00    +0.237 C 
ATOM     16  C   UNK A   1      12.219   6.783  21.235  0.00  0.00    +0.234 C 
ATOM     30  H   LEU A   2      12.805   5.380  19.846  0.00  0.00    +0.150 HD
ENDROOT
BRANCH  11   8
ATOM      4  O   UNK A   1      11.714  12.970  23.531  0.00  0.00    -0.270 OA
ATOM      8  N   UNK A   1      12.268  10.718  23.483  0.00  0.00    -0.308 N 
ATOM     19  C   UNK A   1      12.380  12.023  23.942  0.00  0.00    +0.248 C 
ATOM     31  H   UNK A   1      12.931  10.015  23.789  0.00  0.00    +0.149 HD
BRANCH  19  22
ATOM     22  C   UNK A   1      13.407  12.257  24.989  0.00  0.00    +0.078 A 
ATOM     23  C   UNK A   1      14.680  11.747  24.829  0.00  0.00    +0.133 A 
ATOM     24  C   UNK A   1      13.044  12.989  26.102  0.00  0.00    +0.018 A 
ATOM     25  C   UNK A   1      15.630  11.978  25.824  0.00  0.00    +0.061 A 
ATOM     26  C   UNK A   1      13.993  13.219  27.098  0.00  0.00    +0.015 A 
ATOM     27  C   UNK A   1      15.286  12.714  26.958  0.00  0.00    +0.011 A 
BRANCH  27   1
ATOM      1  S   UNK A   1      16.499  13.011  28.231  0.00  0.00    -0.128 S 
ATOM     29  C   UNK A   1      15.647  12.381  29.705  0.00  0.00    +0.090 C 
ENDBRANCH  27   1
BRANCH  23   5
ATOM      5  O   UNK A   1      15.033  11.026  23.728  0.00  0.00    -0.494 OA
ATOM     28  C   UNK A   1      15.893  11.663  22.786  0.00  0.00    +0.277 C 
ENDBRANCH  23   5
ENDBRANCH  19  22
ENDBRANCH  11   8
BRANCH  14  17
ATOM     17  CB  LEU A   2      15.415   6.682  20.781  0.00  0.00    +0.034 C 
BRANCH  17  18
ATOM     18  CG  LEU A   2      16.799   6.857  20.129  0.00  0.00    -0.015 C 
ATOM     20  CD1 LEU A   2      17.942   6.681  21.130  0.00  0.00    +0.007 C 
ATOM     21  CD2 LEU A   2      16.960   5.861  18.978  0.00  0.00    +0.007 C 
ENDBRANCH  17  18
ENDBRANCH  14  17
TORSDOF 6
ENDMDL
MODEL 2
REMARK VINA RESULT:      -6.4     27.749     30.048
REMARK  Name = 11867111
REMARK  10 active torsions:
REMARK  status: ('A' for Active; 'I' for Inactive)
REMARK    1  A    between atoms: S_1  and  C_27
REMARK    2  A    between atoms: S_1  and  C_29
REMARK    3  A    between atoms: O_5  and  C_23
REMARK    4  A    between atoms: O_5  and  C_28
REMARK    5  A    between atoms: N_8  and  C_11
REMARK    6  A    between atoms: CA_14  and  CB_17
REMARK    7  A    between atoms: CB_17  and  CG_18
REMARK    8  A    between atoms: CG_18  and  CD1_20
REMARK    9  A    between atoms: CG_18  and  CD2_21
REMARK   10  A    between atoms: C_19  and  C_22
REMARK                            x       y       z     vdW  Elec       q    Type
REMARK                         _______ _______ _______ _____ _____    ______ ____
ROOT
ATOM      2  O   LEU A   2      -3.989 -13.959  13.360  0.00  0.00    -0.274 OA
ATOM      3  O   UNK A   1      -1.521 -10.233  16.291  0.00  0.00    -0.274 OA
ATOM      6  N   UNK A   1      -3.861 -12.766  15.364  0.00  0.00    -0.288 N 
ATOM      7  N   LEU A   2      -1.755 -11.418  14.353  0.00  0.00    -0.302 N 
ATOM      9  C   UNK A   1      -3.598 -11.443  15.953  0.00  0.00    +0.164 C 
ATOM     10  C   UNK A   1      -3.729 -11.417  17.487  0.00  0.00    +0.054 C 
ATOM     11  C   UNK A   1      -4.963 -12.141  18.012  0.00  0.00    +0.077 C 
ATOM     12  C   UNK A   1      -4.986 -13.563  17.463  0.00  0.00    +0.041 C 
ATOM     13  C   UNK A   1      -4.924 -13.589  15.943  0.00  0.00    +0.110 C 
ATOM     14  CA  LEU A   2      -2.635 -11.998  13.365  0.00  0.00    +0.159 C 
ATOM     15  C   LEU A   2      -3.524 -13.032  14.026  0.00  0.00    +0.237 C 
ATOM     16  C   UNK A   1      -2.185 -10.996  15.590  0.00  0.00    +0.234 C 
ATOM     30  H   LEU A   2      -0.785 -11.256  14.102  0.00  0.00    +0.150 HD
ENDROOT
BRANCH  11   8
ATOM      4  O   UNK A   1      -6.503 -10.525  19.818  0.00  0.00    -0.270 OA
ATOM      8  N   UNK A   1      -6.173 -11.417  17.702  0.00  0.00    -0.308 N 
ATOM     19  C   UNK A   1      -6.849 -10.659  18.647  0.00  0.00    +0.248 C 
ATOM     31  H   UNK A   1      -6.583 -11.571  16.788  0.00  0.00    +0.149 HD
BRANCH  19  22
ATOM     22  C   UNK A   1      -8.092  -9.994  18.178  0.00  0.00    +0.078 A 
ATOM     23  C   UNK A   1      -9.279 -10.202  18.853  0.00  0.00    +0.133 A 
ATOM     24  C   UNK A   1      -8.013  -9.181  17.066  0.00  0.00    +0.018 A 
ATOM     25  C   UNK A   1     -10.435  -9.570  18.396  0.00  0.00    +0.061 A 
ATOM     26  C   UNK A   1      -9.170  -8.549  16.607  0.00  0.00    +0.015 A 
ATOM     27  C   UNK A   1     -10.380  -8.743  17.274  0.00  0.00    +0.011 A 
BRANCH  27   1
ATOM      1  S   UNK A   1     -11.857  -7.934  16.689  0.00  0.00    -0.128 S 
ATOM     29  C   UNK A   1     -11.223  -6.293  16.238  0.00  0.00    +0.090 C 
ENDBRANCH  27   1
BRANCH  23   5
ATOM      5  O   UNK A   1      -9.351 -11.006  19.952  0.00  0.00    -0.494 OA
ATOM     28  C   UNK A   1     -10.473 -11.880  20.041  0.00  0.00    +0.277 C 
ENDBRANCH  23   5
ENDBRANCH  19  22
ENDBRANCH  11   8
BRANCH  14  17
ATOM     17  CB  LEU A   2      -3.447 -10.950  12.617  0.00  0.00    +0.034 C 
BRANCH  17  18
ATOM     18  CG  LEU A   2      -3.094 -10.849  11.123  0.00  0.00    -0.015 C 
ATOM     20  CD1 LEU A   2      -3.695 -11.992  10.303  0.00  0.00    +0.007 C 
ATOM     21  CD2 LEU A   2      -3.573  -9.506  10.566  0.00  0.00    +0.007 C 
ENDBRANCH  17  18
ENDBRANCH  14  17
TORSDOF 6
ENDMDL
MODEL 3
REMARK VINA RESULT:      -6.1     27.966     29.937
REMARK  Name = 11867111
REMARK  10 active torsions:
REMARK  status: ('A' for Active; 'I' for Inactive)
REMARK    1  A    between atoms: S_1  and  C_27
REMARK    2  A    between atoms: S_1  and  C_29
REMARK    3  A    between atoms: O_5  and  C_23
REMARK    4  A    between atoms: O_5  and  C_28
REMARK    5  A    between atoms: N_8  and  C_11
REMARK    6  A    between atoms: CA_14  and  CB_17
REMARK    7  A    between atoms: CB_17  and  CG_18
REMARK    8  A    between atoms: CG_18  and  CD1_20
REMARK    9  A    between atoms: CG_18  and  CD2_21
REMARK   10  A    between atoms: C_19  and  C_22
REMARK                            x       y       z     vdW  Elec       q    Type
REMARK                         _______ _______ _______ _____ _____    ______ ____
ROOT
ATOM      2  O   LEU A   2      -4.569 -13.857   9.950  0.00  0.00    -0.274 OA
ATOM      3  O   UNK A   1      -2.734  -8.851  10.340  0.00  0.00    -0.274 OA
ATOM      6  N   UNK A   1      -3.397 -12.257  11.185  0.00  0.00    -0.288 N 
ATOM      7  N   LEU A   2      -3.900 -10.470   9.228  0.00  0.00    -0.302 N 
ATOM      9  C   UNK A   1      -3.366 -10.839  11.582  0.00  0.00    +0.164 C 
ATOM     10  C   UNK A   1      -2.193 -10.489  12.516  0.00  0.00    +0.054 C 
ATOM     11  C   UNK A   1      -1.982 -11.495  13.641  0.00  0.00    +0.077 C 
ATOM     12  C   UNK A   1      -1.839 -12.892  13.048  0.00  0.00    +0.041 C 
ATOM     13  C   UNK A   1      -3.029 -13.267  12.178  0.00  0.00    +0.110 C 
ATOM     14  CA  LEU A   2      -4.821 -11.581   9.287  0.00  0.00    +0.159 C 
ATOM     15  C   LEU A   2      -4.226 -12.686  10.135  0.00  0.00    +0.237 C 
ATOM     16  C   UNK A   1      -3.257  -9.965  10.335  0.00  0.00    +0.234 C 
ATOM     30  H   LEU A   2      -3.766  -9.998   8.340  0.00  0.00    +0.150 HD
ENDROOT
BRANCH  11   8
ATOM      4  O   UNK A   1      -1.746 -10.569  16.348  0.00  0.00    -0.270 OA
ATOM      8  N   UNK A   1      -3.038 -11.422  14.621  0.00  0.00    -0.308 N 
ATOM     19  C   UNK A   1      -2.827 -10.958  15.911  0.00  0.00    +0.248 C 
ATOM     31  H   UNK A   1      -3.931 -11.833  14.370  0.00  0.00    +0.149 HD
BRANCH  19  22
ATOM     22  C   UNK A   1      -4.011 -10.969  16.808  0.00  0.00    +0.078 A 
ATOM     23  C   UNK A   1      -5.204 -10.425  16.377  0.00  0.00    +0.133 A 
ATOM     24  C   UNK A   1      -3.871 -11.534  18.060  0.00  0.00    +0.018 A 
ATOM     25  C   UNK A   1      -6.304 -10.445  17.234  0.00  0.00    +0.061 A 
ATOM     26  C   UNK A   1      -4.971 -11.554  18.918  0.00  0.00    +0.015 A 
ATOM     27  C   UNK A   1      -6.187 -11.010  18.505  0.00  0.00    +0.011 A 
BRANCH  27   1
ATOM      1  S   UNK A   1      -7.593 -11.037  19.602  0.00  0.00    -0.128 S 
ATOM     29  C   UNK A   1      -8.106 -12.775  19.499  0.00  0.00    +0.090 C 
ENDBRANCH  27   1
BRANCH  23   5
ATOM      5  O   UNK A   1      -5.336  -9.869  15.139  0.00  0.00    -0.494 OA
ATOM     28  C   UNK A   1      -6.512 -10.201  14.404  0.00  0.00    +0.277 C 
ENDBRANCH  23   5
ENDBRANCH  19  22
ENDBRANCH  11   8
BRANCH  14  17
ATOM     17  CB  LEU A   2      -6.202 -11.172   9.781  0.00  0.00    +0.034 C 
BRANCH  17  18
ATOM     18  CG  LEU A   2      -6.799  -9.975   9.019  0.00  0.00    -0.015 C 
ATOM     20  CD1 LEU A   2      -7.725 -10.411   7.882  0.00  0.00    +0.007 C 
ATOM     21  CD2 LEU A   2      -7.561  -9.070   9.989  0.00  0.00    +0.007 C 
ENDBRANCH  17  18
ENDBRANCH  14  17
TORSDOF 6
ENDMDL
MODEL 4
REMARK VINA RESULT:      -5.9     28.168     30.398
REMARK  Name = 11867111
REMARK  10 active torsions:
REMARK  status: ('A' for Active; 'I' for Inactive)
REMARK    1  A    between atoms: S_1  and  C_27
REMARK    2  A    between atoms: S_1  and  C_29
REMARK    3  A    between atoms: O_5  and  C_23
REMARK    4  A    between atoms: O_5  and  C_28
REMARK    5  A    between atoms: N_8  and  C_11
REMARK    6  A    between atoms: CA_14  and  CB_17
REMARK    7  A    between atoms: CB_17  and  CG_18
REMARK    8  A    between atoms: CG_18  and  CD1_20
REMARK    9  A    between atoms: CG_18  and  CD2_21
REMARK   10  A    between atoms: C_19  and  C_22
REMARK                            x       y       z     vdW  Elec       q    Type
REMARK                         _______ _______ _______ _____ _____    ______ ____
ROOT
ATOM      2  O   LEU A   2      -4.783 -14.698  15.034  0.00  0.00    -0.274 OA
ATOM      3  O   UNK A   1      -1.938 -10.272  15.981  0.00  0.00    -0.274 OA
ATOM      6  N   UNK A   1      -4.539 -12.707  16.232  0.00  0.00    -0.288 N 
ATOM      7  N   LEU A   2      -2.287 -12.214  14.831  0.00  0.00    -0.302 N 
ATOM      9  C   UNK A   1      -4.135 -11.294  16.134  0.00  0.00    +0.164 C 
ATOM     10  C   UNK A   1      -4.275 -10.523  17.460  0.00  0.00    +0.054 C 
ATOM     11  C   UNK A   1      -5.587 -10.787  18.189  0.00  0.00    +0.077 C 
ATOM     12  C   UNK A   1      -5.763 -12.289  18.384  0.00  0.00    +0.041 C 
ATOM     13  C   UNK A   1      -5.692 -13.046  17.067  0.00  0.00    +0.110 C 
ATOM     14  CA  LEU A   2      -3.218 -13.112  14.187  0.00  0.00    +0.159 C 
ATOM     15  C   LEU A   2      -4.223 -13.613  15.205  0.00  0.00    +0.237 C 
ATOM     16  C   UNK A   1      -2.677 -11.212  15.689  0.00  0.00    +0.234 C 
ATOM     30  H   LEU A   2      -1.303 -12.285  14.593  0.00  0.00    +0.150 HD
ENDROOT
BRANCH  11   8
ATOM      4  O   UNK A   1      -8.291 -10.615  19.137  0.00  0.00    -0.270 OA
ATOM      8  N   UNK A   1      -6.705 -10.190  17.499  0.00  0.00    -0.308 N 
ATOM     19  C   UNK A   1      -7.982 -10.155  18.041  0.00  0.00    +0.248 C 
ATOM     31  H   UNK A   1      -6.552  -9.892  16.542  0.00  0.00    +0.149 HD
BRANCH  19  22
ATOM     22  C   UNK A   1      -9.029  -9.528  17.194  0.00  0.00    +0.078 A 
ATOM     23  C   UNK A   1      -9.411 -10.133  16.013  0.00  0.00    +0.133 A 
ATOM     24  C   UNK A   1      -9.592  -8.345  17.628  0.00  0.00    +0.018 A 
ATOM     25  C   UNK A   1     -10.396  -9.529  15.233  0.00  0.00    +0.061 A 
ATOM     26  C   UNK A   1     -10.577  -7.739  16.847  0.00  0.00    +0.015 A 
ATOM     27  C   UNK A   1     -10.979  -8.332  15.650  0.00  0.00    +0.011 A 
BRANCH  27   1
ATOM      1  S   UNK A   1     -12.239  -7.558  14.653  0.00  0.00    -0.128 S 
ATOM     29  C   UNK A   1     -11.904  -5.797  14.939  0.00  0.00    +0.090 C 
ENDBRANCH  27   1
BRANCH  23   5
ATOM      5  O   UNK A   1      -8.853 -11.303  15.590  0.00  0.00    -0.494 OA
ATOM     28  C   UNK A   1      -8.138 -11.270  14.357  0.00  0.00    +0.277 C 
ENDBRANCH  23   5
ENDBRANCH  19  22
ENDBRANCH  11   8
BRANCH  14  17
ATOM     17  CB  LEU A   2      -3.902 -12.481  12.983  0.00  0.00    +0.034 C 
BRANCH  17  18
ATOM     18  CG  LEU A   2      -2.957 -12.248  11.790  0.00  0.00    -0.015 C 
ATOM     20  CD1 LEU A   2      -3.595 -12.638  10.456  0.00  0.00    +0.007 C 
ATOM     21  CD2 LEU A   2      -2.526 -10.780  11.748  0.00  0.00    +0.007 C 
ENDBRANCH  17  18
ENDBRANCH  14  17
TORSDOF 6
ENDMDL
MODEL 5
REMARK VINA RESULT:      -5.8     27.599     30.016
REMARK  Name = 11867111
REMARK  10 active torsions:
REMARK  status: ('A' for Active; 'I' for Inactive)
REMARK    1  A    between atoms: S_1  and  C_27
REMARK    2  A    between atoms: S_1  and  C_29
REMARK    3  A    between atoms: O_5  and  C_23
REMARK    4  A    between atoms: O_5  and  C_28
REMARK    5  A    between atoms: N_8  and  C_11
REMARK    6  A    between atoms: CA_14  and  CB_17
REMARK    7  A    between atoms: CB_17  and  CG_18
REMARK    8  A    between atoms: CG_18  and  CD1_20
REMARK    9  A    between atoms: CG_18  and  CD2_21
REMARK   10  A    between atoms: C_19  and  C_22
REMARK                            x       y       z     vdW  Elec       q    Type
REMARK                         _______ _______ _______ _____ _____    ______ ____
ROOT
ATOM      2  O   LEU A   2      -4.128 -13.199  11.988  0.00  0.00    -0.274 OA
ATOM      3  O   UNK A   1      -1.222  -9.636  14.716  0.00  0.00    -0.274 OA
ATOM      6  N   UNK A   1      -3.726 -12.080  13.999  0.00  0.00    -0.288 N 
ATOM      7  N   LEU A   2      -1.721 -10.747  12.784  0.00  0.00    -0.302 N 
ATOM      9  C   UNK A   1      -3.358 -10.784  14.594  0.00  0.00    +0.164 C 
ATOM     10  C   UNK A   1      -3.303 -10.809  16.133  0.00  0.00    +0.054 C 
ATOM     11  C   UNK A   1      -4.485 -11.521  16.779  0.00  0.00    +0.077 C 
ATOM     12  C   UNK A   1      -4.612 -12.922  16.192  0.00  0.00    +0.041 C 
ATOM     13  C   UNK A   1      -4.735 -12.896  14.677  0.00  0.00    +0.110 C 
ATOM     14  CA  LEU A   2      -2.729 -11.271  11.892  0.00  0.00    +0.159 C 
ATOM     15  C   LEU A   2      -3.561 -12.306  12.623  0.00  0.00    +0.237 C 
ATOM     16  C   UNK A   1      -1.987 -10.358  14.077  0.00  0.00    +0.234 C 
ATOM     30  H   LEU A   2      -0.784 -10.599  12.422  0.00  0.00    +0.150 HD
ENDROOT
BRANCH  11   8
ATOM      4  O   UNK A   1      -7.045 -12.161  17.909  0.00  0.00    -0.270 OA
ATOM      8  N   UNK A   1      -5.702 -10.758  16.642  0.00  0.00    -0.308 N 
ATOM     19  C   UNK A   1      -6.897 -11.149  17.228  0.00  0.00    +0.248 C 
ATOM     31  H   UNK A   1      -5.685  -9.973  16.001  0.00  0.00    +0.149 HD
BRANCH  19  22
ATOM     22  C   UNK A   1      -8.065 -10.269  16.972  0.00  0.00    +0.078 A 
ATOM     23  C   UNK A   1      -8.340  -9.850  15.685  0.00  0.00    +0.133 A 
ATOM     24  C   UNK A   1      -8.846  -9.897  18.047  0.00  0.00    +0.018 A 
ATOM     25  C   UNK A   1      -9.442  -9.024  15.465  0.00  0.00    +0.061 A 
ATOM     26  C   UNK A   1      -9.948  -9.069  17.828  0.00  0.00    +0.015 A 
ATOM     27  C   UNK A   1     -10.245  -8.634  16.536  0.00  0.00    +0.011 A 
BRANCH  27   1
ATOM      1  S   UNK A   1     -11.654  -7.578  16.257  0.00  0.00    -0.128 S 
ATOM     29  C   UNK A   1     -10.861  -6.052  15.675  0.00  0.00    +0.090 C 
ENDBRANCH  27   1
BRANCH  23   5
ATOM      5  O   UNK A   1      -7.566 -10.221  14.626  0.00  0.00    -0.494 OA
ATOM     28  C   UNK A   1      -8.142 -11.131  13.692  0.00  0.00    +0.277 C 
ENDBRANCH  23   5
ENDBRANCH  19  22
ENDBRANCH  11   8
BRANCH  14  17
ATOM     17  CB  LEU A   2      -3.596 -10.179  11.282  0.00  0.00    +0.034 C 
BRANCH  17  18
ATOM     18  CG  LEU A   2      -3.567 -10.158   9.743  0.00  0.00    -0.015 C 
ATOM     20  CD1 LEU A   2      -4.426 -11.263   9.128  0.00  0.00    +0.007 C 
ATOM     21  CD2 LEU A   2      -4.038  -8.793   9.234  0.00  0.00    +0.007 C 
ENDBRANCH  17  18
ENDBRANCH  14  17
TORSDOF 6
ENDMDL
MODEL 6
REMARK VINA RESULT:      -5.8     28.111     30.823
REMARK  Name = 11867111
REMARK  10 active torsions:
REMARK  status: ('A' for Active; 'I' for Inactive)
REMARK    1  A    between atoms: S_1  and  C_27
REMARK    2  A    between atoms: S_1  and  C_29
REMARK    3  A    between atoms: O_5  and  C_23
REMARK    4  A    between atoms: O_5  and  C_28
REMARK    5  A    between atoms: N_8  and  C_11
REMARK    6  A    between atoms: CA_14  and  CB_17
REMARK    7  A    between atoms: CB_17  and  CG_18
REMARK    8  A    between atoms: CG_18  and  CD1_20
REMARK    9  A    between atoms: CG_18  and  CD2_21
REMARK   10  A    between atoms: C_19  and  C_22
REMARK                            x       y       z     vdW  Elec       q    Type
REMARK                         _______ _______ _______ _____ _____    ______ ____
ROOT
ATOM      2  O   LEU A   2      -5.507 -10.568  18.684  0.00  0.00    -0.274 OA
ATOM      3  O   UNK A   1      -4.630 -15.137  16.050  0.00  0.00    -0.274 OA
ATOM      6  N   UNK A   1      -4.474 -11.672  16.903  0.00  0.00    -0.288 N 
ATOM      7  N   LEU A   2      -5.632 -13.962  17.733  0.00  0.00    -0.302 N 
ATOM      9  C   UNK A   1      -4.651 -12.715  15.878  0.00  0.00    +0.164 C 
ATOM     10  C   UNK A   1      -3.427 -12.884  14.959  0.00  0.00    +0.054 C 
ATOM     11  C   UNK A   1      -2.840 -11.567  14.466  0.00  0.00    +0.077 C 
ATOM     12  C   UNK A   1      -2.533 -10.673  15.663  0.00  0.00    +0.041 C 
ATOM     13  C   UNK A   1      -3.757 -10.450  16.537  0.00  0.00    +0.110 C 
ATOM     14  CA  LEU A   2      -6.300 -12.755  18.161  0.00  0.00    +0.159 C 
ATOM     15  C   LEU A   2      -5.369 -11.572  17.981  0.00  0.00    +0.237 C 
ATOM     16  C   UNK A   1      -4.922 -14.055  16.557  0.00  0.00    +0.234 C 
ATOM     30  H   LEU A   2      -5.743 -14.802  18.292  0.00  0.00    +0.150 HD
ENDROOT
BRANCH  11   8
ATOM      4  O   UNK A   1      -2.447 -11.399  11.628  0.00  0.00    -0.270 OA
ATOM      8  N   UNK A   1      -3.711 -10.923  13.513  0.00  0.00    -0.308 N 
ATOM     19  C   UNK A   1      -3.435 -10.894  12.153  0.00  0.00    +0.248 C 
ATOM     31  H   UNK A   1      -4.487 -10.386  13.885  0.00  0.00    +0.149 HD
BRANCH  19  22
ATOM     22  C   UNK A   1      -4.418 -10.170  11.307  0.00  0.00    +0.078 A 
ATOM     23  C   UNK A   1      -5.763 -10.463  11.412  0.00  0.00    +0.133 A 
ATOM     24  C   UNK A   1      -3.941  -9.214  10.433  0.00  0.00    +0.018 A 
ATOM     25  C   UNK A   1      -6.669  -9.772  10.608  0.00  0.00    +0.061 A 
ATOM     26  C   UNK A   1      -4.847  -8.523   9.627  0.00  0.00    +0.015 A 
ATOM     27  C   UNK A   1      -6.211  -8.802   9.716  0.00  0.00    +0.011 A 
BRANCH  27   1
ATOM      1  S   UNK A   1      -7.368  -7.917   8.688  0.00  0.00    -0.128 S 
ATOM     29  C   UNK A   1      -8.954  -8.360   9.453  0.00  0.00    +0.090 C 
ENDBRANCH  27   1
BRANCH  23   5
ATOM      5  O   UNK A   1      -6.228 -11.408  12.277  0.00  0.00    -0.494 OA
ATOM     28  C   UNK A   1      -7.089 -12.409  11.741  0.00  0.00    +0.277 C 
ENDBRANCH  23   5
ENDBRANCH  19  22
ENDBRANCH  11   8
BRANCH  14  17
ATOM     17  CB  LEU A   2      -7.630 -12.539  17.454  0.00  0.00    +0.034 C 
BRANCH  17  18
ATOM     18  CG  LEU A   2      -8.805 -12.289  18.417  0.00  0.00    -0.015 C 
ATOM     20  CD1 LEU A   2      -8.541 -12.846  19.816  0.00  0.00    +0.007 C 
ATOM     21  CD2 LEU A   2      -9.095 -10.789  18.503  0.00  0.00    +0.007 C 
ENDBRANCH  17  18
ENDBRANCH  14  17
TORSDOF 6
ENDMDL
MODEL 7
REMARK VINA RESULT:      -5.7     19.270     22.455
REMARK  Name = 11867111
REMARK  10 active torsions:
REMARK  status: ('A' for Active; 'I' for Inactive)
REMARK    1  A    between atoms: S_1  and  C_27
REMARK    2  A    between atoms: S_1  and  C_29
REMARK    3  A    between atoms: O_5  and  C_23
REMARK    4  A    between atoms: O_5  and  C_28
REMARK    5  A    between atoms: N_8  and  C_11
REMARK    6  A    between atoms: CA_14  and  CB_17
REMARK    7  A    between atoms: CB_17  and  CG_18
REMARK    8  A    between atoms: CG_18  and  CD1_20
REMARK    9  A    between atoms: CG_18  and  CD2_21
REMARK   10  A    between atoms: C_19  and  C_22
REMARK                            x       y       z     vdW  Elec       q    Type
REMARK                         _______ _______ _______ _____ _____    ______ ____
ROOT
ATOM      2  O   LEU A   2       9.851  10.751   3.827  0.00  0.00    -0.274 OA
ATOM      3  O   UNK A   1       7.784   6.239   5.815  0.00  0.00    -0.274 OA
ATOM      6  N   UNK A   1      10.155   8.507   4.403  0.00  0.00    -0.288 N 
ATOM      7  N   LEU A   2       7.573   8.423   5.179  0.00  0.00    -0.302 N 
ATOM      9  C   UNK A   1       9.523   7.177   4.404  0.00  0.00    +0.164 C 
ATOM     10  C   UNK A   1      10.427   6.070   4.979  0.00  0.00    +0.054 C 
ATOM     11  C   UNK A   1      11.862   6.120   4.469  0.00  0.00    +0.077 C 
ATOM     12  C   UNK A   1      12.437   7.510   4.718  0.00  0.00    +0.041 C 
ATOM     13  C   UNK A   1      11.582   8.602   4.093  0.00  0.00    +0.110 C 
ATOM     14  CA  LEU A   2       7.886   9.461   4.225  0.00  0.00    +0.159 C 
ATOM     15  C   LEU A   2       9.387   9.661   4.171  0.00  0.00    +0.237 C 
ATOM     16  C   UNK A   1       8.243   7.222   5.233  0.00  0.00    +0.234 C 
ATOM     30  H   LEU A   2       6.780   8.558   5.799  0.00  0.00    +0.150 HD
ENDROOT
BRANCH  11   8
ATOM      4  O   UNK A   1      11.107   3.588   3.346  0.00  0.00    -0.270 OA
ATOM      8  N   UNK A   1      11.944   5.735   3.081  0.00  0.00    -0.308 N 
ATOM     19  C   UNK A   1      11.554   4.482   2.631  0.00  0.00    +0.248 C 
ATOM     31  H   UNK A   1      12.409   6.379   2.450  0.00  0.00    +0.149 HD
BRANCH  19  22
ATOM     22  C   UNK A   1      11.724   4.232   1.177  0.00  0.00    +0.078 A 
ATOM     23  C   UNK A   1      12.798   3.488   0.730  0.00  0.00    +0.133 A 
ATOM     24  C   UNK A   1      10.788   4.762   0.313  0.00  0.00    +0.018 A 
ATOM     25  C   UNK A   1      12.941   3.264  -0.640  0.00  0.00    +0.061 A 
ATOM     26  C   UNK A   1      10.931   4.540  -1.057  0.00  0.00    +0.015 A 
ATOM     27  C   UNK A   1      12.007   3.790  -1.533  0.00  0.00    +0.011 A 
BRANCH  27   1
ATOM      1  S   UNK A   1      12.188   3.505  -3.283  0.00  0.00    -0.128 S 
ATOM     29  C   UNK A   1      10.562   2.822  -3.715  0.00  0.00    +0.090 C 
ENDBRANCH  27   1
BRANCH  23   5
ATOM      5  O   UNK A   1      13.720   2.966   1.588  0.00  0.00    -0.494 OA
ATOM     28  C   UNK A   1      15.019   3.551   1.575  0.00  0.00    +0.277 C 
ENDBRANCH  23   5
ENDBRANCH  19  22
ENDBRANCH  11   8
BRANCH  14  17
ATOM     17  CB  LEU A   2       7.303   9.186   2.847  0.00  0.00    +0.034 C 
BRANCH  17  18
ATOM     18  CG  LEU A   2       6.335  10.279   2.358  0.00  0.00    -0.015 C 
ATOM     20  CD1 LEU A   2       5.503   9.826   1.157  0.00  0.00    +0.007 C 
ATOM     21  CD2 LEU A   2       5.408  10.699   3.501  0.00  0.00    +0.007 C 
ENDBRANCH  17  18
ENDBRANCH  14  17
TORSDOF 6
ENDMDL
MODEL 8
REMARK VINA RESULT:      -5.7     17.263     20.439
REMARK  Name = 11867111
REMARK  10 active torsions:
REMARK  status: ('A' for Active; 'I' for Inactive)
REMARK    1  A    between atoms: S_1  and  C_27
REMARK    2  A    between atoms: S_1  and  C_29
REMARK    3  A    between atoms: O_5  and  C_23
REMARK    4  A    between atoms: O_5  and  C_28
REMARK    5  A    between atoms: N_8  and  C_11
REMARK    6  A    between atoms: CA_14  and  CB_17
REMARK    7  A    between atoms: CB_17  and  CG_18
REMARK    8  A    between atoms: CG_18  and  CD1_20
REMARK    9  A    between atoms: CG_18  and  CD2_21
REMARK   10  A    between atoms: C_19  and  C_22
REMARK                            x       y       z     vdW  Elec       q    Type
REMARK                         _______ _______ _______ _____ _____    ______ ____
ROOT
ATOM      2  O   LEU A   2      13.079   7.007  -1.278  0.00  0.00    -0.274 OA
ATOM      3  O   UNK A   1      14.726   3.063   1.933  0.00  0.00    -0.274 OA
ATOM      6  N   UNK A   1      12.565   5.449   0.386  0.00  0.00    -0.288 N 
ATOM      7  N   LEU A   2      15.140   4.647   0.341  0.00  0.00    -0.302 N 
ATOM      9  C   UNK A   1      13.062   4.802   1.612  0.00  0.00    +0.164 C 
ATOM     10  C   UNK A   1      12.064   3.800   2.223  0.00  0.00    +0.054 C 
ATOM     11  C   UNK A   1      10.632   4.317   2.282  0.00  0.00    +0.077 C 
ATOM     12  C   UNK A   1      10.202   4.771   0.892  0.00  0.00    +0.041 C 
ATOM     13  C   UNK A   1      11.149   5.811   0.313  0.00  0.00    +0.110 C 
ATOM     14  CA  LEU A   2      14.914   5.987  -0.149  0.00  0.00    +0.159 C 
ATOM     15  C   LEU A   2      13.439   6.175  -0.441  0.00  0.00    +0.237 C 
ATOM     16  C   UNK A   1      14.356   4.053   1.303  0.00  0.00    +0.234 C 
ATOM     30  H   LEU A   2      15.953   4.140   0.006  0.00  0.00    +0.150 HD
ENDROOT
BRANCH  11   8
ATOM      4  O   UNK A   1      10.097   3.969   5.081  0.00  0.00    -0.270 OA
ATOM      8  N   UNK A   1      10.487   5.361   3.268  0.00  0.00    -0.308 N 
ATOM     19  C   UNK A   1      10.227   5.093   4.604  0.00  0.00    +0.248 C 
ATOM     31  H   UNK A   1      10.467   6.317   2.929  0.00  0.00    +0.149 HD
BRANCH  19  22
ATOM     22  C   UNK A   1      10.080   6.278   5.487  0.00  0.00    +0.078 A 
ATOM     23  C   UNK A   1      11.143   7.141   5.662  0.00  0.00    +0.133 A 
ATOM     24  C   UNK A   1       8.864   6.476   6.110  0.00  0.00    +0.018 A 
ATOM     25  C   UNK A   1      10.984   8.248   6.496  0.00  0.00    +0.061 A 
ATOM     26  C   UNK A   1       8.705   7.582   6.945  0.00  0.00    +0.015 A 
ATOM     27  C   UNK A   1       9.765   8.468   7.137  0.00  0.00    +0.011 A 
BRANCH  27   1
ATOM      1  S   UNK A   1       9.560   9.883   8.203  0.00  0.00    -0.128 S 
ATOM     29  C   UNK A   1      11.267  10.484   8.349  0.00  0.00    +0.090 C 
ENDBRANCH  27   1
BRANCH  23   5
ATOM      5  O   UNK A   1      12.342   6.942   5.044  0.00  0.00    -0.494 OA
ATOM     28  C   UNK A   1      13.509   7.364   5.744  0.00  0.00    +0.277 C 
ENDBRANCH  23   5
ENDBRANCH  19  22
ENDBRANCH  11   8
BRANCH  14  17
ATOM     17  CB  LEU A   2      15.441   7.054   0.800  0.00  0.00    +0.034 C 
BRANCH  17  18
ATOM     18  CG  LEU A   2      16.938   7.360   0.613  0.00  0.00    -0.015 C 
ATOM     20  CD1 LEU A   2      17.226   8.076  -0.708  0.00  0.00    +0.007 C 
ATOM     21  CD2 LEU A   2      17.445   8.207   1.782  0.00  0.00    +0.007 C 
ENDBRANCH  17  18
ENDBRANCH  14  17
TORSDOF 6
ENDMDL
MODEL 9
REMARK VINA RESULT:      -5.6     11.635     14.090
REMARK  Name = 11867111
REMARK  10 active torsions:
REMARK  status: ('A' for Active; 'I' for Inactive)
REMARK    1  A    between atoms: S_1  and  C_27
REMARK    2  A    between atoms: S_1  and  C_29
REMARK    3  A    between atoms: O_5  and  C_23
REMARK    4  A    between atoms: O_5  and  C_28
REMARK    5  A    between atoms: N_8  and  C_11
REMARK    6  A    between atoms: CA_14  and  CB_17
REMARK    7  A    between atoms: CB_17  and  CG_18
REMARK    8  A    between atoms: CG_18  and  CD1_20
REMARK    9  A    between atoms: CG_18  and  CD2_21
REMARK   10  A    between atoms: C_19  and  C_22
REMARK                            x       y       z     vdW  Elec       q    Type
REMARK                         _______ _______ _______ _____ _____    ______ ____
ROOT
ATOM      2  O   LEU A   2      17.367  -2.139  26.364  0.00  0.00    -0.274 OA
ATOM      3  O   UNK A   1      21.326  -5.300  24.657  0.00  0.00    -0.274 OA
ATOM      6  N   UNK A   1      19.661  -2.487  26.098  0.00  0.00    -0.288 N 
ATOM      7  N   LEU A   2      19.102  -4.849  24.921  0.00  0.00    -0.302 N 
ATOM      9  C   UNK A   1      20.693  -3.017  25.190  0.00  0.00    +0.164 C 
ATOM     10  C   UNK A   1      22.125  -2.870  25.738  0.00  0.00    +0.054 C 
ATOM     11  C   UNK A   1      22.415  -1.501  26.341  0.00  0.00    +0.077 C 
ATOM     12  C   UNK A   1      21.366  -1.184  27.401  0.00  0.00    +0.041 C 
ATOM     13  C   UNK A   1      19.952  -1.263  26.845  0.00  0.00    +0.110 C 
ATOM     14  CA  LEU A   2      18.030  -3.882  24.879  0.00  0.00    +0.159 C 
ATOM     15  C   LEU A   2      18.304  -2.781  25.884  0.00  0.00    +0.237 C 
ATOM     16  C   UNK A   1      20.433  -4.500  24.935  0.00  0.00    +0.234 C 
ATOM     30  H   LEU A   2      18.866  -5.835  24.875  0.00  0.00    +0.150 HD
ENDROOT
BRANCH  11   8
ATOM      4  O   UNK A   1      24.782  -0.142  25.450  0.00  0.00    -0.270 OA
ATOM      8  N   UNK A   1      22.491  -0.480  25.324  0.00  0.00    -0.308 N 
ATOM     19  C   UNK A   1      23.687   0.121  24.960  0.00  0.00    +0.248 C 
ATOM     31  H   UNK A   1      21.613  -0.129  24.956  0.00  0.00    +0.149 HD
BRANCH  19  22
ATOM     22  C   UNK A   1      23.593   1.173  23.914  0.00  0.00    +0.078 A 
ATOM     23  C   UNK A   1      22.934   2.356  24.188  0.00  0.00    +0.133 A 
ATOM     24  C   UNK A   1      24.177   0.924  22.689  0.00  0.00    +0.018 A 
ATOM     25  C   UNK A   1      22.857   3.330  23.193  0.00  0.00    +0.061 A 
ATOM     26  C   UNK A   1      24.099   1.898  21.693  0.00  0.00    +0.015 A 
ATOM     27  C   UNK A   1      23.440   3.102  21.946  0.00  0.00    +0.011 A 
BRANCH  27   1
ATOM      1  S   UNK A   1      23.343   4.347  20.674  0.00  0.00    -0.128 S 
ATOM     29  C   UNK A   1      24.799   3.955  19.663  0.00  0.00    +0.090 C 
ENDBRANCH  27   1
BRANCH  23   5
ATOM      5  O   UNK A   1      22.360   2.597  25.400  0.00  0.00    -0.494 OA
ATOM     28  C   UNK A   1      22.695   3.825  26.042  0.00  0.00    +0.277 C 
ENDBRANCH  23   5
ENDBRANCH  19  22
ENDBRANCH  11   8
BRANCH  14  17
ATOM     17  CB  LEU A   2      17.799  -3.325  23.481  0.00  0.00    +0.034 C 
BRANCH  17  18
ATOM     18  CG  LEU A   2      16.667  -2.284  23.413  0.00  0.00    -0.015 C 
ATOM     20  CD1 LEU A   2      17.089  -1.011  22.679  0.00  0.00    +0.007 C 
ATOM     21  CD2 LEU A   2      15.441  -2.894  22.729  0.00  0.00    +0.007 C 
ENDBRANCH  17  18
ENDBRANCH  14  17
TORSDOF 6
ENDMDL
MODEL 10
REMARK VINA RESULT:      -5.6     27.710     31.210
REMARK  Name = 11867111
REMARK  10 active torsions:
REMARK  status: ('A' for Active; 'I' for Inactive)
REMARK    1  A    between atoms: S_1  and  C_27
REMARK    2  A    between atoms: S_1  and  C_29
REMARK    3  A    between atoms: O_5  and  C_23
REMARK    4  A    between atoms: O_5  and  C_28
REMARK    5  A    between atoms: N_8  and  C_11
REMARK    6  A    between atoms: CA_14  and  CB_17
REMARK    7  A    between atoms: CB_17  and  CG_18
REMARK    8  A    between atoms: CG_18  and  CD1_20
REMARK    9  A    between atoms: CG_18  and  CD2_21
REMARK   10  A    between atoms: C_19  and  C_22
REMARK                            x       y       z     vdW  Elec       q    Type
REMARK                         _______ _______ _______ _____ _____    ______ ____
ROOT
ATOM      2  O   LEU A   2      -5.334 -13.728  15.343  0.00  0.00    -0.274 OA
ATOM      3  O   UNK A   1      -4.859 -11.478  20.169  0.00  0.00    -0.274 OA
ATOM      6  N   UNK A   1      -6.364 -12.994  17.307  0.00  0.00    -0.288 N 
ATOM      7  N   LEU A   2      -3.950 -12.185  18.197  0.00  0.00    -0.302 N 
ATOM      9  C   UNK A   1      -6.374 -11.932  18.327  0.00  0.00    +0.164 C 
ATOM     10  C   UNK A   1      -7.448 -12.134  19.412  0.00  0.00    +0.054 C 
ATOM     11  C   UNK A   1      -8.812 -12.533  18.860  0.00  0.00    +0.077 C 
ATOM     12  C   UNK A   1      -8.657 -13.766  17.977  0.00  0.00    +0.041 C 
ATOM     13  C   UNK A   1      -7.645 -13.546  16.863  0.00  0.00    +0.110 C 
ATOM     14  CA  LEU A   2      -4.061 -12.295  16.761  0.00  0.00    +0.159 C 
ATOM     15  C   LEU A   2      -5.289 -13.112  16.411  0.00  0.00    +0.237 C 
ATOM     16  C   UNK A   1      -5.012 -11.874  19.014  0.00  0.00    +0.234 C 
ATOM     30  H   LEU A   2      -3.032 -12.281  18.620  0.00  0.00    +0.150 HD
ENDROOT
BRANCH  11   8
ATOM      4  O   UNK A   1     -10.263 -10.358  20.046  0.00  0.00    -0.270 OA
ATOM      8  N   UNK A   1      -9.443 -11.438  18.165  0.00  0.00    -0.308 N 
ATOM     19  C   UNK A   1     -10.125 -10.428  18.828  0.00  0.00    +0.248 C 
ATOM     31  H   UNK A   1      -9.470 -11.488  17.152  0.00  0.00    +0.149 HD
BRANCH  19  22
ATOM     22  C   UNK A   1     -10.741  -9.386  17.967  0.00  0.00    +0.078 A 
ATOM     23  C   UNK A   1     -12.066  -9.497  17.595  0.00  0.00    +0.133 A 
ATOM     24  C   UNK A   1      -9.952  -8.328  17.564  0.00  0.00    +0.018 A 
ATOM     25  C   UNK A   1     -12.625  -8.508  16.786  0.00  0.00    +0.061 A 
ATOM     26  C   UNK A   1     -10.510  -7.339  16.753  0.00  0.00    +0.015 A 
ATOM     27  C   UNK A   1     -11.847  -7.429  16.365  0.00  0.00    +0.011 A 
BRANCH  27   1
ATOM      1  S   UNK A   1     -12.561  -6.164  15.332  0.00  0.00    -0.128 S 
ATOM     29  C   UNK A   1     -12.342  -6.875  13.676  0.00  0.00    +0.090 C 
ENDBRANCH  27   1
BRANCH  23   5
ATOM      5  O   UNK A   1     -12.841 -10.544  17.997  0.00  0.00    -0.494 OA
ATOM     28  C   UNK A   1     -13.476 -11.309  16.975  0.00  0.00    +0.277 C 
ENDBRANCH  23   5
ENDBRANCH  19  22
ENDBRANCH  11   8
BRANCH  14  17
ATOM     17  CB  LEU A   2      -4.070 -10.939  16.069  0.00  0.00    +0.034 C 
BRANCH  17  18
ATOM     18  CG  LEU A   2      -2.817 -10.675  15.216  0.00  0.00    -0.015 C 
ATOM     20  CD1 LEU A   2      -1.547 -10.572  16.062  0.00  0.00    +0.007 C 
ATOM     21  CD2 LEU A   2      -2.655 -11.784  14.173  0.00  0.00    +0.007 C 
ENDBRANCH  17  18
ENDBRANCH  14  17
TORSDOF 6
ENDMDL
