MODEL 1
REMARK VINA RESULT:      -6.8      0.000      0.000
REMARK  Name = 45784173
REMARK  6 active torsions:
REMARK  status: ('A' for Active; 'I' for Inactive)
REMARK    1  A    between atoms: N_3  and  C_10
REMARK    2  A    between atoms: N_5  and  C_19
REMARK    3  A    between atoms: N_5  and  C_24
REMARK    4  A    between atoms: N_5  and  C_25
REMARK    5  A    between atoms: C_6  and  C_11
REMARK    6  A    between atoms: C_10  and  C_12
REMARK                            x       y       z     vdW  Elec       q    Type
REMARK                         _______ _______ _______ _____ _____    ______ ____
ROOT
ATOM      3  N   UNL     1      12.754   8.339  19.924  0.00  0.00    -0.297 NA
ATOM      6  C   UNL     1      15.014   8.146  19.327  0.00  0.00    +0.090 C 
ATOM      7  C   UNL     1      14.150   7.338  18.343  0.00  0.00    +0.029 C 
ATOM      8  C   UNL     1      14.089   8.420  20.521  0.00  0.00    +0.097 C 
ATOM      9  C   UNL     1      12.806   7.175  19.039  0.00  0.00    +0.085 C 
ENDROOT
BRANCH   6  11
ATOM      1 CL   UNL     1      21.358   4.251  20.821  0.00  0.00    -0.083 Cl
ATOM      2  O   UNL     1      17.036   8.123  20.686  0.00  0.00    -0.439 OA
ATOM      4  N   UNL     1      16.833   6.364  19.270  0.00  0.00    -0.213 NA
ATOM     11  C   UNL     1      16.311   7.482  19.726  0.00  0.00    +0.201 A 
ATOM     13  C   UNL     1      18.002   6.247  19.982  0.00  0.00    +0.111 A 
ATOM     14  C   UNL     1      18.130   7.321  20.850  0.00  0.00    +0.155 A 
ATOM     20  C   UNL     1      19.008   5.271  19.959  0.00  0.00    +0.051 A 
ATOM     21  C   UNL     1      19.198   7.515  21.718  0.00  0.00    +0.050 A 
ATOM     22  C   UNL     1      20.102   5.432  20.822  0.00  0.00    +0.043 A 
ATOM     23  C   UNL     1      20.192   6.533  21.683  0.00  0.00    +0.024 A 
ENDBRANCH   6  11
BRANCH   3  10
ATOM     10  C   UNL     1      11.704   8.228  20.925  0.00  0.00    +0.119 C 
BRANCH  10  12
ATOM     12  C   UNL     1      11.495   9.523  21.665  0.00  0.00    -0.033 A 
ATOM     15  C   UNL     1      11.684  10.740  21.010  0.00  0.00    +0.007 A 
ATOM     16  C   UNL     1      11.109   9.505  23.005  0.00  0.00    +0.007 A 
ATOM     17  C   UNL     1      11.489  11.939  21.695  0.00  0.00    +0.023 A 
ATOM     18  C   UNL     1      10.914  10.704  23.691  0.00  0.00    +0.023 A 
ATOM     19  C   UNL     1      11.104  11.921  23.036  0.00  0.00    +0.029 A 
BRANCH  19   5
ATOM      5  N   UNL     1      10.906  13.133  23.729  0.00  0.00    -0.336 N 
ATOM     24  C   UNL     1      11.030  14.402  23.039  0.00  0.00    +0.129 C 
ATOM     25  C   UNL     1      10.569  13.126  25.139  0.00  0.00    +0.129 C 
ENDBRANCH  19   5
ENDBRANCH  10  12
ENDBRANCH   3  10
TORSDOF 4
ENDMDL
MODEL 2
REMARK VINA RESULT:      -6.7     26.925     29.254
REMARK  Name = 45784173
REMARK  6 active torsions:
REMARK  status: ('A' for Active; 'I' for Inactive)
REMARK    1  A    between atoms: N_3  and  C_10
REMARK    2  A    between atoms: N_5  and  C_19
REMARK    3  A    between atoms: N_5  and  C_24
REMARK    4  A    between atoms: N_5  and  C_25
REMARK    5  A    between atoms: C_6  and  C_11
REMARK    6  A    between atoms: C_10  and  C_12
REMARK                            x       y       z     vdW  Elec       q    Type
REMARK                         _______ _______ _______ _____ _____    ______ ____
ROOT
ATOM      3  N   UNL     1      -1.998 -11.012  13.696  0.00  0.00    -0.297 NA
ATOM      6  C   UNL     1      -3.113 -10.146  15.569  0.00  0.00    +0.090 C 
ATOM      7  C   UNL     1      -1.799 -10.812  16.014  0.00  0.00    +0.029 C 
ATOM      8  C   UNL     1      -3.349 -10.665  14.144  0.00  0.00    +0.097 C 
ATOM      9  C   UNL     1      -1.383 -11.687  14.839  0.00  0.00    +0.085 C 
ENDROOT
BRANCH   6  11
ATOM      1 CL   UNL     1      -9.423 -10.858  19.730  0.00  0.00    -0.083 Cl
ATOM      2  O   UNL     1      -4.071 -11.246  17.521  0.00  0.00    -0.439 OA
ATOM      4  N   UNL     1      -5.499  -9.874  16.418  0.00  0.00    -0.213 NA
ATOM     11  C   UNL     1      -4.289 -10.386  16.486  0.00  0.00    +0.201 A 
ATOM     13  C   UNL     1      -6.142 -10.435  17.495  0.00  0.00    +0.111 A 
ATOM     14  C   UNL     1      -5.271 -11.275  18.172  0.00  0.00    +0.155 A 
ATOM     20  C   UNL     1      -7.452 -10.291  17.970  0.00  0.00    +0.051 A 
ATOM     21  C   UNL     1      -5.598 -12.003  19.310  0.00  0.00    +0.050 A 
ATOM     22  C   UNL     1      -7.820 -11.010  19.117  0.00  0.00    +0.043 A 
ATOM     23  C   UNL     1      -6.909 -11.848  19.772  0.00  0.00    +0.024 A 
ENDBRANCH   6  11
BRANCH   3  10
ATOM     10  C   UNL     1      -2.005 -11.841  12.501  0.00  0.00    +0.119 C 
BRANCH  10  12
ATOM     12  C   UNL     1      -2.907 -11.279  11.433  0.00  0.00    -0.033 A 
ATOM     15  C   UNL     1      -2.707  -9.982  10.962  0.00  0.00    +0.007 A 
ATOM     16  C   UNL     1      -3.941 -12.059  10.914  0.00  0.00    +0.007 A 
ATOM     17  C   UNL     1      -3.542  -9.463   9.972  0.00  0.00    +0.023 A 
ATOM     18  C   UNL     1      -4.776 -11.540   9.924  0.00  0.00    +0.023 A 
ATOM     19  C   UNL     1      -4.576 -10.242   9.454  0.00  0.00    +0.029 A 
BRANCH  19   5
ATOM      5  N   UNL     1      -5.420  -9.718   8.453  0.00  0.00    -0.336 N 
ATOM     24  C   UNL     1      -5.330 -10.203   7.090  0.00  0.00    +0.129 C 
ATOM     25  C   UNL     1      -6.393  -8.693   8.774  0.00  0.00    +0.129 C 
ENDBRANCH  19   5
ENDBRANCH  10  12
ENDBRANCH   3  10
TORSDOF 4
ENDMDL
MODEL 3
REMARK VINA RESULT:      -6.6      3.786      9.867
REMARK  Name = 45784173
REMARK  6 active torsions:
REMARK  status: ('A' for Active; 'I' for Inactive)
REMARK    1  A    between atoms: N_3  and  C_10
REMARK    2  A    between atoms: N_5  and  C_19
REMARK    3  A    between atoms: N_5  and  C_24
REMARK    4  A    between atoms: N_5  and  C_25
REMARK    5  A    between atoms: C_6  and  C_11
REMARK    6  A    between atoms: C_10  and  C_12
REMARK                            x       y       z     vdW  Elec       q    Type
REMARK                         _______ _______ _______ _____ _____    ______ ____
ROOT
ATOM      3  N   UNL     1      18.013   6.327  20.713  0.00  0.00    -0.297 NA
ATOM      6  C   UNL     1      15.726   6.660  21.113  0.00  0.00    +0.090 C 
ATOM      7  C   UNL     1      15.935   6.214  19.655  0.00  0.00    +0.029 C 
ATOM      8  C   UNL     1      17.120   7.086  21.592  0.00  0.00    +0.097 C 
ATOM      9  C   UNL     1      17.417   6.438  19.382  0.00  0.00    +0.085 C 
ENDROOT
BRANCH   6  11
ATOM      1 CL   UNL     1      11.014  12.571  21.816  0.00  0.00    -0.083 Cl
ATOM      2  O   UNL     1      13.481   7.318  21.795  0.00  0.00    -0.439 OA
ATOM      4  N   UNL     1      14.781   9.024  21.061  0.00  0.00    -0.213 NA
ATOM     11  C   UNL     1      14.682   7.735  21.305  0.00  0.00    +0.201 A 
ATOM     13  C   UNL     1      13.546   9.509  21.418  0.00  0.00    +0.111 A 
ATOM     14  C   UNL     1      12.748   8.468  21.868  0.00  0.00    +0.155 A 
ATOM     20  C   UNL     1      13.018  10.807  21.394  0.00  0.00    +0.051 A 
ATOM     21  C   UNL     1      11.437   8.608  22.307  0.00  0.00    +0.050 A 
ATOM     22  C   UNL     1      11.697  10.989  21.830  0.00  0.00    +0.043 A 
ATOM     23  C   UNL     1      10.925   9.909  22.278  0.00  0.00    +0.024 A 
ENDBRANCH   6  11
BRANCH   3  10
ATOM     10  C   UNL     1      19.381   6.821  20.751  0.00  0.00    +0.119 C 
BRANCH  10  12
ATOM     12  C   UNL     1      20.347   5.765  21.220  0.00  0.00    -0.033 A 
ATOM     15  C   UNL     1      20.508   4.591  20.484  0.00  0.00    +0.007 A 
ATOM     16  C   UNL     1      21.081   5.963  22.389  0.00  0.00    +0.007 A 
ATOM     17  C   UNL     1      21.404   3.614  20.919  0.00  0.00    +0.023 A 
ATOM     18  C   UNL     1      21.977   4.986  22.823  0.00  0.00    +0.023 A 
ATOM     19  C   UNL     1      22.138   3.811  22.088  0.00  0.00    +0.029 A 
BRANCH  19   5
ATOM      5  N   UNL     1      23.044   2.824  22.528  0.00  0.00    -0.336 N 
ATOM     24  C   UNL     1      23.270   2.613  23.944  0.00  0.00    +0.129 C 
ATOM     25  C   UNL     1      23.756   2.001  21.570  0.00  0.00    +0.129 C 
ENDBRANCH  19   5
ENDBRANCH  10  12
ENDBRANCH   3  10
TORSDOF 4
ENDMDL
MODEL 4
REMARK VINA RESULT:      -6.6      3.450      6.013
REMARK  Name = 45784173
REMARK  6 active torsions:
REMARK  status: ('A' for Active; 'I' for Inactive)
REMARK    1  A    between atoms: N_3  and  C_10
REMARK    2  A    between atoms: N_5  and  C_19
REMARK    3  A    between atoms: N_5  and  C_24
REMARK    4  A    between atoms: N_5  and  C_25
REMARK    5  A    between atoms: C_6  and  C_11
REMARK    6  A    between atoms: C_10  and  C_12
REMARK                            x       y       z     vdW  Elec       q    Type
REMARK                         _______ _______ _______ _____ _____    ______ ____
ROOT
ATOM      3  N   UNL     1      18.205   7.026  21.239  0.00  0.00    -0.297 NA
ATOM      6  C   UNL     1      19.972   5.605  21.840  0.00  0.00    +0.090 C 
ATOM      7  C   UNL     1      20.073   6.918  22.636  0.00  0.00    +0.029 C 
ATOM      8  C   UNL     1      18.995   5.918  20.697  0.00  0.00    +0.097 C 
ATOM      9  C   UNL     1      19.180   7.902  21.891  0.00  0.00    +0.085 C 
ENDROOT
BRANCH   6  11
ATOM      1 CL   UNL     1      26.759   3.555  19.123  0.00  0.00    -0.083 Cl
ATOM      2  O   UNL     1      21.509   3.731  21.592  0.00  0.00    -0.439 OA
ATOM      4  N   UNL     1      22.260   5.686  20.725  0.00  0.00    -0.213 NA
ATOM     11  C   UNL     1      21.292   5.055  21.352  0.00  0.00    +0.201 A 
ATOM     13  C   UNL     1      23.202   4.706  20.528  0.00  0.00    +0.111 A 
ATOM     14  C   UNL     1      22.746   3.507  21.057  0.00  0.00    +0.155 A 
ATOM     20  C   UNL     1      24.462   4.740  19.915  0.00  0.00    +0.051 A 
ATOM     21  C   UNL     1      23.452   2.311  21.030  0.00  0.00    +0.050 A 
ATOM     22  C   UNL     1      25.205   3.551  19.868  0.00  0.00    +0.043 A 
ATOM     23  C   UNL     1      24.706   2.362  20.415  0.00  0.00    +0.024 A 
ENDBRANCH   6  11
BRANCH   3  10
ATOM     10  C   UNL     1      17.441   7.717  20.212  0.00  0.00    +0.119 C 
BRANCH  10  12
ATOM     12  C   UNL     1      15.957   7.562  20.416  0.00  0.00    -0.033 A 
ATOM     15  C   UNL     1      15.137   7.215  19.343  0.00  0.00    +0.007 A 
ATOM     16  C   UNL     1      15.404   7.764  21.681  0.00  0.00    +0.007 A 
ATOM     17  C   UNL     1      13.763   7.070  19.534  0.00  0.00    +0.023 A 
ATOM     18  C   UNL     1      14.029   7.620  21.872  0.00  0.00    +0.023 A 
ATOM     19  C   UNL     1      13.209   7.273  20.798  0.00  0.00    +0.029 A 
BRANCH  19   5
ATOM      5  N   UNL     1      11.820   7.127  20.992  0.00  0.00    -0.336 N 
ATOM     24  C   UNL     1      10.911   8.196  20.626  0.00  0.00    +0.129 C 
ATOM     25  C   UNL     1      11.281   5.903  21.551  0.00  0.00    +0.129 C 
ENDBRANCH  19   5
ENDBRANCH  10  12
ENDBRANCH   3  10
TORSDOF 4
ENDMDL
MODEL 5
REMARK VINA RESULT:      -6.6     26.571     29.665
REMARK  Name = 45784173
REMARK  6 active torsions:
REMARK  status: ('A' for Active; 'I' for Inactive)
REMARK    1  A    between atoms: N_3  and  C_10
REMARK    2  A    between atoms: N_5  and  C_19
REMARK    3  A    between atoms: N_5  and  C_24
REMARK    4  A    between atoms: N_5  and  C_25
REMARK    5  A    between atoms: C_6  and  C_11
REMARK    6  A    between atoms: C_10  and  C_12
REMARK                            x       y       z     vdW  Elec       q    Type
REMARK                         _______ _______ _______ _____ _____    ______ ____
ROOT
ATOM      3  N   UNL     1     -13.339   6.618  21.122  0.00  0.00    -0.297 NA
ATOM      6  C   UNL     1     -15.129   5.308  21.884  0.00  0.00    +0.090 C 
ATOM      7  C   UNL     1     -15.496   6.798  21.996  0.00  0.00    +0.029 C 
ATOM      8  C   UNL     1     -13.606   5.297  21.695  0.00  0.00    +0.097 C 
ATOM      9  C   UNL     1     -14.170   7.540  21.896  0.00  0.00    +0.085 C 
ENDROOT
BRANCH   6  11
ATOM      1 CL   UNL     1     -16.963   1.445  28.157  0.00  0.00    -0.083 Cl
ATOM      2  O   UNL     1     -16.463   3.455  22.736  0.00  0.00    -0.439 OA
ATOM      4  N   UNL     1     -15.246   4.542  24.310  0.00  0.00    -0.213 NA
ATOM     11  C   UNL     1     -15.586   4.452  23.043  0.00  0.00    +0.201 A 
ATOM     13  C   UNL     1     -15.954   3.523  24.900  0.00  0.00    +0.111 A 
ATOM     14  C   UNL     1     -16.699   2.855  23.940  0.00  0.00    +0.155 A 
ATOM     20  C   UNL     1     -16.024   3.094  26.232  0.00  0.00    +0.051 A 
ATOM     21  C   UNL     1     -17.530   1.771  24.196  0.00  0.00    +0.050 A 
ATOM     22  C   UNL     1     -16.852   2.001  26.530  0.00  0.00    +0.043 A 
ATOM     23  C   UNL     1     -17.588   1.355  25.529  0.00  0.00    +0.024 A 
ENDBRANCH   6  11
BRANCH   3  10
ATOM     10  C   UNL     1     -11.928   6.969  21.170  0.00  0.00    +0.119 C 
BRANCH  10  12
ATOM     12  C   UNL     1     -11.516   7.803  19.986  0.00  0.00    -0.033 A 
ATOM     15  C   UNL     1     -11.560   7.260  18.702  0.00  0.00    +0.007 A 
ATOM     16  C   UNL     1     -11.092   9.118  20.173  0.00  0.00    +0.007 A 
ATOM     17  C   UNL     1     -11.179   8.033  17.605  0.00  0.00    +0.023 A 
ATOM     18  C   UNL     1     -10.711   9.891  19.076  0.00  0.00    +0.023 A 
ATOM     19  C   UNL     1     -10.754   9.348  17.792  0.00  0.00    +0.029 A 
BRANCH  19   5
ATOM      5  N   UNL     1     -10.369  10.131  16.683  0.00  0.00    -0.336 N 
ATOM     24  C   UNL     1     -10.617   9.662  15.334  0.00  0.00    +0.129 C 
ATOM     25  C   UNL     1      -9.729  11.416  16.878  0.00  0.00    +0.129 C 
ENDBRANCH  19   5
ENDBRANCH  10  12
ENDBRANCH   3  10
TORSDOF 4
ENDMDL
MODEL 6
REMARK VINA RESULT:      -6.4     27.814     30.911
REMARK  Name = 45784173
REMARK  6 active torsions:
REMARK  status: ('A' for Active; 'I' for Inactive)
REMARK    1  A    between atoms: N_3  and  C_10
REMARK    2  A    between atoms: N_5  and  C_19
REMARK    3  A    between atoms: N_5  and  C_24
REMARK    4  A    between atoms: N_5  and  C_25
REMARK    5  A    between atoms: C_6  and  C_11
REMARK    6  A    between atoms: C_10  and  C_12
REMARK                            x       y       z     vdW  Elec       q    Type
REMARK                         _______ _______ _______ _____ _____    ______ ____
ROOT
ATOM      3  N   UNL     1     -17.081   4.091  25.834  0.00  0.00    -0.297 NA
ATOM      6  C   UNL     1     -16.361   4.834  23.729  0.00  0.00    +0.090 C 
ATOM      7  C   UNL     1     -15.847   3.405  23.975  0.00  0.00    +0.029 C 
ATOM      8  C   UNL     1     -16.795   5.334  25.115  0.00  0.00    +0.097 C 
ATOM      9  C   UNL     1     -15.989   3.186  25.476  0.00  0.00    +0.085 C 
ENDROOT
BRANCH   6  11
ATOM      1 CL   UNL     1     -11.863  10.058  20.548  0.00  0.00    -0.083 Cl
ATOM      2  O   UNL     1     -14.304   5.153  22.461  0.00  0.00    -0.439 OA
ATOM      4  N   UNL     1     -15.411   7.068  22.959  0.00  0.00    -0.213 NA
ATOM     11  C   UNL     1     -15.374   5.757  23.053  0.00  0.00    +0.201 A 
ATOM     13  C   UNL     1     -14.275   7.366  22.246  0.00  0.00    +0.111 A 
ATOM     14  C   UNL     1     -13.595   6.197  21.940  0.00  0.00    +0.155 A 
ATOM     20  C   UNL     1     -13.745   8.591  21.817  0.00  0.00    +0.051 A 
ATOM     21  C   UNL     1     -12.404   6.138  21.227  0.00  0.00    +0.050 A 
ATOM     22  C   UNL     1     -12.544   8.572  21.093  0.00  0.00    +0.043 A 
ATOM     23  C   UNL     1     -11.889   7.367  20.805  0.00  0.00    +0.024 A 
ENDBRANCH   6  11
BRANCH   3  10
ATOM     10  C   UNL     1     -17.185   4.292  27.271  0.00  0.00    +0.119 C 
BRANCH  10  12
ATOM     12  C   UNL     1     -16.514   3.187  28.043  0.00  0.00    -0.033 A 
ATOM     15  C   UNL     1     -17.034   1.893  28.005  0.00  0.00    +0.007 A 
ATOM     16  C   UNL     1     -15.370   3.457  28.795  0.00  0.00    +0.007 A 
ATOM     17  C   UNL     1     -16.411   0.870  28.719  0.00  0.00    +0.023 A 
ATOM     18  C   UNL     1     -14.747   2.434  29.509  0.00  0.00    +0.023 A 
ATOM     19  C   UNL     1     -15.268   1.141  29.471  0.00  0.00    +0.029 A 
BRANCH  19   5
ATOM      5  N   UNL     1     -14.637   0.106  30.193  0.00  0.00    -0.336 N 
ATOM     24  C   UNL     1     -13.570  -0.667  29.588  0.00  0.00    +0.129 C 
ATOM     25  C   UNL     1     -15.042  -0.194  31.553  0.00  0.00    +0.129 C 
ENDBRANCH  19   5
ENDBRANCH  10  12
ENDBRANCH   3  10
TORSDOF 4
ENDMDL
MODEL 7
REMARK VINA RESULT:      -6.3     19.015     21.657
REMARK  Name = 45784173
REMARK  6 active torsions:
REMARK  status: ('A' for Active; 'I' for Inactive)
REMARK    1  A    between atoms: N_3  and  C_10
REMARK    2  A    between atoms: N_5  and  C_19
REMARK    3  A    between atoms: N_5  and  C_24
REMARK    4  A    between atoms: N_5  and  C_25
REMARK    5  A    between atoms: C_6  and  C_11
REMARK    6  A    between atoms: C_10  and  C_12
REMARK                            x       y       z     vdW  Elec       q    Type
REMARK                         _______ _______ _______ _____ _____    ______ ____
ROOT
ATOM      3  N   UNL     1      12.332   4.787   1.982  0.00  0.00    -0.297 NA
ATOM      6  C   UNL     1      12.299   3.298   0.170  0.00  0.00    +0.090 C 
ATOM      7  C   UNL     1      13.753   3.547   0.605  0.00  0.00    +0.029 C 
ATOM      8  C   UNL     1      11.496   4.424   0.836  0.00  0.00    +0.097 C 
ATOM      9  C   UNL     1      13.699   4.806   1.461  0.00  0.00    +0.085 C 
ENDROOT
BRANCH   6  11
ATOM      1 CL   UNL     1      12.002   3.014  -7.411  0.00  0.00    -0.083 Cl
ATOM      2  O   UNL     1      10.794   3.093  -1.735  0.00  0.00    -0.439 OA
ATOM      4  N   UNL     1      12.986   3.277  -2.282  0.00  0.00    -0.213 NA
ATOM     11  C   UNL     1      12.086   3.226  -1.324  0.00  0.00    +0.201 A 
ATOM     13  C   UNL     1      12.235   3.169  -3.427  0.00  0.00    +0.111 A 
ATOM     14  C   UNL     1      10.893   3.057  -3.097  0.00  0.00    +0.155 A 
ATOM     20  C   UNL     1      12.603   3.158  -4.780  0.00  0.00    +0.051 A 
ATOM     21  C   UNL     1       9.859   2.930  -4.016  0.00  0.00    +0.050 A 
ATOM     22  C   UNL     1      11.587   3.032  -5.738  0.00  0.00    +0.043 A 
ATOM     23  C   UNL     1      10.242   2.921  -5.361  0.00  0.00    +0.024 A 
ENDBRANCH   6  11
BRANCH   3  10
ATOM     10  C   UNL     1      11.946   6.060   2.571  0.00  0.00    +0.119 C 
BRANCH  10  12
ATOM     12  C   UNL     1      11.363   5.887   3.949  0.00  0.00    -0.033 A 
ATOM     15  C   UNL     1      11.801   6.694   4.998  0.00  0.00    +0.007 A 
ATOM     16  C   UNL     1      10.381   4.922   4.174  0.00  0.00    +0.007 A 
ATOM     17  C   UNL     1      11.260   6.534   6.274  0.00  0.00    +0.023 A 
ATOM     18  C   UNL     1       9.840   4.762   5.449  0.00  0.00    +0.023 A 
ATOM     19  C   UNL     1      10.280   5.568   6.499  0.00  0.00    +0.029 A 
BRANCH  19   5
ATOM      5  N   UNL     1       9.731   5.406   7.789  0.00  0.00    -0.336 N 
ATOM     24  C   UNL     1       9.806   4.125   8.462  0.00  0.00    +0.129 C 
ATOM     25  C   UNL     1       9.093   6.521   8.461  0.00  0.00    +0.129 C 
ENDBRANCH  19   5
ENDBRANCH  10  12
ENDBRANCH   3  10
TORSDOF 4
ENDMDL
MODEL 8
REMARK VINA RESULT:      -6.3     27.713     30.425
REMARK  Name = 45784173
REMARK  6 active torsions:
REMARK  status: ('A' for Active; 'I' for Inactive)
REMARK    1  A    between atoms: N_3  and  C_10
REMARK    2  A    between atoms: N_5  and  C_19
REMARK    3  A    between atoms: N_5  and  C_24
REMARK    4  A    between atoms: N_5  and  C_25
REMARK    5  A    between atoms: C_6  and  C_11
REMARK    6  A    between atoms: C_10  and  C_12
REMARK                            x       y       z     vdW  Elec       q    Type
REMARK                         _______ _______ _______ _____ _____    ______ ____
ROOT
ATOM      3  N   UNL     1       2.802   4.776  -5.242  0.00  0.00    -0.297 NA
ATOM      6  C   UNL     1       2.213   2.525  -5.536  0.00  0.00    +0.090 C 
ATOM      7  C   UNL     1       3.110   2.979  -6.700  0.00  0.00    +0.029 C 
ATOM      8  C   UNL     1       1.747   3.830  -4.873  0.00  0.00    +0.097 C 
ATOM      9  C   UNL     1       3.081   4.501  -6.652  0.00  0.00    +0.085 C 
ENDROOT
BRANCH   6  11
ATOM      1 CL   UNL     1      -3.259  -2.525  -7.020  0.00  0.00    -0.083 Cl
ATOM      2  O   UNL     1       0.216   2.121  -6.874  0.00  0.00    -0.439 OA
ATOM      4  N   UNL     1       0.781   0.420  -5.487  0.00  0.00    -0.213 NA
ATOM     11  C   UNL     1       1.067   1.624  -5.931  0.00  0.00    +0.201 A 
ATOM     13  C   UNL     1      -0.351   0.083  -6.188  0.00  0.00    +0.111 A 
ATOM     14  C   UNL     1      -0.700   1.122  -7.038  0.00  0.00    +0.155 A 
ATOM     20  C   UNL     1      -1.144  -1.072  -6.168  0.00  0.00    +0.051 A 
ATOM     21  C   UNL     1      -1.796   1.112  -7.891  0.00  0.00    +0.050 A 
ATOM     22  C   UNL     1      -2.261  -1.120  -7.017  0.00  0.00    +0.043 A 
ATOM     23  C   UNL     1      -2.577  -0.047  -7.860  0.00  0.00    +0.024 A 
ENDBRANCH   6  11
BRANCH   3  10
ATOM     10  C   UNL     1       2.410   6.159  -5.015  0.00  0.00    +0.119 C 
BRANCH  10  12
ATOM     12  C   UNL     1       3.526   6.965  -4.403  0.00  0.00    -0.033 A 
ATOM     15  C   UNL     1       4.455   6.347  -3.566  0.00  0.00    +0.007 A 
ATOM     16  C   UNL     1       3.630   8.329  -4.675  0.00  0.00    +0.007 A 
ATOM     17  C   UNL     1       5.489   7.094  -3.000  0.00  0.00    +0.023 A 
ATOM     18  C   UNL     1       4.663   9.076  -4.109  0.00  0.00    +0.023 A 
ATOM     19  C   UNL     1       5.592   8.458  -3.272  0.00  0.00    +0.029 A 
BRANCH  19   5
ATOM      5  N   UNL     1       6.637   9.214  -2.700  0.00  0.00    -0.336 N 
ATOM     24  C   UNL     1       6.801  10.614  -3.040  0.00  0.00    +0.129 C 
ATOM     25  C   UNL     1       7.556   8.604  -1.760  0.00  0.00    +0.129 C 
ENDBRANCH  19   5
ENDBRANCH  10  12
ENDBRANCH   3  10
TORSDOF 4
ENDMDL
MODEL 9
REMARK VINA RESULT:      -6.2     27.113     29.248
REMARK  Name = 45784173
REMARK  6 active torsions:
REMARK  status: ('A' for Active; 'I' for Inactive)
REMARK    1  A    between atoms: N_3  and  C_10
REMARK    2  A    between atoms: N_5  and  C_19
REMARK    3  A    between atoms: N_5  and  C_24
REMARK    4  A    between atoms: N_5  and  C_25
REMARK    5  A    between atoms: C_6  and  C_11
REMARK    6  A    between atoms: C_10  and  C_12
REMARK                            x       y       z     vdW  Elec       q    Type
REMARK                         _______ _______ _______ _____ _____    ______ ____
ROOT
ATOM      3  N   UNL     1      -3.264 -11.216  16.072  0.00  0.00    -0.297 NA
ATOM      6  C   UNL     1      -3.313 -12.010  13.865  0.00  0.00    +0.090 C 
ATOM      7  C   UNL     1      -1.857 -11.741  14.284  0.00  0.00    +0.029 C 
ATOM      8  C   UNL     1      -4.161 -11.278  14.915  0.00  0.00    +0.097 C 
ATOM      9  C   UNL     1      -1.959 -10.855  15.519  0.00  0.00    +0.085 C 
ENDROOT
BRANCH   6  11
ATOM      1 CL   UNL     1      -5.122 -10.742   6.602  0.00  0.00    -0.083 Cl
ATOM      2  O   UNL     1      -3.590 -10.272  12.180  0.00  0.00    -0.439 OA
ATOM      4  N   UNL     1      -3.998 -12.376  11.440  0.00  0.00    -0.213 NA
ATOM     11  C   UNL     1      -3.652 -11.607  12.449  0.00  0.00    +0.201 A 
ATOM     13  C   UNL     1      -4.183 -11.484  10.411  0.00  0.00    +0.111 A 
ATOM     14  C   UNL     1      -3.933 -10.196  10.860  0.00  0.00    +0.155 A 
ATOM     20  C   UNL     1      -4.558 -11.676   9.074  0.00  0.00    +0.051 A 
ATOM     21  C   UNL     1      -4.028  -9.053  10.076  0.00  0.00    +0.050 A 
ATOM     22  C   UNL     1      -4.664 -10.545   8.251  0.00  0.00    +0.043 A 
ATOM     23  C   UNL     1      -4.403  -9.260   8.745  0.00  0.00    +0.024 A 
ENDBRANCH   6  11
BRANCH   3  10
ATOM     10  C   UNL     1      -3.721 -10.269  17.077  0.00  0.00    +0.119 C 
BRANCH  10  12
ATOM     12  C   UNL     1      -4.996 -10.723  17.738  0.00  0.00    -0.033 A 
ATOM     15  C   UNL     1      -4.975 -11.788  18.638  0.00  0.00    +0.007 A 
ATOM     16  C   UNL     1      -6.198 -10.075  17.451  0.00  0.00    +0.007 A 
ATOM     17  C   UNL     1      -6.156 -12.207  19.250  0.00  0.00    +0.023 A 
ATOM     18  C   UNL     1      -7.379 -10.494  18.063  0.00  0.00    +0.023 A 
ATOM     19  C   UNL     1      -7.358 -11.560  18.962  0.00  0.00    +0.029 A 
BRANCH  19   5
ATOM      5  N   UNL     1      -8.553 -11.983  19.581  0.00  0.00    -0.336 N 
ATOM     24  C   UNL     1      -8.673 -13.332  20.098  0.00  0.00    +0.129 C 
ATOM     25  C   UNL     1      -9.673 -11.073  19.716  0.00  0.00    +0.129 C 
ENDBRANCH  19   5
ENDBRANCH  10  12
ENDBRANCH   3  10
TORSDOF 4
ENDMDL
MODEL 10
REMARK VINA RESULT:      -6.1     19.753     21.086
REMARK  Name = 45784173
REMARK  6 active torsions:
REMARK  status: ('A' for Active; 'I' for Inactive)
REMARK    1  A    between atoms: N_3  and  C_10
REMARK    2  A    between atoms: N_5  and  C_19
REMARK    3  A    between atoms: N_5  and  C_24
REMARK    4  A    between atoms: N_5  and  C_25
REMARK    5  A    between atoms: C_6  and  C_11
REMARK    6  A    between atoms: C_10  and  C_12
REMARK                            x       y       z     vdW  Elec       q    Type
REMARK                         _______ _______ _______ _____ _____    ______ ____
ROOT
ATOM      3  N   UNL     1       7.624  -7.023  33.684  0.00  0.00    -0.297 NA
ATOM      6  C   UNL     1       9.930  -6.647  33.900  0.00  0.00    +0.090 C 
ATOM      7  C   UNL     1       9.155  -5.508  34.585  0.00  0.00    +0.029 C 
ATOM      8  C   UNL     1       8.887  -7.350  33.018  0.00  0.00    +0.097 C 
ATOM      9  C   UNL     1       7.738  -5.608  34.036  0.00  0.00    +0.085 C 
ENDROOT
BRANCH   6  11
ATOM      1 CL   UNL     1      16.178  -3.902  30.574  0.00  0.00    -0.083 Cl
ATOM      2  O   UNL     1      11.427  -6.916  31.996  0.00  0.00    -0.439 OA
ATOM      4  N   UNL     1      11.992  -5.236  33.409  0.00  0.00    -0.213 NA
ATOM     11  C   UNL     1      11.154  -6.210  33.130  0.00  0.00    +0.201 A 
ATOM     13  C   UNL     1      12.900  -5.294  32.380  0.00  0.00    +0.111 A 
ATOM     14  C   UNL     1      12.557  -6.321  31.513  0.00  0.00    +0.155 A 
ATOM     20  C   UNL     1      14.036  -4.522  32.101  0.00  0.00    +0.051 A 
ATOM     21  C   UNL     1      13.264  -6.656  30.364  0.00  0.00    +0.050 A 
ATOM     22  C   UNL     1      14.775  -4.830  30.949  0.00  0.00    +0.043 A 
ATOM     23  C   UNL     1      14.394  -5.877  30.100  0.00  0.00    +0.024 A 
ENDBRANCH   6  11
BRANCH   3  10
ATOM     10  C   UNL     1       6.468  -7.295  32.845  0.00  0.00    +0.119 C 
BRANCH  10  12
ATOM     12  C   UNL     1       6.569  -8.635  32.166  0.00  0.00    -0.033 A 
ATOM     15  C   UNL     1       6.721  -8.707  30.781  0.00  0.00    +0.007 A 
ATOM     16  C   UNL     1       6.512  -9.805  32.923  0.00  0.00    +0.007 A 
ATOM     17  C   UNL     1       6.815  -9.949  30.153  0.00  0.00    +0.023 A 
ATOM     18  C   UNL     1       6.607 -11.047  32.295  0.00  0.00    +0.023 A 
ATOM     19  C   UNL     1       6.758 -11.119  30.910  0.00  0.00    +0.029 A 
BRANCH  19   5
ATOM      5  N   UNL     1       6.854 -12.375  30.276  0.00  0.00    -0.336 N 
ATOM     24  C   UNL     1       8.118 -12.824  29.725  0.00  0.00    +0.129 C 
ATOM     25  C   UNL     1       5.694 -13.237  30.173  0.00  0.00    +0.129 C 
ENDBRANCH  19   5
ENDBRANCH  10  12
ENDBRANCH   3  10
TORSDOF 4
ENDMDL
