MODEL 1
REMARK VINA RESULT:      -7.5      0.000      0.000
REMARK  Name = 45783678
REMARK  5 active torsions:
REMARK  status: ('A' for Active; 'I' for Inactive)
REMARK    1  A    between atoms: N_2  and  C_14
REMARK    2  A    between atoms: N_8  and  C_24
REMARK    3  A    between atoms: C_10  and  C_15
REMARK    4  A    between atoms: C_14  and  C_16
REMARK    5  A    between atoms: C_17  and  C_19
REMARK                            x       y       z     vdW  Elec       q    Type
REMARK                         _______ _______ _______ _____ _____    ______ ____
ROOT
ATOM      1  O   UNL     1      16.168   5.893  18.298  0.00  0.00    -0.336 OA
ATOM      3  N   UNL     1      16.691   6.770  20.292  0.00  0.00    -0.190 NA
ATOM      6  N   UNL     1      17.466   5.453  18.589  0.00  0.00    -0.056 NA
ATOM     15  C   UNL     1      15.787   6.662  19.351  0.00  0.00    +0.245 A 
ATOM     17  C   UNL     1      17.704   6.012  19.780  0.00  0.00    +0.204 A 
ENDROOT
BRANCH  17  19
ATOM      7  N   UNL     1      21.036   4.650  20.708  0.00  0.00    -0.237 NA
ATOM     19  C   UNL     1      18.941   5.834  20.483  0.00  0.00    +0.041 A 
ATOM     21  C   UNL     1      19.260   6.622  21.584  0.00  0.00    +0.017 A 
ATOM     22  C   UNL     1      19.855   4.871  20.089  0.00  0.00    +0.124 A 
ATOM     23  C   UNL     1      20.466   6.425  22.246  0.00  0.00    +0.047 A 
ATOM     24  C   UNL     1      21.312   5.435  21.772  0.00  0.00    +0.139 A 
BRANCH  24   8
ATOM      8  N   UNL     1      22.517   5.236  22.429  0.00  0.00    -0.290 N 
ATOM      9  N   UNL     1      24.565   5.639  23.188  0.00  0.00    -0.244 NA
ATOM     25  C   UNL     1      22.881   4.123  23.134  0.00  0.00    +0.114 A 
ATOM     26  C   UNL     1      23.560   6.118  22.489  0.00  0.00    +0.205 A 
ATOM     27  C   UNL     1      24.149   4.396  23.592  0.00  0.00    +0.130 A 
ENDBRANCH  24   8
ENDBRANCH  17  19
BRANCH  15  10
ATOM      2  N   UNL     1      14.268   8.490  20.093  0.00  0.00    -0.284 NA
ATOM     10  C   UNL     1      14.399   7.264  19.279  0.00  0.00    +0.146 C 
ATOM     11  C   UNL     1      14.014   7.699  17.853  0.00  0.00    +0.030 C 
ATOM     12  C   UNL     1      13.624   9.165  17.976  0.00  0.00    +0.017 C 
ATOM     13  C   UNL     1      13.254   9.314  19.438  0.00  0.00    +0.085 C 
BRANCH   2  14
ATOM     14  C   UNL     1      13.940   8.221  21.487  0.00  0.00    +0.159 C 
BRANCH  14  16
ATOM      4  N   UNL     1      12.458   6.203  21.378  0.00  0.00    -0.347 N 
ATOM      5  N   UNL     1      11.469   8.096  21.984  0.00  0.00    -0.239 NA
ATOM     16  C   UNL     1      12.604   7.539  21.627  0.00  0.00    +0.121 A 
ATOM     18  C   UNL     1      11.145   5.888  21.589  0.00  0.00    +0.104 A 
ATOM     20  C   UNL     1      10.555   7.073  21.962  0.00  0.00    +0.130 A 
ATOM     28  H   UNL     1      13.186   5.563  21.088  0.00  0.00    +0.167 HD
ENDBRANCH  14  16
ENDBRANCH   2  14
ENDBRANCH  15  10
TORSDOF 5
ENDMDL
MODEL 2
REMARK VINA RESULT:      -7.3      1.703      3.426
REMARK  Name = 45783678
REMARK  5 active torsions:
REMARK  status: ('A' for Active; 'I' for Inactive)
REMARK    1  A    between atoms: N_2  and  C_14
REMARK    2  A    between atoms: N_8  and  C_24
REMARK    3  A    between atoms: C_10  and  C_15
REMARK    4  A    between atoms: C_14  and  C_16
REMARK    5  A    between atoms: C_17  and  C_19
REMARK                            x       y       z     vdW  Elec       q    Type
REMARK                         _______ _______ _______ _____ _____    ______ ____
ROOT
ATOM      1  O   UNL     1      14.789   6.806  19.254  0.00  0.00    -0.336 OA
ATOM      3  N   UNL     1      15.928   7.430  21.079  0.00  0.00    -0.190 NA
ATOM      6  N   UNL     1      16.060   6.227  19.137  0.00  0.00    -0.056 NA
ATOM     15  C   UNL     1      14.797   7.496  20.424  0.00  0.00    +0.245 A 
ATOM     17  C   UNL     1      16.672   6.641  20.250  0.00  0.00    +0.204 A 
ENDROOT
BRANCH  17  19
ATOM      7  N   UNL     1      19.967   6.592  21.972  0.00  0.00    -0.237 NA
ATOM     19  C   UNL     1      18.026   6.286  20.564  0.00  0.00    +0.041 A 
ATOM     21  C   UNL     1      18.712   5.338  19.812  0.00  0.00    +0.017 A 
ATOM     22  C   UNL     1      18.692   6.879  21.624  0.00  0.00    +0.124 A 
ATOM     23  C   UNL     1      20.024   5.017  20.140  0.00  0.00    +0.047 A 
ATOM     24  C   UNL     1      20.601   5.667  21.220  0.00  0.00    +0.139 A 
BRANCH  24   8
ATOM      8  N   UNL     1      21.909   5.348  21.550  0.00  0.00    -0.290 N 
ATOM      9  N   UNL     1      23.628   4.558  22.714  0.00  0.00    -0.244 NA
ATOM     25  C   UNL     1      23.021   5.607  20.798  0.00  0.00    +0.114 A 
ATOM     26  C   UNL     1      22.324   4.719  22.691  0.00  0.00    +0.205 A 
ATOM     27  C   UNL     1      24.069   5.110  21.537  0.00  0.00    +0.130 A 
ENDBRANCH  24   8
ENDBRANCH  17  19
BRANCH  15  10
ATOM      2  N   UNL     1      12.735   8.622  19.600  0.00  0.00    -0.284 NA
ATOM     10  C   UNL     1      13.517   8.222  20.787  0.00  0.00    +0.146 C 
ATOM     11  C   UNL     1      12.555   7.351  21.614  0.00  0.00    +0.030 C 
ATOM     12  C   UNL     1      11.241   7.370  20.845  0.00  0.00    +0.017 C 
ATOM     13  C   UNL     1      11.333   8.633  20.014  0.00  0.00    +0.085 C 
BRANCH   2  14
ATOM     14  C   UNL     1      13.152   9.902  19.042  0.00  0.00    +0.159 C 
BRANCH  14  16
ATOM      4  N   UNL     1      13.732   8.552  17.013  0.00  0.00    -0.347 N 
ATOM      5  N   UNL     1      13.865  10.755  16.777  0.00  0.00    -0.239 NA
ATOM     16  C   UNL     1      13.585   9.774  17.605  0.00  0.00    +0.121 A 
ATOM     18  C   UNL     1      14.131   8.766  15.724  0.00  0.00    +0.104 A 
ATOM     20  C   UNL     1      14.206  10.133  15.602  0.00  0.00    +0.130 A 
ATOM     28  H   UNL     1      13.577   7.651  17.448  0.00  0.00    +0.167 HD
ENDBRANCH  14  16
ENDBRANCH   2  14
ENDBRANCH  15  10
TORSDOF 5
ENDMDL
MODEL 3
REMARK VINA RESULT:      -6.9     31.830     34.541
REMARK  Name = 45783678
REMARK  5 active torsions:
REMARK  status: ('A' for Active; 'I' for Inactive)
REMARK    1  A    between atoms: N_2  and  C_14
REMARK    2  A    between atoms: N_8  and  C_24
REMARK    3  A    between atoms: C_10  and  C_15
REMARK    4  A    between atoms: C_14  and  C_16
REMARK    5  A    between atoms: C_17  and  C_19
REMARK                            x       y       z     vdW  Elec       q    Type
REMARK                         _______ _______ _______ _____ _____    ______ ____
ROOT
ATOM      1  O   UNL     1     -17.114   1.096  24.267  0.00  0.00    -0.336 OA
ATOM      3  N   UNL     1     -17.638   2.773  25.657  0.00  0.00    -0.190 NA
ATOM      6  N   UNL     1     -16.463   0.818  25.477  0.00  0.00    -0.056 NA
ATOM     15  C   UNL     1     -17.782   2.263  24.460  0.00  0.00    +0.245 A 
ATOM     17  C   UNL     1     -16.820   1.852  26.245  0.00  0.00    +0.204 A 
ENDROOT
BRANCH  17  19
ATOM      7  N   UNL     1     -16.080   1.014  29.790  0.00  0.00    -0.237 NA
ATOM     19  C   UNL     1     -16.378   1.995  27.601  0.00  0.00    +0.041 A 
ATOM     21  C   UNL     1     -15.838   3.193  28.057  0.00  0.00    +0.017 A 
ATOM     22  C   UNL     1     -16.476   0.945  28.499  0.00  0.00    +0.124 A 
ATOM     23  C   UNL     1     -15.419   3.302  29.378  0.00  0.00    +0.047 A 
ATOM     24  C   UNL     1     -15.561   2.192  30.197  0.00  0.00    +0.139 A 
BRANCH  24   8
ATOM      8  N   UNL     1     -15.144   2.297  31.515  0.00  0.00    -0.290 N 
ATOM      9  N   UNL     1     -14.506   1.678  33.551  0.00  0.00    -0.244 NA
ATOM     25  C   UNL     1     -14.918   3.455  32.205  0.00  0.00    +0.114 A 
ATOM     26  C   UNL     1     -14.883   1.257  32.364  0.00  0.00    +0.205 A 
ATOM     27  C   UNL     1     -14.526   3.047  33.459  0.00  0.00    +0.130 A 
ENDBRANCH  24   8
ENDBRANCH  17  19
BRANCH  15  10
ATOM      2  N   UNL     1     -17.718   3.278  22.187  0.00  0.00    -0.284 NA
ATOM     10  C   UNL     1     -18.579   2.786  23.282  0.00  0.00    +0.146 C 
ATOM     11  C   UNL     1     -19.457   1.702  22.632  0.00  0.00    +0.030 C 
ATOM     12  C   UNL     1     -19.063   1.700  21.161  0.00  0.00    +0.017 C 
ATOM     13  C   UNL     1     -18.470   3.077  20.949  0.00  0.00    +0.085 C 
BRANCH   2  14
ATOM     14  C   UNL     1     -17.306   4.665  22.360  0.00  0.00    +0.159 C 
BRANCH  14  16
ATOM      4  N   UNL     1     -14.955   5.095  21.606  0.00  0.00    -0.347 N 
ATOM      5  N   UNL     1     -15.206   4.611  23.758  0.00  0.00    -0.239 NA
ATOM     16  C   UNL     1     -15.826   4.783  22.612  0.00  0.00    +0.121 A 
ATOM     18  C   UNL     1     -13.700   5.125  22.144  0.00  0.00    +0.104 A 
ATOM     20  C   UNL     1     -13.880   4.824  23.474  0.00  0.00    +0.130 A 
ATOM     28  H   UNL     1     -15.194   5.270  20.638  0.00  0.00    +0.167 HD
ENDBRANCH  14  16
ENDBRANCH   2  14
ENDBRANCH  15  10
TORSDOF 5
ENDMDL
MODEL 4
REMARK VINA RESULT:      -6.8     17.724     21.437
REMARK  Name = 45783678
REMARK  5 active torsions:
REMARK  status: ('A' for Active; 'I' for Inactive)
REMARK    1  A    between atoms: N_2  and  C_14
REMARK    2  A    between atoms: N_8  and  C_24
REMARK    3  A    between atoms: C_10  and  C_15
REMARK    4  A    between atoms: C_14  and  C_16
REMARK    5  A    between atoms: C_17  and  C_19
REMARK                            x       y       z     vdW  Elec       q    Type
REMARK                         _______ _______ _______ _____ _____    ______ ____
ROOT
ATOM      1  O   UNL     1      10.317   6.761  -1.421  0.00  0.00    -0.336 OA
ATOM      3  N   UNL     1      10.657   5.139   0.086  0.00  0.00    -0.190 NA
ATOM      6  N   UNL     1       9.958   7.302  -0.179  0.00  0.00    -0.056 NA
ATOM     15  C   UNL     1      10.716   5.486  -1.175  0.00  0.00    +0.245 A 
ATOM     17  C   UNL     1      10.187   6.286   0.658  0.00  0.00    +0.204 A 
ENDROOT
BRANCH  17  19
ATOM      7  N   UNL     1      10.353   5.517   4.292  0.00  0.00    -0.237 NA
ATOM     19  C   UNL     1       9.954   6.382   2.070  0.00  0.00    +0.041 A 
ATOM     21  C   UNL     1       9.138   7.377   2.596  0.00  0.00    +0.017 A 
ATOM     22  C   UNL     1      10.533   5.484   2.952  0.00  0.00    +0.124 A 
ATOM     23  C   UNL     1       8.929   7.443   3.969  0.00  0.00    +0.047 A 
ATOM     24  C   UNL     1       9.555   6.498   4.767  0.00  0.00    +0.139 A 
BRANCH  24   8
ATOM      8  N   UNL     1       9.350   6.561   6.136  0.00  0.00    -0.290 N 
ATOM      9  N   UNL     1       8.587   7.277   8.096  0.00  0.00    -0.244 NA
ATOM     25  C   UNL     1       9.879   5.719   7.075  0.00  0.00    +0.114 A 
ATOM     26  C   UNL     1       8.582   7.479   6.797  0.00  0.00    +0.205 A 
ATOM     27  C   UNL     1       9.393   6.181   8.276  0.00  0.00    +0.130 A 
ENDBRANCH  24   8
ENDBRANCH  17  19
BRANCH  15  10
ATOM      2  N   UNL     1      12.035   3.544  -2.002  0.00  0.00    -0.284 NA
ATOM     10  C   UNL     1      11.163   4.676  -2.374  0.00  0.00    +0.146 C 
ATOM     11  C   UNL     1       9.985   4.030  -3.127  0.00  0.00    +0.030 C 
ATOM     12  C   UNL     1      10.313   2.545  -3.181  0.00  0.00    +0.017 C 
ATOM     13  C   UNL     1      11.818   2.506  -3.009  0.00  0.00    +0.085 C 
BRANCH   2  14
ATOM     14  C   UNL     1      13.440   3.915  -1.890  0.00  0.00    +0.159 C 
BRANCH  14  16
ATOM      4  N   UNL     1      13.134   3.340   0.529  0.00  0.00    -0.347 N 
ATOM      5  N   UNL     1      15.146   4.088  -0.039  0.00  0.00    -0.239 NA
ATOM     16  C   UNL     1      13.942   3.793  -0.475  0.00  0.00    +0.121 A 
ATOM     18  C   UNL     1      13.869   3.346   1.681  0.00  0.00    +0.104 A 
ATOM     20  C   UNL     1      15.107   3.812   1.305  0.00  0.00    +0.130 A 
ATOM     28  H   UNL     1      12.168   3.054   0.440  0.00  0.00    +0.167 HD
ENDBRANCH  14  16
ENDBRANCH   2  14
ENDBRANCH  15  10
TORSDOF 5
ENDMDL
MODEL 5
REMARK VINA RESULT:      -6.8     27.507     30.382
REMARK  Name = 45783678
REMARK  5 active torsions:
REMARK  status: ('A' for Active; 'I' for Inactive)
REMARK    1  A    between atoms: N_2  and  C_14
REMARK    2  A    between atoms: N_8  and  C_24
REMARK    3  A    between atoms: C_10  and  C_15
REMARK    4  A    between atoms: C_14  and  C_16
REMARK    5  A    between atoms: C_17  and  C_19
REMARK                            x       y       z     vdW  Elec       q    Type
REMARK                         _______ _______ _______ _____ _____    ______ ____
ROOT
ATOM      1  O   UNL     1      -7.055 -10.863  20.120  0.00  0.00    -0.336 OA
ATOM      3  N   UNL     1      -7.688 -11.380  18.034  0.00  0.00    -0.190 NA
ATOM      6  N   UNL     1      -5.949 -10.601  19.300  0.00  0.00    -0.056 NA
ATOM     15  C   UNL     1      -8.034 -11.319  19.296  0.00  0.00    +0.245 A 
ATOM     17  C   UNL     1      -6.401 -10.930  18.086  0.00  0.00    +0.204 A 
ENDROOT
BRANCH  17  19
ATOM      7  N   UNL     1      -5.412 -10.197  14.578  0.00  0.00    -0.237 NA
ATOM     19  C   UNL     1      -5.593 -10.822  16.907  0.00  0.00    +0.041 A 
ATOM     21  C   UNL     1      -4.260 -11.219  16.912  0.00  0.00    +0.017 A 
ATOM     22  C   UNL     1      -6.117 -10.323  15.725  0.00  0.00    +0.124 A 
ATOM     23  C   UNL     1      -3.503 -11.104  15.751  0.00  0.00    +0.047 A 
ATOM     24  C   UNL     1      -4.120 -10.591  14.621  0.00  0.00    +0.139 A 
BRANCH  24   8
ATOM      8  N   UNL     1      -3.368 -10.475  13.462  0.00  0.00    -0.290 N 
ATOM      9  N   UNL     1      -2.892 -10.282  11.301  0.00  0.00    -0.244 NA
ATOM     25  C   UNL     1      -2.004 -10.435  13.382  0.00  0.00    +0.114 A 
ATOM     26  C   UNL     1      -3.857 -10.380  12.189  0.00  0.00    +0.205 A 
ATOM     27  C   UNL     1      -1.735 -10.316  12.038  0.00  0.00    +0.130 A 
ENDBRANCH  24   8
ENDBRANCH  17  19
BRANCH  15  10
ATOM      2  N   UNL     1     -10.517 -11.304  19.120  0.00  0.00    -0.284 NA
ATOM     10  C   UNL     1      -9.353 -11.677  19.949  0.00  0.00    +0.146 C 
ATOM     11  C   UNL     1      -9.508 -13.191  20.183  0.00  0.00    +0.030 C 
ATOM     12  C   UNL     1     -10.817 -13.566  19.501  0.00  0.00    +0.017 C 
ATOM     13  C   UNL     1     -11.577 -12.258  19.445  0.00  0.00    +0.085 C 
BRANCH   2  14
ATOM     14  C   UNL     1     -10.942  -9.924  19.315  0.00  0.00    +0.159 C 
BRANCH  14  16
ATOM      4  N   UNL     1      -9.493  -8.622  17.739  0.00  0.00    -0.347 N 
ATOM      5  N   UNL     1     -11.647  -8.725  17.209  0.00  0.00    -0.239 NA
ATOM     16  C   UNL     1     -10.731  -9.092  18.077  0.00  0.00    +0.121 A 
ATOM     18  C   UNL     1      -9.628  -7.910  16.580  0.00  0.00    +0.104 A 
ATOM     20  C   UNL     1     -10.966  -7.988  16.273  0.00  0.00    +0.130 A 
ATOM     28  H   UNL     1      -8.634  -8.770  18.251  0.00  0.00    +0.167 HD
ENDBRANCH  14  16
ENDBRANCH   2  14
ENDBRANCH  15  10
TORSDOF 5
ENDMDL
MODEL 6
REMARK VINA RESULT:      -6.8     26.355     30.515
REMARK  Name = 45783678
REMARK  5 active torsions:
REMARK  status: ('A' for Active; 'I' for Inactive)
REMARK    1  A    between atoms: N_2  and  C_14
REMARK    2  A    between atoms: N_8  and  C_24
REMARK    3  A    between atoms: C_10  and  C_15
REMARK    4  A    between atoms: C_14  and  C_16
REMARK    5  A    between atoms: C_17  and  C_19
REMARK                            x       y       z     vdW  Elec       q    Type
REMARK                         _______ _______ _______ _____ _____    ______ ____
ROOT
ATOM      1  O   UNL     1      -4.775 -10.847  17.406  0.00  0.00    -0.336 OA
ATOM      3  N   UNL     1      -5.658 -10.054  15.506  0.00  0.00    -0.190 NA
ATOM      6  N   UNL     1      -6.048 -10.365  17.739  0.00  0.00    -0.056 NA
ATOM     15  C   UNL     1      -4.626 -10.625  16.074  0.00  0.00    +0.245 A 
ATOM     17  C   UNL     1      -6.505  -9.914  16.567  0.00  0.00    +0.204 A 
ENDROOT
BRANCH  17  19
ATOM      7  N   UNL     1      -9.637  -8.694  14.978  0.00  0.00    -0.237 NA
ATOM     19  C   UNL     1      -7.801  -9.318  16.422  0.00  0.00    +0.041 A 
ATOM     21  C   UNL     1      -8.476  -8.793  17.519  0.00  0.00    +0.017 A 
ATOM     22  C   UNL     1      -8.419  -9.244  15.184  0.00  0.00    +0.124 A 
ATOM     23  C   UNL     1      -9.730  -8.219  17.347  0.00  0.00    +0.047 A 
ATOM     24  C   UNL     1     -10.262  -8.195  16.067  0.00  0.00    +0.139 A 
BRANCH  24   8
ATOM      8  N   UNL     1     -11.513  -7.624  15.891  0.00  0.00    -0.290 N 
ATOM      9  N   UNL     1     -13.067  -6.178  15.237  0.00  0.00    -0.244 NA
ATOM     25  C   UNL     1     -12.703  -8.124  16.341  0.00  0.00    +0.114 A 
ATOM     26  C   UNL     1     -11.783  -6.455  15.234  0.00  0.00    +0.205 A 
ATOM     27  C   UNL     1     -13.647  -7.214  15.925  0.00  0.00    +0.130 A 
ENDBRANCH  24   8
ENDBRANCH  17  19
BRANCH  15  10
ATOM      2  N   UNL     1      -3.033 -10.392  14.175  0.00  0.00    -0.284 NA
ATOM     10  C   UNL     1      -3.313 -11.065  15.460  0.00  0.00    +0.146 C 
ATOM     11  C   UNL     1      -2.100 -10.732  16.347  0.00  0.00    +0.030 C 
ATOM     12  C   UNL     1      -1.167  -9.922  15.458  0.00  0.00    +0.017 C 
ATOM     13  C   UNL     1      -1.577 -10.319  14.056  0.00  0.00    +0.085 C 
BRANCH   2  14
ATOM     14  C   UNL     1      -3.644 -11.059  13.032  0.00  0.00    +0.159 C 
BRANCH  14  16
ATOM      4  N   UNL     1      -5.633  -9.659  12.432  0.00  0.00    -0.347 N 
ATOM      5  N   UNL     1      -3.920  -9.557  11.024  0.00  0.00    -0.239 NA
ATOM     16  C   UNL     1      -4.370 -10.089  12.138  0.00  0.00    +0.121 A 
ATOM     18  C   UNL     1      -6.014  -8.797  11.442  0.00  0.00    +0.104 A 
ATOM     20  C   UNL     1      -4.940  -8.750  10.585  0.00  0.00    +0.130 A 
ATOM     28  H   UNL     1      -6.188  -9.929  13.234  0.00  0.00    +0.167 HD
ENDBRANCH  14  16
ENDBRANCH   2  14
ENDBRANCH  15  10
TORSDOF 5
ENDMDL
MODEL 7
REMARK VINA RESULT:      -6.7      1.977      3.412
REMARK  Name = 45783678
REMARK  5 active torsions:
REMARK  status: ('A' for Active; 'I' for Inactive)
REMARK    1  A    between atoms: N_2  and  C_14
REMARK    2  A    between atoms: N_8  and  C_24
REMARK    3  A    between atoms: C_10  and  C_15
REMARK    4  A    between atoms: C_14  and  C_16
REMARK    5  A    between atoms: C_17  and  C_19
REMARK                            x       y       z     vdW  Elec       q    Type
REMARK                         _______ _______ _______ _____ _____    ______ ____
ROOT
ATOM      1  O   UNL     1      17.218   9.037  21.398  0.00  0.00    -0.336 OA
ATOM      3  N   UNL     1      17.222   6.848  20.921  0.00  0.00    -0.190 NA
ATOM      6  N   UNL     1      18.505   8.573  21.706  0.00  0.00    -0.056 NA
ATOM     15  C   UNL     1      16.529   7.958  20.944  0.00  0.00    +0.245 A 
ATOM     17  C   UNL     1      18.428   7.275  21.397  0.00  0.00    +0.204 A 
ENDROOT
BRANCH  17  19
ATOM      7  N   UNL     1      21.310   5.513  22.950  0.00  0.00    -0.237 NA
ATOM     19  C   UNL     1      19.536   6.378  21.554  0.00  0.00    +0.041 A 
ATOM     21  C   UNL     1      19.922   5.528  20.523  0.00  0.00    +0.017 A 
ATOM     22  C   UNL     1      20.256   6.332  22.737  0.00  0.00    +0.124 A 
ATOM     23  C   UNL     1      21.001   4.670  20.705  0.00  0.00    +0.047 A 
ATOM     24  C   UNL     1      21.656   4.701  21.927  0.00  0.00    +0.139 A 
BRANCH  24   8
ATOM      8  N   UNL     1      22.732   3.847  22.112  0.00  0.00    -0.290 N 
ATOM      9  N   UNL     1      24.490   2.894  23.080  0.00  0.00    -0.244 NA
ATOM     25  C   UNL     1      23.162   2.884  21.243  0.00  0.00    +0.114 A 
ATOM     26  C   UNL     1      23.560   3.816  23.200  0.00  0.00    +0.205 A 
ATOM     27  C   UNL     1      24.247   2.310  21.863  0.00  0.00    +0.130 A 
ENDBRANCH  24   8
ENDBRANCH  17  19
BRANCH  15  10
ATOM      2  N   UNL     1      14.521   7.078  19.764  0.00  0.00    -0.284 NA
ATOM     10  C   UNL     1      15.089   8.201  20.538  0.00  0.00    +0.146 C 
ATOM     11  C   UNL     1      14.150   8.356  21.747  0.00  0.00    +0.030 C 
ATOM     12  C   UNL     1      13.052   7.323  21.535  0.00  0.00    +0.017 C 
ATOM     13  C   UNL     1      13.085   7.071  20.041  0.00  0.00    +0.085 C 
BRANCH   2  14
ATOM     14  C   UNL     1      14.804   7.164  18.337  0.00  0.00    +0.159 C 
BRANCH  14  16
ATOM      4  N   UNL     1      14.269   9.527  17.698  0.00  0.00    -0.347 N 
ATOM      5  N   UNL     1      12.844   7.986  16.976  0.00  0.00    -0.239 NA
ATOM     16  C   UNL     1      13.948   8.200  17.657  0.00  0.00    +0.121 A 
ATOM     18  C   UNL     1      13.310  10.204  16.998  0.00  0.00    +0.104 A 
ATOM     20  C   UNL     1      12.441   9.231  16.562  0.00  0.00    +0.130 A 
ATOM     28  H   UNL     1      15.070   9.937  18.162  0.00  0.00    +0.167 HD
ENDBRANCH  14  16
ENDBRANCH   2  14
ENDBRANCH  15  10
TORSDOF 5
ENDMDL
MODEL 8
REMARK VINA RESULT:      -6.6     31.850     34.439
REMARK  Name = 45783678
REMARK  5 active torsions:
REMARK  status: ('A' for Active; 'I' for Inactive)
REMARK    1  A    between atoms: N_2  and  C_14
REMARK    2  A    between atoms: N_8  and  C_24
REMARK    3  A    between atoms: C_10  and  C_15
REMARK    4  A    between atoms: C_14  and  C_16
REMARK    5  A    between atoms: C_17  and  C_19
REMARK                            x       y       z     vdW  Elec       q    Type
REMARK                         _______ _______ _______ _____ _____    ______ ____
ROOT
ATOM      1  O   UNL     1     -16.775   0.626  26.269  0.00  0.00    -0.336 OA
ATOM      3  N   UNL     1     -17.229   2.709  26.957  0.00  0.00    -0.190 NA
ATOM      6  N   UNL     1     -16.156   0.767  27.518  0.00  0.00    -0.056 NA
ATOM     15  C   UNL     1     -17.383   1.814  26.014  0.00  0.00    +0.245 A 
ATOM     17  C   UNL     1     -16.470   2.021  27.859  0.00  0.00    +0.204 A 
ENDROOT
BRANCH  17  19
ATOM      7  N   UNL     1     -15.444   4.611  30.321  0.00  0.00    -0.237 NA
ATOM     19  C   UNL     1     -16.039   2.617  29.090  0.00  0.00    +0.041 A 
ATOM     21  C   UNL     1     -15.797   1.840  30.217  0.00  0.00    +0.017 A 
ATOM     22  C   UNL     1     -15.850   3.986  29.193  0.00  0.00    +0.124 A 
ATOM     23  C   UNL     1     -15.378   2.447  31.396  0.00  0.00    +0.047 A 
ATOM     24  C   UNL     1     -15.219   3.823  31.395  0.00  0.00    +0.139 A 
BRANCH  24   8
ATOM      8  N   UNL     1     -14.802   4.432  32.569  0.00  0.00    -0.290 N 
ATOM      9  N   UNL     1     -14.090   6.019  33.951  0.00  0.00    -0.244 NA
ATOM     25  C   UNL     1     -14.679   3.836  33.793  0.00  0.00    +0.114 A 
ATOM     26  C   UNL     1     -14.437   5.743  32.714  0.00  0.00    +0.205 A 
ATOM     27  C   UNL     1     -14.239   4.835  34.629  0.00  0.00    +0.130 A 
ENDBRANCH  24   8
ENDBRANCH  17  19
BRANCH  15  10
ATOM      2  N   UNL     1     -17.272   2.358  23.587  0.00  0.00    -0.284 NA
ATOM     10  C   UNL     1     -18.134   1.919  24.703  0.00  0.00    +0.146 C 
ATOM     11  C   UNL     1     -18.713   0.569  24.240  0.00  0.00    +0.030 C 
ATOM     12  C   UNL     1     -18.170   0.365  22.833  0.00  0.00    +0.017 C 
ATOM     13  C   UNL     1     -17.833   1.768  22.373  0.00  0.00    +0.085 C 
BRANCH   2  14
ATOM     14  C   UNL     1     -17.155   3.808  23.489  0.00  0.00    +0.159 C 
BRANCH  14  16
ATOM      4  N   UNL     1     -14.762   4.210  24.112  0.00  0.00    -0.347 N 
ATOM      5  N   UNL     1     -15.302   4.670  22.009  0.00  0.00    -0.239 NA
ATOM     16  C   UNL     1     -15.748   4.237  23.167  0.00  0.00    +0.121 A 
ATOM     18  C   UNL     1     -13.613   4.654  23.520  0.00  0.00    +0.104 A 
ATOM     20  C   UNL     1     -13.972   4.931  22.222  0.00  0.00    +0.130 A 
ATOM     28  H   UNL     1     -14.861   3.918  25.076  0.00  0.00    +0.167 HD
ENDBRANCH  14  16
ENDBRANCH   2  14
ENDBRANCH  15  10
TORSDOF 5
ENDMDL
MODEL 9
REMARK VINA RESULT:      -6.6     26.311     30.541
REMARK  Name = 45783678
REMARK  5 active torsions:
REMARK  status: ('A' for Active; 'I' for Inactive)
REMARK    1  A    between atoms: N_2  and  C_14
REMARK    2  A    between atoms: N_8  and  C_24
REMARK    3  A    between atoms: C_10  and  C_15
REMARK    4  A    between atoms: C_14  and  C_16
REMARK    5  A    between atoms: C_17  and  C_19
REMARK                            x       y       z     vdW  Elec       q    Type
REMARK                         _______ _______ _______ _____ _____    ______ ____
ROOT
ATOM      1  O   UNL     1      -3.552 -11.411  17.961  0.00  0.00    -0.336 OA
ATOM      3  N   UNL     1      -5.186 -10.941  16.502  0.00  0.00    -0.190 NA
ATOM      6  N   UNL     1      -4.720 -11.254  18.720  0.00  0.00    -0.056 NA
ATOM     15  C   UNL     1      -3.915 -11.210  16.667  0.00  0.00    +0.245 A 
ATOM     17  C   UNL     1      -5.638 -10.979  17.789  0.00  0.00    +0.204 A 
ENDROOT
BRANCH  17  19
ATOM      7  N   UNL     1      -8.821 -10.898  19.708  0.00  0.00    -0.237 NA
ATOM     19  C   UNL     1      -7.014 -10.735  18.110  0.00  0.00    +0.041 A 
ATOM     21  C   UNL     1      -7.868 -10.129  17.195  0.00  0.00    +0.017 A 
ATOM     22  C   UNL     1      -7.535 -11.097  19.342  0.00  0.00    +0.124 A 
ATOM     23  C   UNL     1      -9.198  -9.908  17.535  0.00  0.00    +0.047 A 
ATOM     24  C   UNL     1      -9.621 -10.307  18.793  0.00  0.00    +0.139 A 
BRANCH  24   8
ATOM      8  N   UNL     1     -10.946 -10.088  19.137  0.00  0.00    -0.290 N 
ATOM      9  N   UNL     1     -12.799 -10.048  20.361  0.00  0.00    -0.244 NA
ATOM     25  C   UNL     1     -11.913  -9.551  18.334  0.00  0.00    +0.114 A 
ATOM     26  C   UNL     1     -11.525 -10.370  20.343  0.00  0.00    +0.205 A 
ATOM     27  C   UNL     1     -13.048  -9.537  19.112  0.00  0.00    +0.130 A 
ENDBRANCH  24   8
ENDBRANCH  17  19
BRANCH  15  10
ATOM      2  N   UNL     1      -3.123 -10.590  14.390  0.00  0.00    -0.284 NA
ATOM     10  C   UNL     1      -2.815 -11.328  15.632  0.00  0.00    +0.146 C 
ATOM     11  C   UNL     1      -1.479 -10.737  16.116  0.00  0.00    +0.030 C 
ATOM     12  C   UNL     1      -1.084  -9.722  15.053  0.00  0.00    +0.017 C 
ATOM     13  C   UNL     1      -1.838 -10.183  13.823  0.00  0.00    +0.085 C 
BRANCH   2  14
ATOM     14  C   UNL     1      -3.919 -11.364  13.446  0.00  0.00    +0.159 C 
BRANCH  14  16
ATOM      4  N   UNL     1      -5.930  -9.870  13.456  0.00  0.00    -0.347 N 
ATOM      5  N   UNL     1      -5.048 -10.289  11.462  0.00  0.00    -0.239 NA
ATOM     16  C   UNL     1      -4.951 -10.513  12.753  0.00  0.00    +0.121 A 
ATOM     18  C   UNL     1      -6.702  -9.190  12.556  0.00  0.00    +0.104 A 
ATOM     20  C   UNL     1      -6.138  -9.464  11.332  0.00  0.00    +0.130 A 
ATOM     28  H   UNL     1      -6.063  -9.892  14.459  0.00  0.00    +0.167 HD
ENDBRANCH  14  16
ENDBRANCH   2  14
ENDBRANCH  15  10
TORSDOF 5
ENDMDL
MODEL 10
REMARK VINA RESULT:      -6.5     28.622     32.100
REMARK  Name = 45783678
REMARK  5 active torsions:
REMARK  status: ('A' for Active; 'I' for Inactive)
REMARK    1  A    between atoms: N_2  and  C_14
REMARK    2  A    between atoms: N_8  and  C_24
REMARK    3  A    between atoms: C_10  and  C_15
REMARK    4  A    between atoms: C_14  and  C_16
REMARK    5  A    between atoms: C_17  and  C_19
REMARK                            x       y       z     vdW  Elec       q    Type
REMARK                         _______ _______ _______ _____ _____    ______ ____
ROOT
ATOM      1  O   UNL     1      -7.568 -11.112  16.429  0.00  0.00    -0.336 OA
ATOM      3  N   UNL     1      -7.718  -8.911  16.822  0.00  0.00    -0.190 NA
ATOM      6  N   UNL     1      -8.739 -10.681  15.792  0.00  0.00    -0.056 NA
ATOM     15  C   UNL     1      -7.029 -10.008  17.011  0.00  0.00    +0.245 A 
ATOM     17  C   UNL     1      -8.758  -9.373  16.069  0.00  0.00    +0.204 A 
ENDROOT
BRANCH  17  19
ATOM      7  N   UNL     1     -11.544  -8.037  14.001  0.00  0.00    -0.237 NA
ATOM     19  C   UNL     1      -9.801  -8.503  15.611  0.00  0.00    +0.041 A 
ATOM     21  C   UNL     1     -10.092  -7.318  16.279  0.00  0.00    +0.017 A 
ATOM     22  C   UNL     1     -10.549  -8.814  14.487  0.00  0.00    +0.124 A 
ATOM     23  C   UNL     1     -11.108  -6.494  15.809  0.00  0.00    +0.047 A 
ATOM     24  C   UNL     1     -11.798  -6.895  14.676  0.00  0.00    +0.139 A 
BRANCH  24   8
ATOM      8  N   UNL     1     -12.812  -6.076  14.205  0.00  0.00    -0.290 N 
ATOM      9  N   UNL     1     -13.811  -4.300  13.320  0.00  0.00    -0.244 NA
ATOM     25  C   UNL     1     -14.147  -6.369  14.184  0.00  0.00    +0.114 A 
ATOM     26  C   UNL     1     -12.660  -4.824  13.677  0.00  0.00    +0.205 A 
ATOM     27  C   UNL     1     -14.743  -5.258  13.633  0.00  0.00    +0.130 A 
ENDBRANCH  24   8
ENDBRANCH  17  19
BRANCH  15  10
ATOM      2  N   UNL     1      -5.690 -11.508  18.479  0.00  0.00    -0.284 NA
ATOM     10  C   UNL     1      -5.736 -10.211  17.774  0.00  0.00    +0.146 C 
ATOM     11  C   UNL     1      -4.501 -10.223  16.855  0.00  0.00    +0.030 C 
ATOM     12  C   UNL     1      -3.791 -11.535  17.159  0.00  0.00    +0.017 C 
ATOM     13  C   UNL     1      -4.281 -11.892  18.547  0.00  0.00    +0.085 C 
BRANCH   2  14
ATOM     14  C   UNL     1      -6.312 -11.467  19.797  0.00  0.00    +0.159 C 
BRANCH  14  16
ATOM      4  N   UNL     1      -7.936 -13.369  19.656  0.00  0.00    -0.347 N 
ATOM      5  N   UNL     1      -8.831 -11.348  19.864  0.00  0.00    -0.239 NA
ATOM     16  C   UNL     1      -7.709 -12.027  19.777  0.00  0.00    +0.121 A 
ATOM     18  C   UNL     1      -9.289 -13.559  19.668  0.00  0.00    +0.104 A 
ATOM     20  C   UNL     1      -9.820 -12.298  19.796  0.00  0.00    +0.130 A 
ATOM     28  H   UNL     1      -7.233 -14.092  19.572  0.00  0.00    +0.167 HD
ENDBRANCH  14  16
ENDBRANCH   2  14
ENDBRANCH  15  10
TORSDOF 5
ENDMDL
