MODEL 1
REMARK VINA RESULT:      -5.9      0.000      0.000
REMARK  Name = 11912069
REMARK  10 active torsions:
REMARK  status: ('A' for Active; 'I' for Inactive)
REMARK    1  A    between atoms: S_1  and  N_5
REMARK    2  A    between atoms: S_1  and  C_17
REMARK    3  A    between atoms: N_6  and  C_18
REMARK    4  A    between atoms: N_6  and  C_21
REMARK    5  A    between atoms: C_8  and  C_14
REMARK    6  A    between atoms: C_9  and  C_13
REMARK    7  A    between atoms: C_13  and  C_15
REMARK    8  A    between atoms: C_14  and  C_16
REMARK    9  A    between atoms: C_18  and  C_22
REMARK   10  A    between atoms: C_22  and  C_26
REMARK                            x       y       z     vdW  Elec       q    Type
REMARK                         _______ _______ _______ _____ _____    ______ ____
ROOT
ATOM      5  N   UNL     1      12.039   8.804  20.527  0.00  0.00    -0.176 NA
ATOM      8  C   UNL     1      11.380  10.827  22.550  0.00  0.00    +0.003 C 
ATOM      9  C   UNL     1      11.671  11.191  21.075  0.00  0.00    +0.008 C 
ATOM     10  C   UNL     1      10.882   9.373  22.627  0.00  0.00    +0.021 C 
ATOM     11  C   UNL     1      12.614  10.177  20.412  0.00  0.00    +0.113 C 
ATOM     12  C   UNL     1      11.829   8.392  21.943  0.00  0.00    +0.110 C 
ENDROOT
BRANCH   5   1
ATOM      1  S   UNL     1      12.764   7.621  19.521  0.00  0.00    +0.061 S 
ATOM      2  O   UNL     1      12.017   6.387  19.629  0.00  0.00    -0.153 OA
ATOM      3  O   UNL     1      14.196   7.647  19.725  0.00  0.00    -0.153 OA
BRANCH   1  17
ATOM     17  C   UNL     1      12.427   8.319  17.935  0.00  0.00    +0.105 A 
ATOM     19  C   UNL     1      11.116   8.403  17.496  0.00  0.00    +0.028 A 
ATOM     20  C   UNL     1      13.479   8.772  17.156  0.00  0.00    +0.028 A 
ATOM     23  C   UNL     1      10.850   8.956  16.243  0.00  0.00    +0.002 A 
ATOM     24  C   UNL     1      13.213   9.324  15.903  0.00  0.00    +0.002 A 
ATOM     25  C   UNL     1      11.898   9.415  15.446  0.00  0.00    +0.000 A 
ENDBRANCH   1  17
ENDBRANCH   5   1
BRANCH   9  13
ATOM     13  C   UNL     1      12.208  12.613  20.906  0.00  0.00    +0.002 C 
ATOM     15  C   UNL     1      11.174  13.640  21.316  0.00  0.00    +0.004 C 
ENDBRANCH   9  13
BRANCH   8  14
ATOM     14  C   UNL     1      12.566  11.052  23.497  0.00  0.00    +0.100 C 
BRANCH  14  16
ATOM      4  O   UNL     1      11.293  11.420  25.494  0.00  0.00    -0.276 OA
ATOM      6  N   UNL     1      12.876  13.027  24.953  0.00  0.00    -0.304 N 
ATOM     16  C   UNL     1      12.176  11.835  24.738  0.00  0.00    +0.216 C 
ATOM     21  C   UNL     1      13.915  13.498  24.046  0.00  0.00    +0.132 C 
BRANCH   6  18
ATOM     18  C   UNL     1      12.616  13.891  26.101  0.00  0.00    +0.122 C 
BRANCH  18  22
ATOM     22  C   UNL     1      13.881  14.201  26.894  0.00  0.00    +0.137 C 
BRANCH  22  26
ATOM      7  N   UNL     1      14.710  12.118  28.270  0.00  0.00    -0.197 NA
ATOM     26  C   UNL     1      14.344  13.037  27.664  0.00  0.00    +0.064 C 
ENDBRANCH  22  26
ENDBRANCH  18  22
ENDBRANCH   6  18
ENDBRANCH  14  16
ENDBRANCH   8  14
TORSDOF 8
ENDMDL
MODEL 2
REMARK VINA RESULT:      -5.7     22.299     24.230
REMARK  Name = 11912069
REMARK  10 active torsions:
REMARK  status: ('A' for Active; 'I' for Inactive)
REMARK    1  A    between atoms: S_1  and  N_5
REMARK    2  A    between atoms: S_1  and  C_17
REMARK    3  A    between atoms: N_6  and  C_18
REMARK    4  A    between atoms: N_6  and  C_21
REMARK    5  A    between atoms: C_8  and  C_14
REMARK    6  A    between atoms: C_9  and  C_13
REMARK    7  A    between atoms: C_13  and  C_15
REMARK    8  A    between atoms: C_14  and  C_16
REMARK    9  A    between atoms: C_18  and  C_22
REMARK   10  A    between atoms: C_22  and  C_26
REMARK                            x       y       z     vdW  Elec       q    Type
REMARK                         _______ _______ _______ _____ _____    ______ ____
ROOT
ATOM      5  N   UNL     1     -10.057  11.445  16.593  0.00  0.00    -0.176 NA
ATOM      8  C   UNL     1     -10.544   8.575  16.980  0.00  0.00    +0.003 C 
ATOM      9  C   UNL     1     -10.477   9.225  15.578  0.00  0.00    +0.008 C 
ATOM     10  C   UNL     1      -9.741   9.430  17.976  0.00  0.00    +0.021 C 
ATOM     11  C   UNL     1     -10.899  10.700  15.610  0.00  0.00    +0.113 C 
ATOM     12  C   UNL     1     -10.170  10.894  17.972  0.00  0.00    +0.110 C 
ENDROOT
BRANCH   5   1
ATOM      1  S   UNL     1     -10.137  13.154  16.477  0.00  0.00    +0.061 S 
ATOM      2  O   UNL     1     -10.140  13.717  17.810  0.00  0.00    -0.153 OA
ATOM      3  O   UNL     1     -11.154  13.510  15.513  0.00  0.00    -0.153 OA
BRANCH   1  17
ATOM     17  C   UNL     1      -8.561  13.486  15.755  0.00  0.00    +0.105 A 
ATOM     19  C   UNL     1      -8.492  13.865  14.424  0.00  0.00    +0.028 A 
ATOM     20  C   UNL     1      -7.420  13.362  16.530  0.00  0.00    +0.028 A 
ATOM     23  C   UNL     1      -7.246  14.128  13.854  0.00  0.00    +0.002 A 
ATOM     24  C   UNL     1      -6.174  13.625  15.960  0.00  0.00    +0.002 A 
ATOM     25  C   UNL     1      -6.088  14.007  14.621  0.00  0.00    +0.000 A 
ENDBRANCH   1  17
ENDBRANCH   5   1
BRANCH   9  13
ATOM     13  C   UNL     1     -11.281   8.460  14.526  0.00  0.00    +0.002 C 
ATOM     15  C   UNL     1     -10.399   7.503  13.753  0.00  0.00    +0.004 C 
ENDBRANCH   9  13
BRANCH   8  14
ATOM     14  C   UNL     1     -11.971   8.334  17.490  0.00  0.00    +0.100 C 
BRANCH  14  16
ATOM      4  O   UNL     1     -11.410   6.617  19.066  0.00  0.00    -0.276 OA
ATOM      6  N   UNL     1     -12.702   8.375  19.853  0.00  0.00    -0.304 N 
ATOM     16  C   UNL     1     -11.992   7.686  18.863  0.00  0.00    +0.216 C 
ATOM     21  C   UNL     1     -13.383   9.636  19.590  0.00  0.00    +0.132 C 
BRANCH   6  18
ATOM     18  C   UNL     1     -12.815   7.881  21.223  0.00  0.00    +0.122 C 
BRANCH  18  22
ATOM     22  C   UNL     1     -14.214   7.366  21.543  0.00  0.00    +0.137 C 
BRANCH  22  26
ATOM      7  N   UNL     1     -14.259   4.748  21.798  0.00  0.00    -0.197 NA
ATOM     26  C   UNL     1     -14.239   5.903  21.686  0.00  0.00    +0.064 C 
ENDBRANCH  22  26
ENDBRANCH  18  22
ENDBRANCH   6  18
ENDBRANCH  14  16
ENDBRANCH   8  14
TORSDOF 8
ENDMDL
MODEL 3
REMARK VINA RESULT:      -5.6     26.714     28.976
REMARK  Name = 11912069
REMARK  10 active torsions:
REMARK  status: ('A' for Active; 'I' for Inactive)
REMARK    1  A    between atoms: S_1  and  N_5
REMARK    2  A    between atoms: S_1  and  C_17
REMARK    3  A    between atoms: N_6  and  C_18
REMARK    4  A    between atoms: N_6  and  C_21
REMARK    5  A    between atoms: C_8  and  C_14
REMARK    6  A    between atoms: C_9  and  C_13
REMARK    7  A    between atoms: C_13  and  C_15
REMARK    8  A    between atoms: C_14  and  C_16
REMARK    9  A    between atoms: C_18  and  C_22
REMARK   10  A    between atoms: C_22  and  C_26
REMARK                            x       y       z     vdW  Elec       q    Type
REMARK                         _______ _______ _______ _____ _____    ______ ____
ROOT
ATOM      5  N   UNL     1      -5.333 -10.889  14.193  0.00  0.00    -0.176 NA
ATOM      8  C   UNL     1      -4.600 -10.162  16.942  0.00  0.00    +0.003 C 
ATOM      9  C   UNL     1      -3.545 -10.403  15.837  0.00  0.00    +0.008 C 
ATOM     10  C   UNL     1      -5.931  -9.745  16.293  0.00  0.00    +0.021 C 
ATOM     11  C   UNL     1      -4.048 -11.386  14.770  0.00  0.00    +0.113 C 
ATOM     12  C   UNL     1      -6.396 -10.731  15.224  0.00  0.00    +0.110 C 
ENDROOT
BRANCH   5   1
ATOM      1  S   UNL     1      -5.828 -11.657  12.743  0.00  0.00    +0.061 S 
ATOM      2  O   UNL     1      -7.271 -11.597  12.646  0.00  0.00    -0.153 OA
ATOM      3  O   UNL     1      -5.122 -12.913  12.614  0.00  0.00    -0.153 OA
BRANCH   1  17
ATOM     17  C   UNL     1      -5.160 -10.533  11.558  0.00  0.00    +0.105 A 
ATOM     19  C   UNL     1      -4.200 -10.980  10.665  0.00  0.00    +0.028 A 
ATOM     20  C   UNL     1      -5.607  -9.221  11.539  0.00  0.00    +0.028 A 
ATOM     23  C   UNL     1      -3.672 -10.091   9.728  0.00  0.00    +0.002 A 
ATOM     24  C   UNL     1      -5.079  -8.332  10.602  0.00  0.00    +0.002 A 
ATOM     25  C   UNL     1      -4.111  -8.768   9.697  0.00  0.00    +0.000 A 
ENDBRANCH   1  17
ENDBRANCH   5   1
BRANCH   9  13
ATOM     13  C   UNL     1      -2.194 -10.858  16.390  0.00  0.00    +0.002 C 
ATOM     15  C   UNL     1      -1.050 -10.183  15.664  0.00  0.00    +0.004 C 
ENDBRANCH   9  13
BRANCH   8  14
ATOM     14  C   UNL     1      -4.800 -11.353  17.888  0.00  0.00    +0.100 C 
BRANCH  14  16
ATOM      4  O   UNL     1      -5.992 -10.201  19.619  0.00  0.00    -0.276 OA
ATOM      6  N   UNL     1      -6.996 -12.100  18.746  0.00  0.00    -0.304 N 
ATOM     16  C   UNL     1      -5.971 -11.152  18.833  0.00  0.00    +0.216 C 
ATOM     21  C   UNL     1      -6.951 -13.216  17.809  0.00  0.00    +0.132 C 
BRANCH   6  18
ATOM     18  C   UNL     1      -8.189 -12.044  19.587  0.00  0.00    +0.122 C 
BRANCH  18  22
ATOM     22  C   UNL     1      -9.451 -11.736  18.789  0.00  0.00    +0.137 C 
BRANCH  22  26
ATOM      7  N   UNL     1      -9.336  -9.369  17.648  0.00  0.00    -0.197 NA
ATOM     26  C   UNL     1      -9.387 -10.413  18.150  0.00  0.00    +0.064 C 
ENDBRANCH  22  26
ENDBRANCH  18  22
ENDBRANCH   6  18
ENDBRANCH  14  16
ENDBRANCH   8  14
TORSDOF 8
ENDMDL
MODEL 4
REMARK VINA RESULT:      -5.5      4.638      7.692
REMARK  Name = 11912069
REMARK  10 active torsions:
REMARK  status: ('A' for Active; 'I' for Inactive)
REMARK    1  A    between atoms: S_1  and  N_5
REMARK    2  A    between atoms: S_1  and  C_17
REMARK    3  A    between atoms: N_6  and  C_18
REMARK    4  A    between atoms: N_6  and  C_21
REMARK    5  A    between atoms: C_8  and  C_14
REMARK    6  A    between atoms: C_9  and  C_13
REMARK    7  A    between atoms: C_13  and  C_15
REMARK    8  A    between atoms: C_14  and  C_16
REMARK    9  A    between atoms: C_18  and  C_22
REMARK   10  A    between atoms: C_22  and  C_26
REMARK                            x       y       z     vdW  Elec       q    Type
REMARK                         _______ _______ _______ _____ _____    ______ ____
ROOT
ATOM      5  N   UNL     1      13.651  10.129  21.386  0.00  0.00    -0.176 NA
ATOM      8  C   UNL     1      15.471   8.469  19.787  0.00  0.00    +0.003 C 
ATOM      9  C   UNL     1      14.011   8.750  19.360  0.00  0.00    +0.008 C 
ATOM     10  C   UNL     1      15.960   9.605  20.703  0.00  0.00    +0.021 C 
ATOM     11  C   UNL     1      13.100   9.006  20.569  0.00  0.00    +0.113 C 
ATOM     12  C   UNL     1      15.026   9.849  21.884  0.00  0.00    +0.110 C 
ENDROOT
BRANCH   5   1
ATOM      1  S   UNL     1      12.572  10.788  22.543  0.00  0.00    +0.061 S 
ATOM      2  O   UNL     1      13.327  11.219  23.700  0.00  0.00    -0.153 OA
ATOM      3  O   UNL     1      11.435   9.904  22.681  0.00  0.00    -0.153 OA
BRANCH   1  17
ATOM     17  C   UNL     1      12.039  12.231  21.679  0.00  0.00    +0.105 A 
ATOM     19  C   UNL     1      10.910  12.905  22.116  0.00  0.00    +0.028 A 
ATOM     20  C   UNL     1      12.758  12.666  20.577  0.00  0.00    +0.028 A 
ATOM     23  C   UNL     1      10.489  14.046  21.432  0.00  0.00    +0.002 A 
ATOM     24  C   UNL     1      12.337  13.807  19.893  0.00  0.00    +0.002 A 
ATOM     25  C   UNL     1      11.202  14.496  20.321  0.00  0.00    +0.000 A 
ENDBRANCH   1  17
ENDBRANCH   5   1
BRANCH   9  13
ATOM     13  C   UNL     1      13.426   7.650  18.473  0.00  0.00    +0.002 C 
ATOM     15  C   UNL     1      14.053   7.669  17.095  0.00  0.00    +0.004 C 
ENDBRANCH   9  13
BRANCH   8  14
ATOM     14  C   UNL     1      15.678   7.102  20.449  0.00  0.00    +0.100 C 
BRANCH  14  16
ATOM      4  O   UNL     1      16.485   5.725  18.661  0.00  0.00    -0.276 OA
ATOM      6  N   UNL     1      17.969   6.170  20.387  0.00  0.00    -0.304 N 
ATOM     16  C   UNL     1      16.732   6.269  19.741  0.00  0.00    +0.216 C 
ATOM     21  C   UNL     1      18.237   6.822  21.663  0.00  0.00    +0.132 C 
BRANCH   6  18
ATOM     18  C   UNL     1      19.083   5.406  19.833  0.00  0.00    +0.122 C 
BRANCH  18  22
ATOM     22  C   UNL     1      20.379   5.621  20.608  0.00  0.00    +0.137 C 
BRANCH  22  26
ATOM      7  N   UNL     1      21.608   3.350  21.107  0.00  0.00    -0.197 NA
ATOM     26  C   UNL     1      21.066   4.352  20.887  0.00  0.00    +0.064 C 
ENDBRANCH  22  26
ENDBRANCH  18  22
ENDBRANCH   6  18
ENDBRANCH  14  16
ENDBRANCH   8  14
TORSDOF 8
ENDMDL
MODEL 5
REMARK VINA RESULT:      -5.5      2.646      3.917
REMARK  Name = 11912069
REMARK  10 active torsions:
REMARK  status: ('A' for Active; 'I' for Inactive)
REMARK    1  A    between atoms: S_1  and  N_5
REMARK    2  A    between atoms: S_1  and  C_17
REMARK    3  A    between atoms: N_6  and  C_18
REMARK    4  A    between atoms: N_6  and  C_21
REMARK    5  A    between atoms: C_8  and  C_14
REMARK    6  A    between atoms: C_9  and  C_13
REMARK    7  A    between atoms: C_13  and  C_15
REMARK    8  A    between atoms: C_14  and  C_16
REMARK    9  A    between atoms: C_18  and  C_22
REMARK   10  A    between atoms: C_22  and  C_26
REMARK                            x       y       z     vdW  Elec       q    Type
REMARK                         _______ _______ _______ _____ _____    ______ ____
ROOT
ATOM      5  N   UNL     1      12.539   8.852  20.210  0.00  0.00    -0.176 NA
ATOM      8  C   UNL     1      12.793  11.775  20.328  0.00  0.00    +0.003 C 
ATOM      9  C   UNL     1      13.122  10.963  19.053  0.00  0.00    +0.008 C 
ATOM     10  C   UNL     1      11.791  10.987  21.189  0.00  0.00    +0.021 C 
ATOM     11  C   UNL     1      13.579   9.536  19.386  0.00  0.00    +0.113 C 
ATOM     12  C   UNL     1      12.264   9.567  21.487  0.00  0.00    +0.110 C 
ENDROOT
BRANCH   5   1
ATOM      1  S   UNL     1      12.714   7.152  20.344  0.00  0.00    +0.061 S 
ATOM      2  O   UNL     1      12.244   6.531  19.125  0.00  0.00    -0.153 OA
ATOM      3  O   UNL     1      12.217   6.732  21.636  0.00  0.00    -0.153 OA
BRANCH   1  17
ATOM     17  C   UNL     1      14.474   7.027  20.371  0.00  0.00    +0.105 A 
ATOM     19  C   UNL     1      15.162   7.373  21.523  0.00  0.00    +0.028 A 
ATOM     20  C   UNL     1      15.140   6.584  19.239  0.00  0.00    +0.028 A 
ATOM     23  C   UNL     1      16.553   7.273  21.544  0.00  0.00    +0.002 A 
ATOM     24  C   UNL     1      16.531   6.485  19.260  0.00  0.00    +0.002 A 
ATOM     25  C   UNL     1      17.238   6.830  20.413  0.00  0.00    +0.000 A 
ENDBRANCH   1  17
ENDBRANCH   5   1
BRANCH   9  13
ATOM     13  C   UNL     1      14.142  11.657  18.150  0.00  0.00    +0.002 C 
ATOM     15  C   UNL     1      14.299  10.922  16.836  0.00  0.00    +0.004 C 
ENDBRANCH   9  13
BRANCH   8  14
ATOM     14  C   UNL     1      14.024  12.178  21.149  0.00  0.00    +0.100 C 
BRANCH  14  16
ATOM      4  O   UNL     1      13.122  14.168  22.135  0.00  0.00    -0.276 OA
ATOM      6  N   UNL     1      14.001  12.588  23.588  0.00  0.00    -0.304 N 
ATOM     16  C   UNL     1      13.670  13.078  22.320  0.00  0.00    +0.216 C 
ATOM     21  C   UNL     1      14.647  11.296  23.782  0.00  0.00    +0.132 C 
BRANCH   6  18
ATOM     18  C   UNL     1      13.725  13.334  24.813  0.00  0.00    +0.122 C 
BRANCH  18  22
ATOM     22  C   UNL     1      12.766  12.598  25.740  0.00  0.00    +0.137 C 
BRANCH  22  26
ATOM      7  N   UNL     1      10.375  12.341  24.674  0.00  0.00    -0.197 NA
ATOM     26  C   UNL     1      11.429  12.454  25.145  0.00  0.00    +0.064 C 
ENDBRANCH  22  26
ENDBRANCH  18  22
ENDBRANCH   6  18
ENDBRANCH  14  16
ENDBRANCH   8  14
TORSDOF 8
ENDMDL
MODEL 6
REMARK VINA RESULT:      -5.4     16.752     22.772
REMARK  Name = 11912069
REMARK  10 active torsions:
REMARK  status: ('A' for Active; 'I' for Inactive)
REMARK    1  A    between atoms: S_1  and  N_5
REMARK    2  A    between atoms: S_1  and  C_17
REMARK    3  A    between atoms: N_6  and  C_18
REMARK    4  A    between atoms: N_6  and  C_21
REMARK    5  A    between atoms: C_8  and  C_14
REMARK    6  A    between atoms: C_9  and  C_13
REMARK    7  A    between atoms: C_13  and  C_15
REMARK    8  A    between atoms: C_14  and  C_16
REMARK    9  A    between atoms: C_18  and  C_22
REMARK   10  A    between atoms: C_22  and  C_26
REMARK                            x       y       z     vdW  Elec       q    Type
REMARK                         _______ _______ _______ _____ _____    ______ ____
ROOT
ATOM      5  N   UNL     1      11.377   6.112   2.595  0.00  0.00    -0.176 NA
ATOM      8  C   UNL     1      11.227   4.293   0.295  0.00  0.00    +0.003 C 
ATOM      9  C   UNL     1      12.067   3.973   1.554  0.00  0.00    +0.008 C 
ATOM     10  C   UNL     1      10.091   5.260   0.673  0.00  0.00    +0.021 C 
ATOM     11  C   UNL     1      12.548   5.249   2.260  0.00  0.00    +0.113 C 
ATOM     12  C   UNL     1      10.598   6.508   1.389  0.00  0.00    +0.110 C 
ENDROOT
BRANCH   5   1
ATOM      1  S   UNL     1      11.696   7.376   3.709  0.00  0.00    +0.061 S 
ATOM      2  O   UNL     1      11.055   8.587   3.244  0.00  0.00    -0.153 OA
ATOM      3  O   UNL     1      13.102   7.357   4.048  0.00  0.00    -0.153 OA
BRANCH   1  17
ATOM     17  C   UNL     1      10.791   6.788   5.106  0.00  0.00    +0.105 A 
ATOM     19  C   UNL     1      11.458   6.556   6.297  0.00  0.00    +0.028 A 
ATOM     20  C   UNL     1       9.428   6.569   4.988  0.00  0.00    +0.028 A 
ATOM     23  C   UNL     1      10.742   6.093   7.401  0.00  0.00    +0.002 A 
ATOM     24  C   UNL     1       8.712   6.105   6.091  0.00  0.00    +0.002 A 
ATOM     25  C   UNL     1       9.370   5.866   7.298  0.00  0.00    +0.000 A 
ENDBRANCH   1  17
ENDBRANCH   5   1
BRANCH   9  13
ATOM     13  C   UNL     1      13.246   3.043   1.265  0.00  0.00    +0.002 C 
ATOM     15  C   UNL     1      14.562   3.704   1.614  0.00  0.00    +0.004 C 
ENDBRANCH   9  13
BRANCH   8  14
ATOM     14  C   UNL     1      12.045   4.840  -0.881  0.00  0.00    +0.100 C 
BRANCH  14  16
ATOM      4  O   UNL     1      12.369   2.826  -2.139  0.00  0.00    -0.276 OA
ATOM      6  N   UNL     1      11.278   4.566  -3.217  0.00  0.00    -0.304 N 
ATOM     16  C   UNL     1      11.922   3.976  -2.124  0.00  0.00    +0.216 C 
ATOM     21  C   UNL     1      10.757   5.926  -3.176  0.00  0.00    +0.132 C 
BRANCH   6  18
ATOM     18  C   UNL     1      11.082   3.864  -4.483  0.00  0.00    +0.122 C 
BRANCH  18  22
ATOM     22  C   UNL     1       9.642   3.404  -4.676  0.00  0.00    +0.137 C 
BRANCH  22  26
ATOM      7  N   UNL     1       9.113   1.230  -3.294  0.00  0.00    -0.197 NA
ATOM     26  C   UNL     1       9.346   2.188  -3.904  0.00  0.00    +0.064 C 
ENDBRANCH  22  26
ENDBRANCH  18  22
ENDBRANCH   6  18
ENDBRANCH  14  16
ENDBRANCH   8  14
TORSDOF 8
ENDMDL
MODEL 7
REMARK VINA RESULT:      -5.2      6.727      8.478
REMARK  Name = 11912069
REMARK  10 active torsions:
REMARK  status: ('A' for Active; 'I' for Inactive)
REMARK    1  A    between atoms: S_1  and  N_5
REMARK    2  A    between atoms: S_1  and  C_17
REMARK    3  A    between atoms: N_6  and  C_18
REMARK    4  A    between atoms: N_6  and  C_21
REMARK    5  A    between atoms: C_8  and  C_14
REMARK    6  A    between atoms: C_9  and  C_13
REMARK    7  A    between atoms: C_13  and  C_15
REMARK    8  A    between atoms: C_14  and  C_16
REMARK    9  A    between atoms: C_18  and  C_22
REMARK   10  A    between atoms: C_22  and  C_26
REMARK                            x       y       z     vdW  Elec       q    Type
REMARK                         _______ _______ _______ _____ _____    ______ ____
ROOT
ATOM      5  N   UNL     1      15.826   8.079  20.068  0.00  0.00    -0.176 NA
ATOM      8  C   UNL     1      18.196   7.184  21.554  0.00  0.00    +0.003 C 
ATOM      9  C   UNL     1      17.654   8.630  21.646  0.00  0.00    +0.008 C 
ATOM     10  C   UNL     1      17.051   6.236  21.155  0.00  0.00    +0.021 C 
ATOM     11  C   UNL     1      16.922   9.049  20.364  0.00  0.00    +0.113 C 
ATOM     12  C   UNL     1      16.330   6.689  19.888  0.00  0.00    +0.110 C 
ENDROOT
BRANCH   5   1
ATOM      1  S   UNL     1      14.682   8.600  18.903  0.00  0.00    +0.061 S 
ATOM      2  O   UNL     1      14.566   7.591  17.872  0.00  0.00    -0.153 OA
ATOM      3  O   UNL     1      14.951   9.981  18.569  0.00  0.00    -0.153 OA
BRANCH   1  17
ATOM     17  C   UNL     1      13.210   8.550  19.875  0.00  0.00    +0.105 A 
ATOM     19  C   UNL     1      13.311   8.514  21.257  0.00  0.00    +0.028 A 
ATOM     20  C   UNL     1      11.978   8.549  19.242  0.00  0.00    +0.028 A 
ATOM     23  C   UNL     1      12.147   8.476  22.025  0.00  0.00    +0.002 A 
ATOM     24  C   UNL     1      10.814   8.510  20.010  0.00  0.00    +0.002 A 
ATOM     25  C   UNL     1      10.899   8.473  21.402  0.00  0.00    +0.000 A 
ENDBRANCH   1  17
ENDBRANCH   5   1
BRANCH   9  13
ATOM     13  C   UNL     1      18.735   9.650  22.004  0.00  0.00    +0.002 C 
ATOM     15  C   UNL     1      18.761  10.792  21.009  0.00  0.00    +0.004 C 
ENDBRANCH   9  13
BRANCH   8  14
ATOM     14  C   UNL     1      19.396   7.023  20.612  0.00  0.00    +0.100 C 
BRANCH  14  16
ATOM      4  O   UNL     1      19.985   4.742  20.170  0.00  0.00    -0.276 OA
ATOM      6  N   UNL     1      21.076   5.780  21.934  0.00  0.00    -0.304 N 
ATOM     16  C   UNL     1      20.167   5.741  20.871  0.00  0.00    +0.216 C 
ATOM     21  C   UNL     1      21.275   6.972  22.749  0.00  0.00    +0.132 C 
BRANCH   6  18
ATOM     18  C   UNL     1      21.893   4.629  22.308  0.00  0.00    +0.122 C 
BRANCH  18  22
ATOM     22  C   UNL     1      23.387   4.908  22.182  0.00  0.00    +0.137 C 
BRANCH  22  26
ATOM      7  N   UNL     1      24.325   4.189  19.833  0.00  0.00    -0.197 NA
ATOM     26  C   UNL     1      23.910   4.506  20.868  0.00  0.00    +0.064 C 
ENDBRANCH  22  26
ENDBRANCH  18  22
ENDBRANCH   6  18
ENDBRANCH  14  16
ENDBRANCH   8  14
TORSDOF 8
ENDMDL
MODEL 8
REMARK VINA RESULT:      -5.2     15.384     20.925
REMARK  Name = 11912069
REMARK  10 active torsions:
REMARK  status: ('A' for Active; 'I' for Inactive)
REMARK    1  A    between atoms: S_1  and  N_5
REMARK    2  A    between atoms: S_1  and  C_17
REMARK    3  A    between atoms: N_6  and  C_18
REMARK    4  A    between atoms: N_6  and  C_21
REMARK    5  A    between atoms: C_8  and  C_14
REMARK    6  A    between atoms: C_9  and  C_13
REMARK    7  A    between atoms: C_13  and  C_15
REMARK    8  A    between atoms: C_14  and  C_16
REMARK    9  A    between atoms: C_18  and  C_22
REMARK   10  A    between atoms: C_22  and  C_26
REMARK                            x       y       z     vdW  Elec       q    Type
REMARK                         _______ _______ _______ _____ _____    ______ ____
ROOT
ATOM      5  N   UNL     1      10.563   6.497   4.443  0.00  0.00    -0.176 NA
ATOM      8  C   UNL     1      12.441   5.592   2.376  0.00  0.00    +0.003 C 
ATOM      9  C   UNL     1      12.864   6.534   3.528  0.00  0.00    +0.008 C 
ATOM     10  C   UNL     1      11.220   4.767   2.815  0.00  0.00    +0.021 C 
ATOM     11  C   UNL     1      11.689   7.386   4.030  0.00  0.00    +0.113 C 
ATOM     12  C   UNL     1      10.077   5.638   3.327  0.00  0.00    +0.110 C 
ENDROOT
BRANCH   5   1
ATOM      1  S   UNL     1       9.337   7.254   5.372  0.00  0.00    +0.061 S 
ATOM      2  O   UNL     1       8.057   7.030   4.736  0.00  0.00    -0.153 OA
ATOM      3  O   UNL     1       9.773   8.588   5.723  0.00  0.00    -0.153 OA
BRANCH   1  17
ATOM     17  C   UNL     1       9.399   6.260   6.829  0.00  0.00    +0.105 A 
ATOM     19  C   UNL     1       9.816   4.943   6.733  0.00  0.00    +0.028 A 
ATOM     20  C   UNL     1       9.029   6.813   8.044  0.00  0.00    +0.028 A 
ATOM     23  C   UNL     1       9.865   4.157   7.885  0.00  0.00    +0.002 A 
ATOM     24  C   UNL     1       9.077   6.028   9.196  0.00  0.00    +0.002 A 
ATOM     25  C   UNL     1       9.495   4.699   9.116  0.00  0.00    +0.000 A 
ENDBRANCH   1  17
ENDBRANCH   5   1
BRANCH   9  13
ATOM     13  C   UNL     1      14.054   7.423   3.165  0.00  0.00    +0.002 C 
ATOM     15  C   UNL     1      14.950   7.653   4.364  0.00  0.00    +0.004 C 
ENDBRANCH   9  13
BRANCH   8  14
ATOM     14  C   UNL     1      12.170   6.309   1.047  0.00  0.00    +0.100 C 
BRANCH  14  16
ATOM      4  O   UNL     1      13.922   5.308  -0.247  0.00  0.00    -0.276 OA
ATOM      6  N   UNL     1      11.769   5.136  -1.093  0.00  0.00    -0.304 N 
ATOM     16  C   UNL     1      12.715   5.544  -0.146  0.00  0.00    +0.216 C 
ATOM     21  C   UNL     1      10.348   5.426  -0.953  0.00  0.00    +0.132 C 
BRANCH   6  18
ATOM     18  C   UNL     1      12.136   4.391  -2.295  0.00  0.00    +0.122 C 
BRANCH  18  22
ATOM     22  C   UNL     1      12.185   2.887  -2.055  0.00  0.00    +0.137 C 
BRANCH  22  26
ATOM      7  N   UNL     1      10.005   1.687  -2.907  0.00  0.00    -0.197 NA
ATOM     26  C   UNL     1      10.966   2.216  -2.531  0.00  0.00    +0.064 C 
ENDBRANCH  22  26
ENDBRANCH  18  22
ENDBRANCH   6  18
ENDBRANCH  14  16
ENDBRANCH   8  14
TORSDOF 8
ENDMDL
MODEL 9
REMARK VINA RESULT:      -5.2     27.313     30.113
REMARK  Name = 11912069
REMARK  10 active torsions:
REMARK  status: ('A' for Active; 'I' for Inactive)
REMARK    1  A    between atoms: S_1  and  N_5
REMARK    2  A    between atoms: S_1  and  C_17
REMARK    3  A    between atoms: N_6  and  C_18
REMARK    4  A    between atoms: N_6  and  C_21
REMARK    5  A    between atoms: C_8  and  C_14
REMARK    6  A    between atoms: C_9  and  C_13
REMARK    7  A    between atoms: C_13  and  C_15
REMARK    8  A    between atoms: C_14  and  C_16
REMARK    9  A    between atoms: C_18  and  C_22
REMARK   10  A    between atoms: C_22  and  C_26
REMARK                            x       y       z     vdW  Elec       q    Type
REMARK                         _______ _______ _______ _____ _____    ______ ____
ROOT
ATOM      5  N   UNL     1      -2.841 -10.938  13.378  0.00  0.00    -0.176 NA
ATOM      8  C   UNL     1      -3.870  -9.908  10.828  0.00  0.00    +0.003 C 
ATOM      9  C   UNL     1      -4.736  -9.973  12.109  0.00  0.00    +0.008 C 
ATOM     10  C   UNL     1      -2.385  -9.835  11.222  0.00  0.00    +0.021 C 
ATOM     11  C   UNL     1      -4.287 -11.103  13.046  0.00  0.00    +0.113 C 
ATOM     12  C   UNL     1      -1.973 -10.959  12.168  0.00  0.00    +0.110 C 
ENDROOT
BRANCH   5   1
ATOM      1  S   UNL     1      -2.281 -11.880  14.697  0.00  0.00    +0.061 S 
ATOM      2  O   UNL     1      -1.135 -11.226  15.291  0.00  0.00    -0.153 OA
ATOM      3  O   UNL     1      -2.221 -13.266  14.289  0.00  0.00    -0.153 OA
BRANCH   1  17
ATOM     17  C   UNL     1      -3.643 -11.695  15.804  0.00  0.00    +0.105 A 
ATOM     19  C   UNL     1      -4.489 -12.770  16.024  0.00  0.00    +0.028 A 
ATOM     20  C   UNL     1      -3.843 -10.479  16.437  0.00  0.00    +0.028 A 
ATOM     23  C   UNL     1      -5.565 -12.624  16.899  0.00  0.00    +0.002 A 
ATOM     24  C   UNL     1      -4.919 -10.333  17.312  0.00  0.00    +0.002 A 
ATOM     25  C   UNL     1      -5.781 -11.406  17.543  0.00  0.00    +0.000 A 
ENDBRANCH   1  17
ENDBRANCH   5   1
BRANCH   9  13
ATOM     13  C   UNL     1      -6.232 -10.084  11.813  0.00  0.00    +0.002 C 
ATOM     15  C   UNL     1      -7.058  -9.572  12.974  0.00  0.00    +0.004 C 
ENDBRANCH   9  13
BRANCH   8  14
ATOM     14  C   UNL     1      -4.122 -11.056   9.844  0.00  0.00    +0.100 C 
BRANCH  14  16
ATOM      4  O   UNL     1      -4.697  -9.359   8.252  0.00  0.00    -0.276 OA
ATOM      6  N   UNL     1      -4.603 -11.539   7.466  0.00  0.00    -0.304 N 
ATOM     16  C   UNL     1      -4.500 -10.560   8.459  0.00  0.00    +0.216 C 
ATOM     21  C   UNL     1      -4.366 -12.952   7.734  0.00  0.00    +0.132 C 
BRANCH   6  18
ATOM     18  C   UNL     1      -4.957 -11.220   6.085  0.00  0.00    +0.122 C 
BRANCH  18  22
ATOM     22  C   UNL     1      -6.455 -11.007   5.902  0.00  0.00    +0.137 C 
BRANCH  22  26
ATOM      7  N   UNL     1      -7.010  -8.542   5.169  0.00  0.00    -0.197 NA
ATOM     26  C   UNL     1      -6.766  -9.629   5.493  0.00  0.00    +0.064 C 
ENDBRANCH  22  26
ENDBRANCH  18  22
ENDBRANCH   6  18
ENDBRANCH  14  16
ENDBRANCH   8  14
TORSDOF 8
ENDMDL
MODEL 10
REMARK VINA RESULT:      -5.2     27.561     29.172
REMARK  Name = 11912069
REMARK  10 active torsions:
REMARK  status: ('A' for Active; 'I' for Inactive)
REMARK    1  A    between atoms: S_1  and  N_5
REMARK    2  A    between atoms: S_1  and  C_17
REMARK    3  A    between atoms: N_6  and  C_18
REMARK    4  A    between atoms: N_6  and  C_21
REMARK    5  A    between atoms: C_8  and  C_14
REMARK    6  A    between atoms: C_9  and  C_13
REMARK    7  A    between atoms: C_13  and  C_15
REMARK    8  A    between atoms: C_14  and  C_16
REMARK    9  A    between atoms: C_18  and  C_22
REMARK   10  A    between atoms: C_22  and  C_26
REMARK                            x       y       z     vdW  Elec       q    Type
REMARK                         _______ _______ _______ _____ _____    ______ ____
ROOT
ATOM      5  N   UNL     1      -4.423 -11.545  15.126  0.00  0.00    -0.176 NA
ATOM      8  C   UNL     1      -6.049 -10.096  17.095  0.00  0.00    +0.003 C 
ATOM      9  C   UNL     1      -4.799 -10.916  17.492  0.00  0.00    +0.008 C 
ATOM     10  C   UNL     1      -5.924  -9.655  15.626  0.00  0.00    +0.021 C 
ATOM     11  C   UNL     1      -4.541 -12.074  16.517  0.00  0.00    +0.113 C 
ATOM     12  C   UNL     1      -5.649 -10.824  14.685  0.00  0.00    +0.110 C 
ENDROOT
BRANCH   5   1
ATOM      1  S   UNL     1      -3.765 -12.639  13.982  0.00  0.00    +0.061 S 
ATOM      2  O   UNL     1      -4.831 -13.455  13.442  0.00  0.00    -0.153 OA
ATOM      3  O   UNL     1      -2.574 -13.240  14.541  0.00  0.00    -0.153 OA
BRANCH   1  17
ATOM     17  C   UNL     1      -3.264 -11.504  12.726  0.00  0.00    +0.105 A 
ATOM     19  C   UNL     1      -2.067 -10.822  12.867  0.00  0.00    +0.028 A 
ATOM     20  C   UNL     1      -4.077 -11.314  11.620  0.00  0.00    +0.028 A 
ATOM     23  C   UNL     1      -1.672  -9.925  11.874  0.00  0.00    +0.002 A 
ATOM     24  C   UNL     1      -3.682 -10.418  10.627  0.00  0.00    +0.002 A 
ATOM     25  C   UNL     1      -2.479  -9.722  10.755  0.00  0.00    +0.000 A 
ENDBRANCH   1  17
ENDBRANCH   5   1
BRANCH   9  13
ATOM     13  C   UNL     1      -4.853 -11.429  18.931  0.00  0.00    +0.002 C 
ATOM     15  C   UNL     1      -3.617 -12.234  19.272  0.00  0.00    +0.004 C 
ENDBRANCH   9  13
BRANCH   8  14
ATOM     14  C   UNL     1      -7.378 -10.823  17.339  0.00  0.00    +0.100 C 
BRANCH  14  16
ATOM      4  O   UNL     1      -8.706  -8.871  17.754  0.00  0.00    -0.276 OA
ATOM      6  N   UNL     1      -9.506 -10.360  16.165  0.00  0.00    -0.304 N 
ATOM     16  C   UNL     1      -8.580  -9.921  17.118  0.00  0.00    +0.216 C 
ATOM     21  C   UNL     1      -9.336 -11.604  15.426  0.00  0.00    +0.132 C 
BRANCH   6  18
ATOM     18  C   UNL     1     -10.712  -9.604  15.840  0.00  0.00    +0.122 C 
BRANCH  18  22
ATOM     22  C   UNL     1     -10.448  -8.488  14.836  0.00  0.00    +0.137 C 
BRANCH  22  26
ATOM      7  N   UNL     1     -10.894  -6.111  15.870  0.00  0.00    -0.197 NA
ATOM     26  C   UNL     1     -10.698  -7.160  15.415  0.00  0.00    +0.064 C 
ENDBRANCH  22  26
ENDBRANCH  18  22
ENDBRANCH   6  18
ENDBRANCH  14  16
ENDBRANCH   8  14
TORSDOF 8
ENDMDL
