MODEL 1
REMARK VINA RESULT:      -8.5      0.000      0.000
REMARK  Name = 11912250
REMARK  5 active torsions:
REMARK  status: ('A' for Active; 'I' for Inactive)
REMARK    1  A    between atoms: S_1  and  N_9
REMARK    2  A    between atoms: S_1  and  C_26
REMARK    3  A    between atoms: N_10  and  C_24
REMARK    4  A    between atoms: C_12  and  C_18
REMARK    5  A    between atoms: C_13  and  C_23
REMARK                            x       y       z     vdW  Elec       q    Type
REMARK                         _______ _______ _______ _____ _____    ______ ____
ROOT
ATOM      3  O   UNL     1      17.528   6.270  19.320  0.00  0.00    -0.275 OA
ATOM      8  N   UNL     1      15.711   6.977  20.590  0.00  0.00    -0.298 N 
ATOM      9  N   UNL     1      13.053   8.060  20.707  0.00  0.00    -0.162 NA
ATOM     13  C   UNL     1      13.575   7.515  19.421  0.00  0.00    +0.183 C 
ATOM     16  C   UNL     1      14.722   6.525  19.610  0.00  0.00    +0.137 C 
ATOM     17  C   UNL     1      15.189   7.590  21.813  0.00  0.00    +0.125 C 
ATOM     18  C   UNL     1      17.072   6.785  20.344  0.00  0.00    +0.219 C 
ATOM     19  C   UNL     1      13.675   7.480  21.926  0.00  0.00    +0.129 C 
ENDROOT
BRANCH  18  12
ATOM     12  C   UNL     1      18.007   7.246  21.423  0.00  0.00    +0.075 C 
ATOM     14  C   UNL     1      18.349   8.724  21.221  0.00  0.00    +0.013 C 
ATOM     15  C   UNL     1      19.265   6.375  21.430  0.00  0.00    +0.013 C 
ATOM     20  C   UNL     1      19.372   9.210  22.243  0.00  0.00    +0.001 C 
ATOM     21  C   UNL     1      20.286   6.868  22.452  0.00  0.00    +0.001 C 
ATOM     22  C   UNL     1      20.625   8.340  22.243  0.00  0.00    +0.000 C 
ENDBRANCH  18  12
BRANCH  13  23
ATOM      6  O   UNL     1      15.046   9.332  18.954  0.00  0.00    -0.274 OA
ATOM     10  N   UNL     1      13.144   9.054  17.642  0.00  0.00    -0.303 N 
ATOM     23  C   UNL     1      14.021   8.723  18.661  0.00  0.00    +0.234 C 
ATOM     35  H   UNL     1      12.340   8.457  17.469  0.00  0.00    +0.149 HD
BRANCH  10  24
ATOM      7  O   UNL     1      14.062   8.606  15.107  0.00  0.00    -0.274 OA
ATOM     11  N   UNL     1      14.963  10.703  15.000  0.00  0.00    -0.314 N 
ATOM     24  C   UNL     1      13.333  10.189  16.777  0.00  0.00    +0.159 C 
ATOM     25  C   UNL     1      13.919  11.365  17.546  0.00  0.00    +0.033 C 
ATOM     27  C   UNL     1      14.269  12.484  16.577  0.00  0.00    +0.021 C 
ATOM     28  C   UNL     1      14.169   9.738  15.584  0.00  0.00    +0.233 C 
ATOM     29  C   UNL     1      15.309  11.980  15.594  0.00  0.00    +0.104 C 
ATOM     36  H   UNL     1      15.481  10.429  14.170  0.00  0.00    +0.149 HD
ENDBRANCH  10  24
ENDBRANCH  13  23
BRANCH   9   1
ATOM      1  S   UNL     1      11.371   8.356  20.788  0.00  0.00    +0.062 S 
ATOM      4  O   UNL     1      10.771   7.427  21.723  0.00  0.00    -0.153 OA
ATOM      5  O   UNL     1      10.853   8.497  19.444  0.00  0.00    -0.153 OA
BRANCH   1  26
ATOM      2  F   UNL     1      11.379  13.688  23.299  0.00  0.00    -0.205 F 
ATOM     26  C   UNL     1      11.373   9.953  21.541  0.00  0.00    +0.106 A 
ATOM     30  C   UNL     1      11.932  11.039  20.868  0.00  0.00    +0.031 A 
ATOM     31  C   UNL     1      10.817  10.127  22.807  0.00  0.00    +0.031 A 
ATOM     32  C   UNL     1      11.934  12.302  21.462  0.00  0.00    +0.040 A 
ATOM     33  C   UNL     1      10.819  11.390  23.401  0.00  0.00    +0.040 A 
ATOM     34  C   UNL     1      11.378  12.476  22.728  0.00  0.00    +0.124 A 
ENDBRANCH   1  26
ENDBRANCH   9   1
TORSDOF 5
ENDMDL
MODEL 2
REMARK VINA RESULT:      -7.3     27.877     29.874
REMARK  Name = 11912250
REMARK  5 active torsions:
REMARK  status: ('A' for Active; 'I' for Inactive)
REMARK    1  A    between atoms: S_1  and  N_9
REMARK    2  A    between atoms: S_1  and  C_26
REMARK    3  A    between atoms: N_10  and  C_24
REMARK    4  A    between atoms: C_12  and  C_18
REMARK    5  A    between atoms: C_13  and  C_23
REMARK                            x       y       z     vdW  Elec       q    Type
REMARK                         _______ _______ _______ _____ _____    ______ ____
ROOT
ATOM      3  O   UNL     1      -3.675 -12.954  13.024  0.00  0.00    -0.275 OA
ATOM      8  N   UNL     1      -4.334 -11.638  14.825  0.00  0.00    -0.298 N 
ATOM      9  N   UNL     1      -6.003 -11.270  17.134  0.00  0.00    -0.162 NA
ATOM     13  C   UNL     1      -5.863 -12.626  16.529  0.00  0.00    +0.183 C 
ATOM     16  C   UNL     1      -4.592 -12.785  15.698  0.00  0.00    +0.137 C 
ATOM     17  C   UNL     1      -4.557 -10.311  15.403  0.00  0.00    +0.125 C 
ATOM     18  C   UNL     1      -3.869 -11.844  13.525  0.00  0.00    +0.219 C 
ATOM     19  C   UNL     1      -4.852 -10.361  16.895  0.00  0.00    +0.129 C 
ENDROOT
BRANCH  18  12
ATOM     12  C   UNL     1      -3.596 -10.609  12.719  0.00  0.00    +0.075 C 
ATOM     14  C   UNL     1      -4.743 -10.363  11.736  0.00  0.00    +0.013 C 
ATOM     15  C   UNL     1      -2.256 -10.743  11.995  0.00  0.00    +0.013 C 
ATOM     20  C   UNL     1      -4.462  -9.167  10.831  0.00  0.00    +0.001 C 
ATOM     21  C   UNL     1      -1.981  -9.546  11.089  0.00  0.00    +0.001 C 
ATOM     22  C   UNL     1      -3.126  -9.308  10.109  0.00  0.00    +0.000 C 
ENDBRANCH  18  12
BRANCH  13  23
ATOM      6  O   UNL     1      -7.492 -13.886  15.330  0.00  0.00    -0.274 OA
ATOM     10  N   UNL     1      -7.658 -11.565  15.357  0.00  0.00    -0.303 N 
ATOM     23  C   UNL     1      -7.087 -12.783  15.684  0.00  0.00    +0.234 C 
ATOM     35  H   UNL     1      -7.253 -10.712  15.735  0.00  0.00    +0.149 HD
BRANCH  10  24
ATOM      7  O   UNL     1      -7.715  -9.578  13.480  0.00  0.00    -0.274 OA
ATOM     11  N   UNL     1      -9.998  -9.508  13.539  0.00  0.00    -0.314 N 
ATOM     24  C   UNL     1      -8.833 -11.440  14.535  0.00  0.00    +0.159 C 
ATOM     25  C   UNL     1     -10.094 -11.679  15.352  0.00  0.00    +0.033 C 
ATOM     27  C   UNL     1     -11.318 -11.371  14.503  0.00  0.00    +0.021 C 
ATOM     28  C   UNL     1      -8.781 -10.083  13.842  0.00  0.00    +0.233 C 
ATOM     29  C   UNL     1     -11.278  -9.911  14.090  0.00  0.00    +0.104 C 
ATOM     36  H   UNL     1      -9.976  -8.631  13.027  0.00  0.00    +0.149 HD
ENDBRANCH  10  24
ENDBRANCH  13  23
BRANCH   9   1
ATOM      1  S   UNL     1      -6.714 -11.193  18.687  0.00  0.00    +0.062 S 
ATOM      4  O   UNL     1      -5.887 -10.372  19.546  0.00  0.00    -0.153 OA
ATOM      5  O   UNL     1      -7.112 -12.525  19.089  0.00  0.00    -0.153 OA
BRANCH   1  26
ATOM      2  F   UNL     1     -11.595  -8.136  17.438  0.00  0.00    -0.205 F 
ATOM     26  C   UNL     1      -8.176 -10.278  18.313  0.00  0.00    +0.106 A 
ATOM     30  C   UNL     1      -8.109  -9.173  17.463  0.00  0.00    +0.031 A 
ATOM     31  C   UNL     1      -9.398 -10.659  18.867  0.00  0.00    +0.031 A 
ATOM     32  C   UNL     1      -9.265  -8.449  17.168  0.00  0.00    +0.040 A 
ATOM     33  C   UNL     1     -10.553  -9.935  18.571  0.00  0.00    +0.040 A 
ATOM     34  C   UNL     1     -10.486  -8.830  17.722  0.00  0.00    +0.124 A 
ENDBRANCH   1  26
ENDBRANCH   9   1
TORSDOF 5
ENDMDL
MODEL 3
REMARK VINA RESULT:      -7.0     13.631     16.925
REMARK  Name = 11912250
REMARK  5 active torsions:
REMARK  status: ('A' for Active; 'I' for Inactive)
REMARK    1  A    between atoms: S_1  and  N_9
REMARK    2  A    between atoms: S_1  and  C_26
REMARK    3  A    between atoms: N_10  and  C_24
REMARK    4  A    between atoms: C_12  and  C_18
REMARK    5  A    between atoms: C_13  and  C_23
REMARK                            x       y       z     vdW  Elec       q    Type
REMARK                         _______ _______ _______ _____ _____    ______ ____
ROOT
ATOM      3  O   UNL     1      16.929  -7.001  30.718  0.00  0.00    -0.275 OA
ATOM      8  N   UNL     1      16.774  -6.916  28.398  0.00  0.00    -0.298 N 
ATOM      9  N   UNL     1      17.813  -5.985  25.887  0.00  0.00    -0.162 NA
ATOM     13  C   UNL     1      18.660  -5.915  27.112  0.00  0.00    +0.183 C 
ATOM     16  C   UNL     1      18.224  -6.890  28.201  0.00  0.00    +0.137 C 
ATOM     17  C   UNL     1      15.948  -6.897  27.189  0.00  0.00    +0.125 C 
ATOM     18  C   UNL     1      16.248  -6.984  29.690  0.00  0.00    +0.219 C 
ATOM     19  C   UNL     1      16.768  -7.041  25.914  0.00  0.00    +0.129 C 
ENDROOT
BRANCH  18  12
ATOM     12  C   UNL     1      14.753  -7.044  29.789  0.00  0.00    +0.075 C 
ATOM     14  C   UNL     1      14.234  -5.846  30.588  0.00  0.00    +0.013 C 
ATOM     15  C   UNL     1      14.325  -8.369  30.425  0.00  0.00    +0.013 C 
ATOM     20  C   UNL     1      12.724  -5.917  30.794  0.00  0.00    +0.001 C 
ATOM     21  C   UNL     1      12.814  -8.433  30.631  0.00  0.00    +0.001 C 
ATOM     22  C   UNL     1      12.304  -7.238  31.431  0.00  0.00    +0.000 C 
ENDBRANCH  18  12
BRANCH  13  23
ATOM      6  O   UNL     1      17.493  -4.067  28.062  0.00  0.00    -0.274 OA
ATOM     10  N   UNL     1      19.689  -3.768  27.351  0.00  0.00    -0.303 N 
ATOM     23  C   UNL     1      18.532  -4.497  27.570  0.00  0.00    +0.234 C 
ATOM     35  H   UNL     1      20.503  -4.238  26.964  0.00  0.00    +0.149 HD
BRANCH  10  24
ATOM      7  O   UNL     1      20.226  -2.005  25.332  0.00  0.00    -0.274 OA
ATOM     11  N   UNL     1      21.213  -0.548  26.789  0.00  0.00    -0.314 N 
ATOM     24  C   UNL     1      19.817  -2.373  27.682  0.00  0.00    +0.159 C 
ATOM     25  C   UNL     1      20.564  -2.195  28.996  0.00  0.00    +0.033 C 
ATOM     27  C   UNL     1      20.836  -0.718  29.233  0.00  0.00    +0.021 C 
ATOM     28  C   UNL     1      20.457  -1.664  26.495  0.00  0.00    +0.233 C 
ATOM     29  C   UNL     1      21.704  -0.188  28.106  0.00  0.00    +0.104 C 
ATOM     36  H   UNL     1      21.597  -0.034  26.002  0.00  0.00    +0.149 HD
ENDBRANCH  10  24
ENDBRANCH  13  23
BRANCH   9   1
ATOM      1  S   UNL     1      18.606  -5.749  24.391  0.00  0.00    +0.062 S 
ATOM      4  O   UNL     1      18.219  -6.805  23.478  0.00  0.00    -0.153 OA
ATOM      5  O   UNL     1      20.001  -5.455  24.639  0.00  0.00    -0.153 OA
BRANCH   1  26
ATOM      2  F   UNL     1      15.989  -0.779  22.607  0.00  0.00    -0.205 F 
ATOM     26  C   UNL     1      17.823  -4.260  23.856  0.00  0.00    +0.106 A 
ATOM     30  C   UNL     1      16.666  -3.813  24.495  0.00  0.00    +0.031 A 
ATOM     31  C   UNL     1      18.360  -3.532  22.795  0.00  0.00    +0.031 A 
ATOM     32  C   UNL     1      16.046  -2.636  24.073  0.00  0.00    +0.040 A 
ATOM     33  C   UNL     1      17.740  -2.356  22.373  0.00  0.00    +0.040 A 
ATOM     34  C   UNL     1      16.583  -1.908  23.012  0.00  0.00    +0.124 A 
ENDBRANCH   1  26
ENDBRANCH   9   1
TORSDOF 5
ENDMDL
MODEL 4
REMARK VINA RESULT:      -6.9     13.364     15.749
REMARK  Name = 11912250
REMARK  5 active torsions:
REMARK  status: ('A' for Active; 'I' for Inactive)
REMARK    1  A    between atoms: S_1  and  N_9
REMARK    2  A    between atoms: S_1  and  C_26
REMARK    3  A    between atoms: N_10  and  C_24
REMARK    4  A    between atoms: C_12  and  C_18
REMARK    5  A    between atoms: C_13  and  C_23
REMARK                            x       y       z     vdW  Elec       q    Type
REMARK                         _______ _______ _______ _____ _____    ______ ____
ROOT
ATOM      3  O   UNL     1      15.803   8.743   6.221  0.00  0.00    -0.275 OA
ATOM      8  N   UNL     1      13.487   8.963   6.210  0.00  0.00    -0.298 N 
ATOM      9  N   UNL     1      10.913   7.932   5.462  0.00  0.00    -0.162 NA
ATOM     13  C   UNL     1      12.109   7.044   5.415  0.00  0.00    +0.183 C 
ATOM     16  C   UNL     1      13.249   7.523   6.310  0.00  0.00    +0.137 C 
ATOM     17  C   UNL     1      12.302   9.823   6.170  0.00  0.00    +0.125 C 
ATOM     18  C   UNL     1      14.795   9.452   6.187  0.00  0.00    +0.219 C 
ATOM     19  C   UNL     1      11.012   9.057   6.427  0.00  0.00    +0.129 C 
ENDROOT
BRANCH  18  12
ATOM     12  C   UNL     1      14.939  10.944   6.122  0.00  0.00    +0.075 C 
ATOM     14  C   UNL     1      15.550  11.351   4.779  0.00  0.00    +0.013 C 
ATOM     15  C   UNL     1      15.786  11.439   7.296  0.00  0.00    +0.013 C 
ATOM     20  C   UNL     1      15.800  12.854   4.707  0.00  0.00    +0.001 C 
ATOM     21  C   UNL     1      16.037  12.942   7.217  0.00  0.00    +0.001 C 
ATOM     22  C   UNL     1      16.649  13.341   5.878  0.00  0.00    +0.000 C 
ENDBRANCH  18  12
BRANCH  13  23
ATOM      6  O   UNL     1      12.862   8.072   3.400  0.00  0.00    -0.274 OA
ATOM     10  N   UNL     1      12.425   5.786   3.405  0.00  0.00    -0.303 N 
ATOM     23  C   UNL     1      12.514   7.044   3.975  0.00  0.00    +0.234 C 
ATOM     35  H   UNL     1      12.155   4.998   3.988  0.00  0.00    +0.149 HD
BRANCH  10  24
ATOM      7  O   UNL     1      10.751   4.149   1.993  0.00  0.00    -0.274 OA
ATOM     11  N   UNL     1      12.439   3.548   0.576  0.00  0.00    -0.314 N 
ATOM     24  C   UNL     1      12.737   5.521   2.025  0.00  0.00    +0.159 C 
ATOM     25  C   UNL     1      14.236   5.336   1.834  0.00  0.00    +0.033 C 
ATOM     27  C   UNL     1      14.517   4.888   0.408  0.00  0.00    +0.021 C 
ATOM     28  C   UNL     1      11.895   4.334   1.571  0.00  0.00    +0.233 C 
ATOM     29  C   UNL     1      13.830   3.557   0.164  0.00  0.00    +0.104 C 
ATOM     36  H   UNL     1      11.864   2.788   0.226  0.00  0.00    +0.149 HD
ENDBRANCH  10  24
ENDBRANCH  13  23
BRANCH   9   1
ATOM      1  S   UNL     1       9.387   7.170   5.347  0.00  0.00    +0.062 S 
ATOM      4  O   UNL     1       9.404   6.237   4.240  0.00  0.00    -0.153 OA
ATOM      5  O   UNL     1       8.350   8.175   5.457  0.00  0.00    -0.153 OA
BRANCH   1  26
ATOM      2  F   UNL     1       9.416   4.035  10.338  0.00  0.00    -0.205 F 
ATOM     26  C   UNL     1       9.395   6.232   6.842  0.00  0.00    +0.106 A 
ATOM     30  C   UNL     1       9.782   4.891   6.821  0.00  0.00    +0.031 A 
ATOM     31  C   UNL     1       9.016   6.830   8.043  0.00  0.00    +0.031 A 
ATOM     32  C   UNL     1       9.789   4.149   8.003  0.00  0.00    +0.040 A 
ATOM     33  C   UNL     1       9.023   6.088   9.225  0.00  0.00    +0.040 A 
ATOM     34  C   UNL     1       9.409   4.747   9.204  0.00  0.00    +0.124 A 
ENDBRANCH   1  26
ENDBRANCH   9   1
TORSDOF 5
ENDMDL
MODEL 5
REMARK VINA RESULT:      -6.9     13.643     17.020
REMARK  Name = 11912250
REMARK  5 active torsions:
REMARK  status: ('A' for Active; 'I' for Inactive)
REMARK    1  A    between atoms: S_1  and  N_9
REMARK    2  A    between atoms: S_1  and  C_26
REMARK    3  A    between atoms: N_10  and  C_24
REMARK    4  A    between atoms: C_12  and  C_18
REMARK    5  A    between atoms: C_13  and  C_23
REMARK                            x       y       z     vdW  Elec       q    Type
REMARK                         _______ _______ _______ _____ _____    ______ ____
ROOT
ATOM      3  O   UNL     1      16.794  -6.034  31.295  0.00  0.00    -0.275 OA
ATOM      8  N   UNL     1      17.081  -6.066  28.987  0.00  0.00    -0.298 N 
ATOM      9  N   UNL     1      18.341  -4.991  26.640  0.00  0.00    -0.162 NA
ATOM     13  C   UNL     1      18.890  -4.672  27.989  0.00  0.00    +0.183 C 
ATOM     16  C   UNL     1      18.493  -5.689  29.056  0.00  0.00    +0.137 C 
ATOM     17  C   UNL     1      16.527  -6.294  27.650  0.00  0.00    +0.125 C 
ATOM     18  C   UNL     1      16.343  -6.220  30.163  0.00  0.00    +0.219 C 
ATOM     19  C   UNL     1      17.591  -6.271  26.562  0.00  0.00    +0.129 C 
ENDROOT
BRANCH  18  12
ATOM     12  C   UNL     1      14.915  -6.647  29.993  0.00  0.00    +0.075 C 
ATOM     14  C   UNL     1      13.994  -5.709  30.777  0.00  0.00    +0.013 C 
ATOM     15  C   UNL     1      14.747  -8.100  30.441  0.00  0.00    +0.013 C 
ATOM     20  C   UNL     1      12.538  -6.161  30.708  0.00  0.00    +0.001 C 
ATOM     21  C   UNL     1      13.289  -8.546  30.374  0.00  0.00    +0.001 C 
ATOM     22  C   UNL     1      12.377  -7.609  31.159  0.00  0.00    +0.000 C 
ENDBRANCH  18  12
BRANCH  13  23
ATOM      6  O   UNL     1      17.464  -2.799  27.616  0.00  0.00    -0.274 OA
ATOM     10  N   UNL     1      18.951  -2.745  29.405  0.00  0.00    -0.303 N 
ATOM     23  C   UNL     1      18.342  -3.315  28.301  0.00  0.00    +0.234 C 
ATOM     35  H   UNL     1      19.646  -3.281  29.917  0.00  0.00    +0.149 HD
BRANCH  10  24
ATOM      7  O   UNL     1      20.930  -0.862  29.501  0.00  0.00    -0.274 OA
ATOM     11  N   UNL     1      19.872   0.247  31.196  0.00  0.00    -0.314 N 
ATOM     24  C   UNL     1      18.619  -1.434  29.900  0.00  0.00    +0.159 C 
ATOM     25  C   UNL     1      17.671  -1.527  31.087  0.00  0.00    +0.033 C 
ATOM     27  C   UNL     1      17.477  -0.146  31.694  0.00  0.00    +0.021 C 
ATOM     28  C   UNL     1      19.921  -0.698  30.192  0.00  0.00    +0.233 C 
ATOM     29  C   UNL     1      18.817   0.371  32.184  0.00  0.00    +0.104 C 
ATOM     36  H   UNL     1      20.719   0.784  31.361  0.00  0.00    +0.149 HD
ENDBRANCH  10  24
ENDBRANCH  13  23
BRANCH   9   1
ATOM      1  S   UNL     1      19.332  -4.615  25.299  0.00  0.00    +0.062 S 
ATOM      4  O   UNL     1      19.505  -5.804  24.491  0.00  0.00    -0.153 OA
ATOM      5  O   UNL     1      20.475  -3.854  25.757  0.00  0.00    -0.153 OA
BRANCH   1  26
ATOM      2  F   UNL     1      15.767  -0.949  22.369  0.00  0.00    -0.205 F 
ATOM     26  C   UNL     1      18.264  -3.518  24.421  0.00  0.00    +0.106 A 
ATOM     30  C   UNL     1      18.613  -2.175  24.273  0.00  0.00    +0.031 A 
ATOM     31  C   UNL     1      17.071  -3.992  23.877  0.00  0.00    +0.031 A 
ATOM     32  C   UNL     1      17.770  -1.307  23.579  0.00  0.00    +0.040 A 
ATOM     33  C   UNL     1      16.227  -3.124  23.183  0.00  0.00    +0.040 A 
ATOM     34  C   UNL     1      16.577  -1.782  23.035  0.00  0.00    +0.124 A 
ENDBRANCH   1  26
ENDBRANCH   9   1
TORSDOF 5
ENDMDL
MODEL 6
REMARK VINA RESULT:      -6.9     28.660     31.384
REMARK  Name = 11912250
REMARK  5 active torsions:
REMARK  status: ('A' for Active; 'I' for Inactive)
REMARK    1  A    between atoms: S_1  and  N_9
REMARK    2  A    between atoms: S_1  and  C_26
REMARK    3  A    between atoms: N_10  and  C_24
REMARK    4  A    between atoms: C_12  and  C_18
REMARK    5  A    between atoms: C_13  and  C_23
REMARK                            x       y       z     vdW  Elec       q    Type
REMARK                         _______ _______ _______ _____ _____    ______ ____
ROOT
ATOM      3  O   UNL     1     -11.519 -10.556  15.934  0.00  0.00    -0.275 OA
ATOM      8  N   UNL     1      -9.222 -10.278  16.180  0.00  0.00    -0.298 N 
ATOM      9  N   UNL     1      -6.783 -10.966  17.531  0.00  0.00    -0.162 NA
ATOM     13  C   UNL     1      -7.986 -11.833  17.685  0.00  0.00    +0.183 C 
ATOM     16  C   UNL     1      -8.991 -11.675  16.547  0.00  0.00    +0.137 C 
ATOM     17  C   UNL     1      -8.042  -9.412  16.115  0.00  0.00    +0.125 C 
ATOM     18  C   UNL     1     -10.516  -9.841  15.885  0.00  0.00    +0.219 C 
ATOM     19  C   UNL     1      -6.739 -10.183  16.269  0.00  0.00    +0.129 C 
ENDROOT
BRANCH  18  12
ATOM     12  C   UNL     1     -10.649  -8.402  15.482  0.00  0.00    +0.075 C 
ATOM     14  C   UNL     1     -10.971  -7.545  16.708  0.00  0.00    +0.013 C 
ATOM     15  C   UNL     1     -11.722  -8.260  14.401  0.00  0.00    +0.013 C 
ATOM     20  C   UNL     1     -11.207  -6.086  16.329  0.00  0.00    +0.001 C 
ATOM     21  C   UNL     1     -11.957  -6.799  14.028  0.00  0.00    +0.001 C 
ATOM     22  C   UNL     1     -12.281  -5.950  15.254  0.00  0.00    +0.000 C 
ENDBRANCH  18  12
BRANCH  13  23
ATOM      6  O   UNL     1      -7.880 -11.199  19.980  0.00  0.00    -0.274 OA
ATOM     10  N   UNL     1      -9.959 -11.335  18.942  0.00  0.00    -0.303 N 
ATOM     23  C   UNL     1      -8.578 -11.416  18.994  0.00  0.00    +0.234 C 
ATOM     35  H   UNL     1     -10.431 -11.506  18.058  0.00  0.00    +0.149 HD
BRANCH  10  24
ATOM      7  O   UNL     1     -10.619 -13.293  20.731  0.00  0.00    -0.274 OA
ATOM     11  N   UNL     1     -12.508 -12.170  21.352  0.00  0.00    -0.314 N 
ATOM     24  C   UNL     1     -10.770 -10.975  20.075  0.00  0.00    +0.159 C 
ATOM     25  C   UNL     1     -11.857  -9.988  19.672  0.00  0.00    +0.033 C 
ATOM     27  C   UNL     1     -12.801  -9.762  20.844  0.00  0.00    +0.021 C 
ATOM     28  C   UNL     1     -11.292 -12.261  20.707  0.00  0.00    +0.233 C 
ATOM     29  C   UNL     1     -13.456 -11.081  21.212  0.00  0.00    +0.104 C 
ATOM     36  H   UNL     1     -12.839 -13.006  21.826  0.00  0.00    +0.149 HD
ENDBRANCH  10  24
ENDBRANCH  13  23
BRANCH   9   1
ATOM      1  S   UNL     1      -5.295 -11.616  18.065  0.00  0.00    +0.062 S 
ATOM      4  O   UNL     1      -5.493 -12.996  18.456  0.00  0.00    -0.153 OA
ATOM      5  O   UNL     1      -4.664 -10.672  18.964  0.00  0.00    -0.153 OA
BRANCH   1  26
ATOM      2  F   UNL     1      -2.276 -11.593  13.003  0.00  0.00    -0.205 F 
ATOM     26  C   UNL     1      -4.391 -11.610  16.549  0.00  0.00    +0.106 A 
ATOM     30  C   UNL     1      -3.373 -10.677  16.348  0.00  0.00    +0.031 A 
ATOM     31  C   UNL     1      -4.695 -12.536  15.552  0.00  0.00    +0.031 A 
ATOM     32  C   UNL     1      -2.658 -10.672  15.150  0.00  0.00    +0.040 A 
ATOM     33  C   UNL     1      -3.980 -12.531  14.354  0.00  0.00    +0.040 A 
ATOM     34  C   UNL     1      -2.962 -11.598  14.153  0.00  0.00    +0.124 A 
ENDBRANCH   1  26
ENDBRANCH   9   1
TORSDOF 5
ENDMDL
MODEL 7
REMARK VINA RESULT:      -6.9     14.111     17.758
REMARK  Name = 11912250
REMARK  5 active torsions:
REMARK  status: ('A' for Active; 'I' for Inactive)
REMARK    1  A    between atoms: S_1  and  N_9
REMARK    2  A    between atoms: S_1  and  C_26
REMARK    3  A    between atoms: N_10  and  C_24
REMARK    4  A    between atoms: C_12  and  C_18
REMARK    5  A    between atoms: C_13  and  C_23
REMARK                            x       y       z     vdW  Elec       q    Type
REMARK                         _______ _______ _______ _____ _____    ______ ____
ROOT
ATOM      3  O   UNL     1      15.875  10.260   3.861  0.00  0.00    -0.275 OA
ATOM      8  N   UNL     1      15.008   8.171   3.316  0.00  0.00    -0.298 N 
ATOM      9  N   UNL     1      12.726   6.483   2.879  0.00  0.00    -0.162 NA
ATOM     13  C   UNL     1      12.557   7.964   2.914  0.00  0.00    +0.183 C 
ATOM     16  C   UNL     1      13.847   8.723   2.617  0.00  0.00    +0.137 C 
ATOM     17  C   UNL     1      15.120   6.711   3.350  0.00  0.00    +0.125 C 
ATOM     18  C   UNL     1      15.953   9.030   3.881  0.00  0.00    +0.219 C 
ATOM     19  C   UNL     1      14.081   6.022   2.478  0.00  0.00    +0.129 C 
ENDROOT
BRANCH  18  12
ATOM     12  C   UNL     1      17.128   8.372   4.543  0.00  0.00    +0.075 C 
ATOM     14  C   UNL     1      17.483   9.114   5.833  0.00  0.00    +0.013 C 
ATOM     15  C   UNL     1      18.314   8.329   3.577  0.00  0.00    +0.013 C 
ATOM     20  C   UNL     1      18.732   8.535   6.491  0.00  0.00    +0.001 C 
ATOM     21  C   UNL     1      19.561   7.752   4.241  0.00  0.00    +0.001 C 
ATOM     22  C   UNL     1      19.911   8.497   5.525  0.00  0.00    +0.000 C 
ENDBRANCH  18  12
BRANCH  13  23
ATOM      6  O   UNL     1      12.157   9.363   4.802  0.00  0.00    -0.274 OA
ATOM     10  N   UNL     1      11.539   7.122   4.908  0.00  0.00    -0.303 N 
ATOM     23  C   UNL     1      12.066   8.247   4.298  0.00  0.00    +0.234 C 
ATOM     35  H   UNL     1      11.485   6.254   4.382  0.00  0.00    +0.149 HD
BRANCH  10  24
ATOM      7  O   UNL     1      13.261   6.579   6.960  0.00  0.00    -0.274 OA
ATOM     11  N   UNL     1      11.553   5.810   8.268  0.00  0.00    -0.314 N 
ATOM     24  C   UNL     1      11.019   7.123   6.251  0.00  0.00    +0.159 C 
ATOM     25  C   UNL     1       9.638   6.486   6.297  0.00  0.00    +0.033 C 
ATOM     27  C   UNL     1       9.190   6.344   7.744  0.00  0.00    +0.021 C 
ATOM     28  C   UNL     1      12.049   6.457   7.155  0.00  0.00    +0.233 C 
ATOM     29  C   UNL     1      10.165   5.441   8.477  0.00  0.00    +0.104 C 
ATOM     36  H   UNL     1      12.233   5.411   8.908  0.00  0.00    +0.149 HD
ENDBRANCH  10  24
ENDBRANCH  13  23
BRANCH   9   1
ATOM      1  S   UNL     1      11.411   5.574   2.271  0.00  0.00    +0.062 S 
ATOM      4  O   UNL     1      10.330   6.475   1.930  0.00  0.00    -0.153 OA
ATOM      5  O   UNL     1      11.186   4.436   3.137  0.00  0.00    -0.153 OA
BRANCH   1  26
ATOM      2  F   UNL     1      13.758   3.591  -2.758  0.00  0.00    -0.205 F 
ATOM     26  C   UNL     1      12.114   4.981   0.765  0.00  0.00    +0.106 A 
ATOM     30  C   UNL     1      12.605   3.677   0.691  0.00  0.00    +0.031 A 
ATOM     31  C   UNL     1      12.178   5.815  -0.351  0.00  0.00    +0.031 A 
ATOM     32  C   UNL     1      13.161   3.208  -0.500  0.00  0.00    +0.040 A 
ATOM     33  C   UNL     1      12.733   5.346  -1.542  0.00  0.00    +0.040 A 
ATOM     34  C   UNL     1      13.225   4.042  -1.615  0.00  0.00    +0.124 A 
ENDBRANCH   1  26
ENDBRANCH   9   1
TORSDOF 5
ENDMDL
MODEL 8
REMARK VINA RESULT:      -6.8     23.362     26.683
REMARK  Name = 11912250
REMARK  5 active torsions:
REMARK  status: ('A' for Active; 'I' for Inactive)
REMARK    1  A    between atoms: S_1  and  N_9
REMARK    2  A    between atoms: S_1  and  C_26
REMARK    3  A    between atoms: N_10  and  C_24
REMARK    4  A    between atoms: C_12  and  C_18
REMARK    5  A    between atoms: C_13  and  C_23
REMARK                            x       y       z     vdW  Elec       q    Type
REMARK                         _______ _______ _______ _____ _____    ______ ____
ROOT
ATOM      3  O   UNL     1     -10.219  14.780  15.458  0.00  0.00    -0.275 OA
ATOM      8  N   UNL     1     -10.541  12.489  15.697  0.00  0.00    -0.298 N 
ATOM      9  N   UNL     1     -12.281  10.293  16.332  0.00  0.00    -0.162 NA
ATOM     13  C   UNL     1     -12.857  11.639  16.052  0.00  0.00    +0.183 C 
ATOM     16  C   UNL     1     -11.929  12.533  15.236  0.00  0.00    +0.137 C 
ATOM     17  C   UNL     1     -10.009  11.170  16.051  0.00  0.00    +0.125 C 
ATOM     18  C   UNL     1      -9.788  13.663  15.753  0.00  0.00    +0.219 C 
ATOM     19  C   UNL     1     -10.962  10.038  15.696  0.00  0.00    +0.129 C 
ENDROOT
BRANCH  18  12
ATOM     12  C   UNL     1      -8.365  13.512  16.202  0.00  0.00    +0.075 C 
ATOM     14  C   UNL     1      -8.063  14.508  17.324  0.00  0.00    +0.013 C 
ATOM     15  C   UNL     1      -7.420  13.704  15.014  0.00  0.00    +0.013 C 
ATOM     20  C   UNL     1      -6.598  14.454  17.748  0.00  0.00    +0.001 C 
ATOM     21  C   UNL     1      -5.956  13.651  15.444  0.00  0.00    +0.001 C 
ATOM     22  C   UNL     1      -5.661  14.648  16.560  0.00  0.00    +0.000 C 
ENDBRANCH  18  12
BRANCH  13  23
ATOM      6  O   UNL     1     -13.547  13.359  17.552  0.00  0.00    -0.274 OA
ATOM     10  N   UNL     1     -12.795  11.337  18.425  0.00  0.00    -0.303 N 
ATOM     23  C   UNL     1     -13.116  12.219  17.407  0.00  0.00    +0.234 C 
ATOM     35  H   UNL     1     -12.475  10.402  18.186  0.00  0.00    +0.149 HD
BRANCH  10  24
ATOM      7  O   UNL     1     -10.856  10.472  20.146  0.00  0.00    -0.274 OA
ATOM     11  N   UNL     1     -12.326  10.473  21.895  0.00  0.00    -0.314 N 
ATOM     24  C   UNL     1     -12.931  11.661  19.821  0.00  0.00    +0.159 C 
ATOM     25  C   UNL     1     -14.381  11.537  20.266  0.00  0.00    +0.033 C 
ATOM     27  C   UNL     1     -14.468  11.714  21.775  0.00  0.00    +0.021 C 
ATOM     28  C   UNL     1     -11.957  10.788  20.604  0.00  0.00    +0.233 C 
ATOM     29  C   UNL     1     -13.659  10.620  22.448  0.00  0.00    +0.104 C 
ATOM     36  H   UNL     1     -11.659   9.940  22.445  0.00  0.00    +0.149 HD
ENDBRANCH  10  24
ENDBRANCH  13  23
BRANCH   9   1
ATOM      1  S   UNL     1     -13.373   8.978  16.351  0.00  0.00    +0.062 S 
ATOM      4  O   UNL     1     -13.051   8.078  15.264  0.00  0.00    -0.153 OA
ATOM      5  O   UNL     1     -14.718   9.487  16.522  0.00  0.00    -0.153 OA
BRANCH   1  26
ATOM      2  F   UNL     1     -11.763   6.367  21.383  0.00  0.00    -0.205 F 
ATOM     26  C   UNL     1     -12.892   8.196  17.858  0.00  0.00    +0.106 A 
ATOM     30  C   UNL     1     -11.591   7.715  18.009  0.00  0.00    +0.031 A 
ATOM     31  C   UNL     1     -13.811   8.060  18.898  0.00  0.00    +0.031 A 
ATOM     32  C   UNL     1     -11.209   7.097  19.200  0.00  0.00    +0.040 A 
ATOM     33  C   UNL     1     -13.429   7.441  20.089  0.00  0.00    +0.040 A 
ATOM     34  C   UNL     1     -12.129   6.960  20.239  0.00  0.00    +0.124 A 
ENDBRANCH   1  26
ENDBRANCH   9   1
TORSDOF 5
ENDMDL
MODEL 9
REMARK VINA RESULT:      -6.7     14.531     19.024
REMARK  Name = 11912250
REMARK  5 active torsions:
REMARK  status: ('A' for Active; 'I' for Inactive)
REMARK    1  A    between atoms: S_1  and  N_9
REMARK    2  A    between atoms: S_1  and  C_26
REMARK    3  A    between atoms: N_10  and  C_24
REMARK    4  A    between atoms: C_12  and  C_18
REMARK    5  A    between atoms: C_13  and  C_23
REMARK                            x       y       z     vdW  Elec       q    Type
REMARK                         _______ _______ _______ _____ _____    ______ ____
ROOT
ATOM      3  O   UNL     1      13.225   3.456   1.373  0.00  0.00    -0.275 OA
ATOM      8  N   UNL     1      13.927   5.625   0.911  0.00  0.00    -0.298 N 
ATOM      9  N   UNL     1      14.532   8.275   1.840  0.00  0.00    -0.162 NA
ATOM     13  C   UNL     1      14.404   7.157   2.819  0.00  0.00    +0.183 C 
ATOM     16  C   UNL     1      14.617   5.782   2.192  0.00  0.00    +0.137 C 
ATOM     17  C   UNL     1      13.986   6.763  -0.010  0.00  0.00    +0.125 C 
ATOM     18  C   UNL     1      13.283   4.423   0.610  0.00  0.00    +0.219 C 
ATOM     19  C   UNL     1      14.928   7.858   0.470  0.00  0.00    +0.129 C 
ENDROOT
BRANCH  18  12
ATOM     12  C   UNL     1      12.637   4.342  -0.741  0.00  0.00    +0.075 C 
ATOM     14  C   UNL     1      11.116   4.440  -0.599  0.00  0.00    +0.013 C 
ATOM     15  C   UNL     1      13.053   3.047  -1.442  0.00  0.00    +0.013 C 
ATOM     20  C   UNL     1      10.413   4.268  -1.942  0.00  0.00    +0.001 C 
ATOM     21  C   UNL     1      12.344   2.879  -2.783  0.00  0.00    +0.001 C 
ATOM     22  C   UNL     1      10.829   2.974  -2.634  0.00  0.00    +0.000 C 
ENDBRANCH  18  12
BRANCH  13  23
ATOM      6  O   UNL     1      12.177   8.009   2.816  0.00  0.00    -0.274 OA
ATOM     10  N   UNL     1      12.830   6.563   4.519  0.00  0.00    -0.303 N 
ATOM     23  C   UNL     1      13.017   7.297   3.361  0.00  0.00    +0.234 C 
ATOM     35  H   UNL     1      13.589   5.981   4.863  0.00  0.00    +0.149 HD
BRANCH  10  24
ATOM      7  O   UNL     1      12.907   7.067   7.204  0.00  0.00    -0.274 OA
ATOM     11  N   UNL     1      10.993   5.865   7.544  0.00  0.00    -0.314 N 
ATOM     24  C   UNL     1      11.590   6.545   5.250  0.00  0.00    +0.159 C 
ATOM     25  C   UNL     1      10.692   5.415   4.766  0.00  0.00    +0.033 C 
ATOM     27  C   UNL     1       9.471   5.311   5.668  0.00  0.00    +0.021 C 
ATOM     28  C   UNL     1      11.921   6.492   6.737  0.00  0.00    +0.233 C 
ATOM     29  C   UNL     1       9.926   4.998   7.081  0.00  0.00    +0.104 C 
ATOM     36  H   UNL     1      11.175   5.874   8.543  0.00  0.00    +0.149 HD
ENDBRANCH  10  24
ENDBRANCH  13  23
BRANCH   9   1
ATOM      1  S   UNL     1      15.230   9.724   2.417  0.00  0.00    +0.062 S 
ATOM      4  O   UNL     1      14.384  10.279   3.453  0.00  0.00    -0.153 OA
ATOM      5  O   UNL     1      15.647  10.528   1.288  0.00  0.00    -0.153 OA
BRANCH   1  26
ATOM      2  F   UNL     1      20.073   7.581   5.004  0.00  0.00    -0.205 F 
ATOM     26  C   UNL     1      16.680   9.083   3.193  0.00  0.00    +0.106 A 
ATOM     30  C   UNL     1      17.751   8.643   2.413  0.00  0.00    +0.031 A 
ATOM     31  C   UNL     1      16.756   9.015   4.583  0.00  0.00    +0.031 A 
ATOM     32  C   UNL     1      18.897   8.136   3.026  0.00  0.00    +0.040 A 
ATOM     33  C   UNL     1      17.902   8.508   5.196  0.00  0.00    +0.040 A 
ATOM     34  C   UNL     1      18.973   8.068   4.416  0.00  0.00    +0.124 A 
ENDBRANCH   1  26
ENDBRANCH   9   1
TORSDOF 5
ENDMDL
MODEL 10
REMARK VINA RESULT:      -6.7     15.658     18.448
REMARK  Name = 11912250
REMARK  5 active torsions:
REMARK  status: ('A' for Active; 'I' for Inactive)
REMARK    1  A    between atoms: S_1  and  N_9
REMARK    2  A    between atoms: S_1  and  C_26
REMARK    3  A    between atoms: N_10  and  C_24
REMARK    4  A    between atoms: C_12  and  C_18
REMARK    5  A    between atoms: C_13  and  C_23
REMARK                            x       y       z     vdW  Elec       q    Type
REMARK                         _______ _______ _______ _____ _____    ______ ____
ROOT
ATOM      3  O   UNL     1      18.513  -5.657  23.935  0.00  0.00    -0.275 OA
ATOM      8  N   UNL     1      17.979  -5.342  26.177  0.00  0.00    -0.298 N 
ATOM      9  N   UNL     1      17.110  -6.438  28.686  0.00  0.00    -0.162 NA
ATOM     13  C   UNL     1      17.585  -7.347  27.604  0.00  0.00    +0.183 C 
ATOM     16  C   UNL     1      18.485  -6.652  26.587  0.00  0.00    +0.137 C 
ATOM     17  C   UNL     1      17.434  -4.488  27.236  0.00  0.00    +0.125 C 
ATOM     18  C   UNL     1      18.058  -4.952  24.839  0.00  0.00    +0.219 C 
ATOM     19  C   UNL     1      17.664  -5.060  28.628  0.00  0.00    +0.129 C 
ENDROOT
BRANCH  18  12
ATOM     12  C   UNL     1      17.549  -3.577  24.521  0.00  0.00    +0.075 C 
ATOM     14  C   UNL     1      16.582  -3.639  23.336  0.00  0.00    +0.013 C 
ATOM     15  C   UNL     1      18.723  -2.638  24.239  0.00  0.00    +0.013 C 
ATOM     20  C   UNL     1      16.112  -2.249  22.920  0.00  0.00    +0.001 C 
ATOM     21  C   UNL     1      18.246  -1.250  23.820  0.00  0.00    +0.001 C 
ATOM     22  C   UNL     1      17.287  -1.318  22.636  0.00  0.00    +0.000 C 
ENDBRANCH  18  12
BRANCH  13  23
ATOM      6  O   UNL     1      15.411  -7.093  26.659  0.00  0.00    -0.274 OA
ATOM     10  N   UNL     1      16.340  -9.222  26.793  0.00  0.00    -0.303 N 
ATOM     23  C   UNL     1      16.329  -7.849  26.964  0.00  0.00    +0.234 C 
ATOM     35  H   UNL     1      17.172  -9.746  27.055  0.00  0.00    +0.149 HD
BRANCH  10  24
ATOM      7  O   UNL     1      14.780 -10.724  28.461  0.00  0.00    -0.274 OA
ATOM     11  N   UNL     1      14.201 -12.126  26.752  0.00  0.00    -0.314 N 
ATOM     24  C   UNL     1      15.242  -9.955  26.220  0.00  0.00    +0.159 C 
ATOM     25  C   UNL     1      15.635 -10.561  24.880  0.00  0.00    +0.033 C 
ATOM     27  C   UNL     1      14.520 -11.468  24.384  0.00  0.00    +0.021 C 
ATOM     28  C   UNL     1      14.763 -10.969  27.252  0.00  0.00    +0.233 C 
ATOM     29  C   UNL     1      14.315 -12.592  25.383  0.00  0.00    +0.104 C 
ATOM     36  H   UNL     1      13.827 -12.784  27.429  0.00  0.00    +0.149 HD
ENDBRANCH  10  24
ENDBRANCH  13  23
BRANCH   9   1
ATOM      1  S   UNL     1      16.948  -7.119  30.245  0.00  0.00    +0.062 S 
ATOM      4  O   UNL     1      17.914  -6.506  31.133  0.00  0.00    -0.153 OA
ATOM      5  O   UNL     1      16.858  -8.558  30.123  0.00  0.00    -0.153 OA
BRANCH   1  26
ATOM      2  F   UNL     1      11.614  -5.086  31.714  0.00  0.00    -0.205 F 
ATOM     26  C   UNL     1      15.351  -6.510  30.686  0.00  0.00    +0.106 A 
ATOM     30  C   UNL     1      14.208  -7.086  30.131  0.00  0.00    +0.031 A 
ATOM     31  C   UNL     1      15.232  -5.453  31.588  0.00  0.00    +0.031 A 
ATOM     32  C   UNL     1      12.945  -6.605  30.479  0.00  0.00    +0.040 A 
ATOM     33  C   UNL     1      13.969  -4.972  31.935  0.00  0.00    +0.040 A 
ATOM     34  C   UNL     1      12.826  -5.548  31.380  0.00  0.00    +0.124 A 
ENDBRANCH   1  26
ENDBRANCH   9   1
TORSDOF 5
ENDMDL
