MODEL 1
REMARK VINA RESULT:      -6.0      0.000      0.000
REMARK  Name = 11943210
REMARK  9 active torsions:
REMARK  status: ('A' for Active; 'I' for Inactive)
REMARK    1  A    between atoms: O_1  and  C_14
REMARK    2  A    between atoms: O_1  and  C_17
REMARK    3  A    between atoms: O_3  and  C_21
REMARK    4  A    between atoms: O_3  and  C_24
REMARK    5  A    between atoms: O_4  and  C_22
REMARK    6  A    between atoms: O_4  and  C_25
REMARK    7  A    between atoms: N_6  and  C_18
REMARK    8  A    between atoms: C_8  and  C_14
REMARK    9  A    between atoms: C_10  and  C_15
REMARK                            x       y       z     vdW  Elec       q    Type
REMARK                         _______ _______ _______ _____ _____    ______ ____
ROOT
ATOM      2  O   UNL     1      11.718   5.933   3.820  0.00  0.00    -0.226 OA
ATOM      6  N   UNL     1      10.219   4.453   4.840  0.00  0.00    -0.251 N 
ATOM     17  C   UNL     1      11.111   4.871   3.871  0.00  0.00    +0.405 C 
ATOM     26  H   UNL     1       9.812   3.531   4.708  0.00  0.00    +0.158 HD
ENDROOT
BRANCH   6  18
ATOM     18  C   UNL     1       9.798   5.152   5.994  0.00  0.00    +0.043 A 
ATOM     19  C   UNL     1       9.098   6.340   5.851  0.00  0.00    +0.069 A 
ATOM     20  C   UNL     1      10.092   4.636   7.246  0.00  0.00    +0.069 A 
ATOM     21  C   UNL     1       9.677   5.326   8.385  0.00  0.00    +0.125 A 
ATOM     22  C   UNL     1       8.682   7.029   6.989  0.00  0.00    +0.125 A 
ATOM     23  C   UNL     1       8.971   6.523   8.257  0.00  0.00    +0.091 A 
BRANCH  21   3
ATOM      3  O   UNL     1       9.959   4.832   9.622  0.00  0.00    -0.495 OA
ATOM     24  C   UNL     1       8.854   4.589  10.491  0.00  0.00    +0.277 C 
ENDBRANCH  21   3
BRANCH  22   4
ATOM      4  O   UNL     1       7.993   8.197   6.865  0.00  0.00    -0.495 OA
ATOM     25  C   UNL     1       8.316   9.027   5.750  0.00  0.00    +0.277 C 
ENDBRANCH  22   4
ENDBRANCH   6  18
BRANCH  17   1
ATOM      1  O   UNL     1      11.241   3.887   2.916  0.00  0.00    -0.449 OA
BRANCH   1  14
ATOM     14  C   UNL     1      12.326   4.014   2.017  0.00  0.00    +0.252 C 
BRANCH  14   8
ATOM      5  N   UNL     1      12.404   5.333  -0.114  0.00  0.00    -0.295 NA
ATOM      7  C   UNL     1       9.816   5.464  -0.365  0.00  0.00    +0.008 C 
ATOM      8  C   UNL     1      11.765   4.198   0.606  0.00  0.00    +0.095 C 
ATOM      9  C   UNL     1      10.226   4.345   0.615  0.00  0.00    +0.027 C 
ATOM     10  C   UNL     1      10.392   6.807   0.134  0.00  0.00    +0.081 C 
ATOM     11  C   UNL     1      10.492   5.162  -1.716  0.00  0.00    +0.020 C 
ATOM     12  C   UNL     1      11.900   6.625   0.413  0.00  0.00    +0.101 C 
ATOM     13  C   UNL     1      12.021   5.237  -1.545  0.00  0.00    +0.085 C 
BRANCH  10  15
ATOM     15  C   UNL     1       9.679   7.307   1.321  0.00  0.00    -0.101 C 
ATOM     16  C   UNL     1       9.098   7.713   2.289  0.00  0.00    +0.004 C 
ENDBRANCH  10  15
ENDBRANCH  14   8
ENDBRANCH   1  14
ENDBRANCH  17   1
TORSDOF 7
ENDMDL
MODEL 2
REMARK VINA RESULT:      -5.8     17.875     20.627
REMARK  Name = 11943210
REMARK  9 active torsions:
REMARK  status: ('A' for Active; 'I' for Inactive)
REMARK    1  A    between atoms: O_1  and  C_14
REMARK    2  A    between atoms: O_1  and  C_17
REMARK    3  A    between atoms: O_3  and  C_21
REMARK    4  A    between atoms: O_3  and  C_24
REMARK    5  A    between atoms: O_4  and  C_22
REMARK    6  A    between atoms: O_4  and  C_25
REMARK    7  A    between atoms: N_6  and  C_18
REMARK    8  A    between atoms: C_8  and  C_14
REMARK    9  A    between atoms: C_10  and  C_15
REMARK                            x       y       z     vdW  Elec       q    Type
REMARK                         _______ _______ _______ _____ _____    ______ ____
ROOT
ATOM      2  O   UNL     1      15.577  11.616  21.790  0.00  0.00    -0.226 OA
ATOM      6  N   UNL     1      14.751   9.870  23.112  0.00  0.00    -0.251 N 
ATOM     17  C   UNL     1      15.187  11.156  22.856  0.00  0.00    +0.405 C 
ATOM     26  H   UNL     1      14.465   9.675  24.068  0.00  0.00    +0.158 HD
ENDROOT
BRANCH   6  18
ATOM     18  C   UNL     1      14.654   8.788  22.208  0.00  0.00    +0.043 A 
ATOM     19  C   UNL     1      13.402   8.337  21.820  0.00  0.00    +0.069 A 
ATOM     20  C   UNL     1      15.812   8.200  21.725  0.00  0.00    +0.069 A 
ATOM     21  C   UNL     1      15.717   7.133  20.833  0.00  0.00    +0.125 A 
ATOM     22  C   UNL     1      13.306   7.270  20.928  0.00  0.00    +0.125 A 
ATOM     23  C   UNL     1      14.464   6.667  20.433  0.00  0.00    +0.091 A 
BRANCH  21   3
ATOM      3  O   UNL     1      16.846   6.544  20.350  0.00  0.00    -0.495 OA
ATOM     24  C   UNL     1      18.063   6.805  21.048  0.00  0.00    +0.277 C 
ENDBRANCH  21   3
BRANCH  22   4
ATOM      4  O   UNL     1      12.084   6.815  20.537  0.00  0.00    -0.495 OA
ATOM     25  C   UNL     1      11.313   6.107  21.507  0.00  0.00    +0.277 C 
ENDBRANCH  22   4
ENDBRANCH   6  18
BRANCH  17   1
ATOM      1  O   UNL     1      15.123  11.898  24.014  0.00  0.00    -0.449 OA
BRANCH   1  14
ATOM     14  C   UNL     1      14.267  11.416  25.032  0.00  0.00    +0.252 C 
BRANCH  14   8
ATOM      5  N   UNL     1      11.774  11.613  25.210  0.00  0.00    -0.295 NA
ATOM      7  C   UNL     1      11.595  13.524  23.452  0.00  0.00    +0.008 C 
ATOM      8  C   UNL     1      13.061  12.354  25.132  0.00  0.00    +0.095 C 
ATOM      9  C   UNL     1      13.038  13.383  23.979  0.00  0.00    +0.027 C 
ATOM     10  C   UNL     1      11.144  12.176  22.849  0.00  0.00    +0.081 C 
ATOM     11  C   UNL     1      10.688  13.798  24.666  0.00  0.00    +0.020 C 
ATOM     12  C   UNL     1      11.418  11.059  23.880  0.00  0.00    +0.101 C 
ATOM     13  C   UNL     1      10.717  12.578  25.605  0.00  0.00    +0.085 C 
BRANCH  10  15
ATOM     15  C   UNL     1      11.803  11.898  21.563  0.00  0.00    -0.101 C 
ATOM     16  C   UNL     1      12.341  11.671  20.514  0.00  0.00    +0.004 C 
ENDBRANCH  10  15
ENDBRANCH  14   8
ENDBRANCH   1  14
ENDBRANCH  17   1
TORSDOF 7
ENDMDL
MODEL 3
REMARK VINA RESULT:      -5.8      2.340      7.301
REMARK  Name = 11943210
REMARK  9 active torsions:
REMARK  status: ('A' for Active; 'I' for Inactive)
REMARK    1  A    between atoms: O_1  and  C_14
REMARK    2  A    between atoms: O_1  and  C_17
REMARK    3  A    between atoms: O_3  and  C_21
REMARK    4  A    between atoms: O_3  and  C_24
REMARK    5  A    between atoms: O_4  and  C_22
REMARK    6  A    between atoms: O_4  and  C_25
REMARK    7  A    between atoms: N_6  and  C_18
REMARK    8  A    between atoms: C_8  and  C_14
REMARK    9  A    between atoms: C_10  and  C_15
REMARK                            x       y       z     vdW  Elec       q    Type
REMARK                         _______ _______ _______ _____ _____    ______ ____
ROOT
ATOM      2  O   UNL     1      12.868   8.224   3.049  0.00  0.00    -0.226 OA
ATOM      6  N   UNL     1      12.011   6.134   3.662  0.00  0.00    -0.251 N 
ATOM     17  C   UNL     1      12.435   7.431   3.876  0.00  0.00    +0.405 C 
ATOM     26  H   UNL     1      11.682   5.629   4.481  0.00  0.00    +0.158 HD
ENDROOT
BRANCH   6  18
ATOM     18  C   UNL     1      11.980   5.419   2.444  0.00  0.00    +0.043 A 
ATOM     19  C   UNL     1      13.130   4.786   1.999  0.00  0.00    +0.069 A 
ATOM     20  C   UNL     1      10.801   5.362   1.718  0.00  0.00    +0.069 A 
ATOM     21  C   UNL     1      10.770   4.657   0.516  0.00  0.00    +0.125 A 
ATOM     22  C   UNL     1      13.100   4.079   0.797  0.00  0.00    +0.125 A 
ATOM     23  C   UNL     1      11.920   4.014   0.055  0.00  0.00    +0.091 A 
BRANCH  21   3
ATOM      3  O   UNL     1       9.620   4.593  -0.209  0.00  0.00    -0.495 OA
ATOM     24  C   UNL     1       9.534   5.425  -1.365  0.00  0.00    +0.277 C 
ENDBRANCH  21   3
BRANCH  22   4
ATOM      4  O   UNL     1      14.221   3.452   0.347  0.00  0.00    -0.495 OA
ATOM     25  C   UNL     1      15.463   4.133   0.523  0.00  0.00    +0.277 C 
ENDBRANCH  22   4
ENDBRANCH   6  18
BRANCH  17   1
ATOM      1  O   UNL     1      12.300   7.742   5.212  0.00  0.00    -0.449 OA
BRANCH   1  14
ATOM     14  C   UNL     1      12.449   6.676   6.129  0.00  0.00    +0.252 C 
BRANCH  14   8
ATOM      5  N   UNL     1      10.488   5.522   7.182  0.00  0.00    -0.295 NA
ATOM      7  C   UNL     1       8.948   7.619   7.095  0.00  0.00    +0.008 C 
ATOM      8  C   UNL     1      11.314   6.758   7.153  0.00  0.00    +0.095 C 
ATOM      9  C   UNL     1      10.432   8.008   6.932  0.00  0.00    +0.027 C 
ATOM     10  C   UNL     1       8.567   6.608   5.992  0.00  0.00    +0.081 C 
ATOM     11  C   UNL     1       8.813   6.884   8.442  0.00  0.00    +0.020 C 
ATOM     12  C   UNL     1       9.605   5.465   5.990  0.00  0.00    +0.101 C 
ATOM     13  C   UNL     1       9.627   5.579   8.390  0.00  0.00    +0.085 C 
BRANCH  10  15
ATOM     15  C   UNL     1       8.464   7.247   4.670  0.00  0.00    -0.101 C 
ATOM     16  C   UNL     1       8.381   7.768   3.591  0.00  0.00    +0.004 C 
ENDBRANCH  10  15
ENDBRANCH  14   8
ENDBRANCH   1  14
ENDBRANCH  17   1
TORSDOF 7
ENDMDL
MODEL 4
REMARK VINA RESULT:      -5.7     16.862     19.344
REMARK  Name = 11943210
REMARK  9 active torsions:
REMARK  status: ('A' for Active; 'I' for Inactive)
REMARK    1  A    between atoms: O_1  and  C_14
REMARK    2  A    between atoms: O_1  and  C_17
REMARK    3  A    between atoms: O_3  and  C_21
REMARK    4  A    between atoms: O_3  and  C_24
REMARK    5  A    between atoms: O_4  and  C_22
REMARK    6  A    between atoms: O_4  and  C_25
REMARK    7  A    between atoms: N_6  and  C_18
REMARK    8  A    between atoms: C_8  and  C_14
REMARK    9  A    between atoms: C_10  and  C_15
REMARK                            x       y       z     vdW  Elec       q    Type
REMARK                         _______ _______ _______ _____ _____    ______ ____
ROOT
ATOM      2  O   UNL     1      16.585   6.457  19.099  0.00  0.00    -0.226 OA
ATOM      6  N   UNL     1      17.182   6.876  21.324  0.00  0.00    -0.251 N 
ATOM     17  C   UNL     1      16.330   6.519  20.296  0.00  0.00    +0.405 C 
ATOM     26  H   UNL     1      16.783   6.869  22.259  0.00  0.00    +0.158 HD
ENDROOT
BRANCH   6  18
ATOM     18  C   UNL     1      18.540   7.254  21.236  0.00  0.00    +0.043 A 
ATOM     19  C   UNL     1      19.482   6.316  20.844  0.00  0.00    +0.069 A 
ATOM     20  C   UNL     1      18.905   8.555  21.543  0.00  0.00    +0.069 A 
ATOM     21  C   UNL     1      20.246   8.929  21.456  0.00  0.00    +0.125 A 
ATOM     22  C   UNL     1      20.823   6.689  20.757  0.00  0.00    +0.125 A 
ATOM     23  C   UNL     1      21.206   7.995  21.063  0.00  0.00    +0.091 A 
BRANCH  21   3
ATOM      3  O   UNL     1      20.620  10.203  21.756  0.00  0.00    -0.495 OA
ATOM     24  C   UNL     1      19.758  11.252  21.318  0.00  0.00    +0.277 C 
ENDBRANCH  21   3
BRANCH  22   4
ATOM      4  O   UNL     1      21.760   5.779  20.372  0.00  0.00    -0.495 OA
ATOM     25  C   UNL     1      21.595   4.440  20.837  0.00  0.00    +0.277 C 
ENDBRANCH  22   4
ENDBRANCH   6  18
BRANCH  17   1
ATOM      1  O   UNL     1      15.089   6.223  20.813  0.00  0.00    -0.449 OA
BRANCH   1  14
ATOM     14  C   UNL     1      13.971   6.739  20.117  0.00  0.00    +0.252 C 
BRANCH  14   8
ATOM      5  N   UNL     1      11.559   7.286  20.528  0.00  0.00    -0.295 NA
ATOM      7  C   UNL     1      12.071   9.323  22.065  0.00  0.00    +0.008 C 
ATOM      8  C   UNL     1      12.905   7.133  21.142  0.00  0.00    +0.095 C 
ATOM      9  C   UNL     1      13.304   8.405  21.924  0.00  0.00    +0.027 C 
ATOM     10  C   UNL     1      11.626   9.788  20.662  0.00  0.00    +0.081 C 
ATOM     11  C   UNL     1      10.925   8.468  22.638  0.00  0.00    +0.020 C 
ATOM     12  C   UNL     1      11.488   8.549  19.751  0.00  0.00    +0.101 C 
ATOM     13  C   UNL     1      10.564   7.364  21.627  0.00  0.00    +0.085 C 
BRANCH  10  15
ATOM     15  C   UNL     1      12.552  10.779  20.088  0.00  0.00    -0.101 C 
ATOM     16  C   UNL     1      13.306  11.587  19.621  0.00  0.00    +0.004 C 
ENDBRANCH  10  15
ENDBRANCH  14   8
ENDBRANCH   1  14
ENDBRANCH  17   1
TORSDOF 7
ENDMDL
MODEL 5
REMARK VINA RESULT:      -5.7     22.040     24.503
REMARK  Name = 11943210
REMARK  9 active torsions:
REMARK  status: ('A' for Active; 'I' for Inactive)
REMARK    1  A    between atoms: O_1  and  C_14
REMARK    2  A    between atoms: O_1  and  C_17
REMARK    3  A    between atoms: O_3  and  C_21
REMARK    4  A    between atoms: O_3  and  C_24
REMARK    5  A    between atoms: O_4  and  C_22
REMARK    6  A    between atoms: O_4  and  C_25
REMARK    7  A    between atoms: N_6  and  C_18
REMARK    8  A    between atoms: C_8  and  C_14
REMARK    9  A    between atoms: C_10  and  C_15
REMARK                            x       y       z     vdW  Elec       q    Type
REMARK                         _______ _______ _______ _____ _____    ______ ____
ROOT
ATOM      2  O   UNL     1      -4.026 -12.471  14.143  0.00  0.00    -0.226 OA
ATOM      6  N   UNL     1      -3.807 -10.325  15.053  0.00  0.00    -0.251 N 
ATOM     17  C   UNL     1      -3.543 -11.345  14.158  0.00  0.00    +0.405 C 
ATOM     26  H   UNL     1      -3.303  -9.455  14.902  0.00  0.00    +0.158 HD
ENDROOT
BRANCH   6  18
ATOM     18  C   UNL     1      -4.689 -10.343  16.156  0.00  0.00    +0.043 A 
ATOM     19  C   UNL     1      -4.297 -10.968  17.330  0.00  0.00    +0.069 A 
ATOM     20  C   UNL     1      -5.929  -9.733  16.045  0.00  0.00    +0.069 A 
ATOM     21  C   UNL     1      -6.800  -9.750  17.134  0.00  0.00    +0.125 A 
ATOM     22  C   UNL     1      -5.168 -10.985  18.419  0.00  0.00    +0.125 A 
ATOM     23  C   UNL     1      -6.419 -10.376  18.322  0.00  0.00    +0.091 A 
BRANCH  21   3
ATOM      3  O   UNL     1      -8.022  -9.157  17.040  0.00  0.00    -0.495 OA
ATOM     24  C   UNL     1      -8.748  -9.356  15.828  0.00  0.00    +0.277 C 
ENDBRANCH  21   3
BRANCH  22   4
ATOM      4  O   UNL     1      -4.797 -11.595  19.578  0.00  0.00    -0.495 OA
ATOM     25  C   UNL     1      -3.584 -12.346  19.559  0.00  0.00    +0.277 C 
ENDBRANCH  22   4
ENDBRANCH   6  18
BRANCH  17   1
ATOM      1  O   UNL     1      -2.620 -10.913  13.233  0.00  0.00    -0.449 OA
BRANCH   1  14
ATOM     14  C   UNL     1      -2.940 -11.121  11.871  0.00  0.00    +0.252 C 
BRANCH  14   8
ATOM      5  N   UNL     1      -5.183 -10.100  11.408  0.00  0.00    -0.295 NA
ATOM      7  C   UNL     1      -4.486  -9.120   9.099  0.00  0.00    +0.008 C 
ATOM      8  C   UNL     1      -3.709  -9.899  11.364  0.00  0.00    +0.095 C 
ATOM      9  C   UNL     1      -3.250  -9.477   9.950  0.00  0.00    +0.027 C 
ATOM     10  C   UNL     1      -5.360 -10.380   8.923  0.00  0.00    +0.081 C 
ATOM     11  C   UNL     1      -5.321  -8.106   9.906  0.00  0.00    +0.020 C 
ATOM     12  C   UNL     1      -5.611 -11.006  10.313  0.00  0.00    +0.101 C 
ATOM     13  C   UNL     1      -5.828  -8.780  11.194  0.00  0.00    +0.085 C 
BRANCH  10  15
ATOM     15  C   UNL     1      -4.751 -11.349   7.997  0.00  0.00    -0.101 C 
ATOM     16  C   UNL     1      -4.253 -12.139   7.242  0.00  0.00    +0.004 C 
ENDBRANCH  10  15
ENDBRANCH  14   8
ENDBRANCH   1  14
ENDBRANCH  17   1
TORSDOF 7
ENDMDL
MODEL 6
REMARK VINA RESULT:      -5.7     16.853     19.322
REMARK  Name = 11943210
REMARK  9 active torsions:
REMARK  status: ('A' for Active; 'I' for Inactive)
REMARK    1  A    between atoms: O_1  and  C_14
REMARK    2  A    between atoms: O_1  and  C_17
REMARK    3  A    between atoms: O_3  and  C_21
REMARK    4  A    between atoms: O_3  and  C_24
REMARK    5  A    between atoms: O_4  and  C_22
REMARK    6  A    between atoms: O_4  and  C_25
REMARK    7  A    between atoms: N_6  and  C_18
REMARK    8  A    between atoms: C_8  and  C_14
REMARK    9  A    between atoms: C_10  and  C_15
REMARK                            x       y       z     vdW  Elec       q    Type
REMARK                         _______ _______ _______ _____ _____    ______ ____
ROOT
ATOM      2  O   UNL     1      16.621   6.177  19.121  0.00  0.00    -0.226 OA
ATOM      6  N   UNL     1      17.258   6.806  21.284  0.00  0.00    -0.251 N 
ATOM     17  C   UNL     1      16.380   6.385  20.303  0.00  0.00    +0.405 C 
ATOM     26  H   UNL     1      16.867   6.924  22.215  0.00  0.00    +0.158 HD
ENDROOT
BRANCH   6  18
ATOM     18  C   UNL     1      18.635   7.096  21.152  0.00  0.00    +0.043 A 
ATOM     19  C   UNL     1      19.086   8.380  21.416  0.00  0.00    +0.069 A 
ATOM     20  C   UNL     1      19.507   6.092  20.763  0.00  0.00    +0.069 A 
ATOM     21  C   UNL     1      20.866   6.378  20.633  0.00  0.00    +0.125 A 
ATOM     22  C   UNL     1      20.445   8.667  21.286  0.00  0.00    +0.125 A 
ATOM     23  C   UNL     1      21.335   7.666  20.895  0.00  0.00    +0.091 A 
BRANCH  21   3
ATOM      3  O   UNL     1      21.735   5.403  20.251  0.00  0.00    -0.495 OA
ATOM     24  C   UNL     1      22.854   5.160  21.102  0.00  0.00    +0.277 C 
ENDBRANCH  21   3
BRANCH  22   4
ATOM      4  O   UNL     1      20.903   9.922  21.542  0.00  0.00    -0.495 OA
ATOM     25  C   UNL     1      20.226  10.668  22.553  0.00  0.00    +0.277 C 
ENDBRANCH  22   4
ENDBRANCH   6  18
BRANCH  17   1
ATOM      1  O   UNL     1      15.128   6.217  20.853  0.00  0.00    -0.449 OA
BRANCH   1  14
ATOM     14  C   UNL     1      14.040   6.767  20.136  0.00  0.00    +0.252 C 
BRANCH  14   8
ATOM      5  N   UNL     1      11.611   7.285  20.479  0.00  0.00    -0.295 NA
ATOM      7  C   UNL     1      12.056   9.289  22.080  0.00  0.00    +0.008 C 
ATOM      8  C   UNL     1      12.938   7.128  21.134  0.00  0.00    +0.095 C 
ATOM      9  C   UNL     1      13.300   8.384  21.959  0.00  0.00    +0.027 C 
ATOM     10  C   UNL     1      11.653   9.784  20.674  0.00  0.00    +0.081 C 
ATOM     11  C   UNL     1      10.899   8.412  22.594  0.00  0.00    +0.020 C 
ATOM     12  C   UNL     1      11.556   8.566  19.731  0.00  0.00    +0.101 C 
ATOM     13  C   UNL     1      10.580   7.330  21.546  0.00  0.00    +0.085 C 
BRANCH  10  15
ATOM     15  C   UNL     1      12.589  10.795  20.156  0.00  0.00    -0.101 C 
ATOM     16  C   UNL     1      13.352  11.620  19.733  0.00  0.00    +0.004 C 
ENDBRANCH  10  15
ENDBRANCH  14   8
ENDBRANCH   1  14
ENDBRANCH  17   1
TORSDOF 7
ENDMDL
MODEL 7
REMARK VINA RESULT:      -5.6     22.471     24.577
REMARK  Name = 11943210
REMARK  9 active torsions:
REMARK  status: ('A' for Active; 'I' for Inactive)
REMARK    1  A    between atoms: O_1  and  C_14
REMARK    2  A    between atoms: O_1  and  C_17
REMARK    3  A    between atoms: O_3  and  C_21
REMARK    4  A    between atoms: O_3  and  C_24
REMARK    5  A    between atoms: O_4  and  C_22
REMARK    6  A    between atoms: O_4  and  C_25
REMARK    7  A    between atoms: N_6  and  C_18
REMARK    8  A    between atoms: C_8  and  C_14
REMARK    9  A    between atoms: C_10  and  C_15
REMARK                            x       y       z     vdW  Elec       q    Type
REMARK                         _______ _______ _______ _____ _____    ______ ____
ROOT
ATOM      2  O   UNL     1      -8.012 -11.295  13.884  0.00  0.00    -0.226 OA
ATOM      6  N   UNL     1      -6.365  -9.691  14.325  0.00  0.00    -0.251 N 
ATOM     17  C   UNL     1      -7.365 -10.297  13.589  0.00  0.00    +0.405 C 
ATOM     26  H   UNL     1      -5.942  -8.865  13.910  0.00  0.00    +0.158 HD
ENDROOT
BRANCH   6  18
ATOM     18  C   UNL     1      -5.855 -10.078  15.584  0.00  0.00    +0.043 A 
ATOM     19  C   UNL     1      -4.516 -10.417  15.699  0.00  0.00    +0.069 A 
ATOM     20  C   UNL     1      -6.702 -10.110  16.680  0.00  0.00    +0.069 A 
ATOM     21  C   UNL     1      -6.199 -10.493  17.924  0.00  0.00    +0.125 A 
ATOM     22  C   UNL     1      -4.012 -10.799  16.942  0.00  0.00    +0.125 A 
ATOM     23  C   UNL     1      -4.853 -10.837  18.055  0.00  0.00    +0.091 A 
BRANCH  21   3
ATOM      3  O   UNL     1      -7.019 -10.531  19.009  0.00  0.00    -0.495 OA
ATOM     24  C   UNL     1      -7.226 -11.802  19.624  0.00  0.00    +0.277 C 
ENDBRANCH  21   3
BRANCH  22   4
ATOM      4  O   UNL     1      -2.699 -11.135  17.071  0.00  0.00    -0.495 OA
ATOM     25  C   UNL     1      -1.817 -10.719  16.030  0.00  0.00    +0.277 C 
ENDBRANCH  22   4
ENDBRANCH   6  18
BRANCH  17   1
ATOM      1  O   UNL     1      -7.556  -9.600  12.416  0.00  0.00    -0.449 OA
BRANCH   1  14
ATOM     14  C   UNL     1      -6.521  -8.719  12.026  0.00  0.00    +0.252 C 
BRANCH  14   8
ATOM      5  N   UNL     1      -6.225 -10.449  10.235  0.00  0.00    -0.295 NA
ATOM      7  C   UNL     1      -4.035  -9.398   9.299  0.00  0.00    +0.008 C 
ATOM      8  C   UNL     1      -6.177  -8.998  10.561  0.00  0.00    +0.095 C 
ATOM      9  C   UNL     1      -4.814  -8.387  10.166  0.00  0.00    +0.027 C 
ATOM     10  C   UNL     1      -3.728 -10.654  10.143  0.00  0.00    +0.081 C 
ATOM     11  C   UNL     1      -4.971  -9.843   8.160  0.00  0.00    +0.020 C 
ATOM     12  C   UNL     1      -5.039 -11.141  10.799  0.00  0.00    +0.101 C 
ATOM     13  C   UNL     1      -6.179 -10.585   8.758  0.00  0.00    +0.085 C 
BRANCH  10  15
ATOM     15  C   UNL     1      -2.683 -10.402  11.149  0.00  0.00    -0.101 C 
ATOM     16  C   UNL     1      -1.831 -10.196  11.970  0.00  0.00    +0.004 C 
ENDBRANCH  10  15
ENDBRANCH  14   8
ENDBRANCH   1  14
ENDBRANCH  17   1
TORSDOF 7
ENDMDL
MODEL 8
REMARK VINA RESULT:      -5.6      2.397      7.368
REMARK  Name = 11943210
REMARK  9 active torsions:
REMARK  status: ('A' for Active; 'I' for Inactive)
REMARK    1  A    between atoms: O_1  and  C_14
REMARK    2  A    between atoms: O_1  and  C_17
REMARK    3  A    between atoms: O_3  and  C_21
REMARK    4  A    between atoms: O_3  and  C_24
REMARK    5  A    between atoms: O_4  and  C_22
REMARK    6  A    between atoms: O_4  and  C_25
REMARK    7  A    between atoms: N_6  and  C_18
REMARK    8  A    between atoms: C_8  and  C_14
REMARK    9  A    between atoms: C_10  and  C_15
REMARK                            x       y       z     vdW  Elec       q    Type
REMARK                         _______ _______ _______ _____ _____    ______ ____
ROOT
ATOM      2  O   UNL     1      12.355   8.042   2.515  0.00  0.00    -0.226 OA
ATOM      6  N   UNL     1      12.080   5.828   3.221  0.00  0.00    -0.251 N 
ATOM     17  C   UNL     1      12.096   7.202   3.367  0.00  0.00    +0.405 C 
ATOM     26  H   UNL     1      11.840   5.291   4.051  0.00  0.00    +0.158 HD
ENDROOT
BRANCH   6  18
ATOM     18  C   UNL     1      12.361   5.073   2.060  0.00  0.00    +0.043 A 
ATOM     19  C   UNL     1      11.328   4.754   1.192  0.00  0.00    +0.069 A 
ATOM     20  C   UNL     1      13.661   4.667   1.810  0.00  0.00    +0.069 A 
ATOM     21  C   UNL     1      13.938   3.923   0.663  0.00  0.00    +0.125 A 
ATOM     22  C   UNL     1      11.603   4.010   0.045  0.00  0.00    +0.125 A 
ATOM     23  C   UNL     1      12.909   3.594  -0.220  0.00  0.00    +0.091 A 
BRANCH  21   3
ATOM      3  O   UNL     1      15.211   3.516   0.405  0.00  0.00    -0.495 OA
ATOM     24  C   UNL     1      16.098   4.479  -0.163  0.00  0.00    +0.277 C 
ENDBRANCH  21   3
BRANCH  22   4
ATOM      4  O   UNL     1      10.600   3.689  -0.817  0.00  0.00    -0.495 OA
ATOM     25  C   UNL     1      10.785   4.037  -2.188  0.00  0.00    +0.277 C 
ENDBRANCH  22   4
ENDBRANCH   6  18
BRANCH  17   1
ATOM      1  O   UNL     1      11.763   7.527   4.663  0.00  0.00    -0.449 OA
BRANCH   1  14
ATOM     14  C   UNL     1      12.226   6.655   5.676  0.00  0.00    +0.252 C 
BRANCH  14   8
ATOM      5  N   UNL     1      10.328   5.436   6.772  0.00  0.00    -0.295 NA
ATOM      7  C   UNL     1       8.873   7.571   7.089  0.00  0.00    +0.008 C 
ATOM      8  C   UNL     1      11.197   6.643   6.809  0.00  0.00    +0.095 C 
ATOM      9  C   UNL     1      10.349   7.935   6.827  0.00  0.00    +0.027 C 
ATOM     10  C   UNL     1       8.349   6.714   5.916  0.00  0.00    +0.081 C 
ATOM     11  C   UNL     1       8.836   6.680   8.345  0.00  0.00    +0.020 C 
ATOM     12  C   UNL     1       9.335   5.551   5.675  0.00  0.00    +0.101 C 
ATOM     13  C   UNL     1       9.589   5.368   8.057  0.00  0.00    +0.085 C 
BRANCH  10  15
ATOM     15  C   UNL     1       8.147   7.513   4.696  0.00  0.00    -0.101 C 
ATOM     16  C   UNL     1       7.983   8.164   3.701  0.00  0.00    +0.004 C 
ENDBRANCH  10  15
ENDBRANCH  14   8
ENDBRANCH   1  14
ENDBRANCH  17   1
TORSDOF 7
ENDMDL
MODEL 9
REMARK VINA RESULT:      -5.6     22.468     24.608
REMARK  Name = 11943210
REMARK  9 active torsions:
REMARK  status: ('A' for Active; 'I' for Inactive)
REMARK    1  A    between atoms: O_1  and  C_14
REMARK    2  A    between atoms: O_1  and  C_17
REMARK    3  A    between atoms: O_3  and  C_21
REMARK    4  A    between atoms: O_3  and  C_24
REMARK    5  A    between atoms: O_4  and  C_22
REMARK    6  A    between atoms: O_4  and  C_25
REMARK    7  A    between atoms: N_6  and  C_18
REMARK    8  A    between atoms: C_8  and  C_14
REMARK    9  A    between atoms: C_10  and  C_15
REMARK                            x       y       z     vdW  Elec       q    Type
REMARK                         _______ _______ _______ _____ _____    ______ ____
ROOT
ATOM      2  O   UNL     1      -7.701 -11.628  13.739  0.00  0.00    -0.226 OA
ATOM      6  N   UNL     1      -6.441  -9.752  14.350  0.00  0.00    -0.251 N 
ATOM     17  C   UNL     1      -7.256 -10.506  13.528  0.00  0.00    +0.405 C 
ATOM     26  H   UNL     1      -6.173  -8.837  13.998  0.00  0.00    +0.158 HD
ENDROOT
BRANCH   6  18
ATOM     18  C   UNL     1      -5.931 -10.097  15.622  0.00  0.00    +0.043 A 
ATOM     19  C   UNL     1      -6.778 -10.085  16.719  0.00  0.00    +0.069 A 
ATOM     20  C   UNL     1      -4.595 -10.442  15.747  0.00  0.00    +0.069 A 
ATOM     21  C   UNL     1      -4.091 -10.782  17.003  0.00  0.00    +0.125 A 
ATOM     22  C   UNL     1      -6.275 -10.425  17.974  0.00  0.00    +0.125 A 
ATOM     23  C   UNL     1      -4.931 -10.775  18.117  0.00  0.00    +0.091 A 
BRANCH  21   3
ATOM      3  O   UNL     1      -2.780 -11.122  17.142  0.00  0.00    -0.495 OA
ATOM     24  C   UNL     1      -1.893 -10.731  16.096  0.00  0.00    +0.277 C 
ENDBRANCH  21   3
BRANCH  22   4
ATOM      4  O   UNL     1      -7.094 -10.419  19.061  0.00  0.00    -0.495 OA
ATOM     25  C   UNL     1      -7.797 -11.626  19.353  0.00  0.00    +0.277 C 
ENDBRANCH  22   4
ENDBRANCH   6  18
BRANCH  17   1
ATOM      1  O   UNL     1      -7.523  -9.800  12.376  0.00  0.00    -0.449 OA
BRANCH   1  14
ATOM     14  C   UNL     1      -6.585  -8.806  12.009  0.00  0.00    +0.252 C 
BRANCH  14   8
ATOM      5  N   UNL     1      -6.229 -10.447  10.148  0.00  0.00    -0.295 NA
ATOM      7  C   UNL     1      -4.045  -9.316   9.295  0.00  0.00    +0.008 C 
ATOM      8  C   UNL     1      -6.213  -9.012  10.539  0.00  0.00    +0.095 C 
ATOM      9  C   UNL     1      -4.856  -8.359  10.193  0.00  0.00    +0.027 C 
ATOM     10  C   UNL     1      -3.728 -10.603  10.086  0.00  0.00    +0.081 C 
ATOM     11  C   UNL     1      -4.955  -9.725   8.122  0.00  0.00    +0.020 C 
ATOM     12  C   UNL     1      -5.039 -11.143  10.698  0.00  0.00    +0.101 C 
ATOM     13  C   UNL     1      -6.159 -10.515   8.667  0.00  0.00    +0.085 C 
BRANCH  10  15
ATOM     15  C   UNL     1      -2.703 -10.378  11.119  0.00  0.00    -0.101 C 
ATOM     16  C   UNL     1      -1.868 -10.194  11.961  0.00  0.00    +0.004 C 
ENDBRANCH  10  15
ENDBRANCH  14   8
ENDBRANCH   1  14
ENDBRANCH  17   1
TORSDOF 7
ENDMDL
MODEL 10
REMARK VINA RESULT:      -5.5     14.309     19.233
REMARK  Name = 11943210
REMARK  9 active torsions:
REMARK  status: ('A' for Active; 'I' for Inactive)
REMARK    1  A    between atoms: O_1  and  C_14
REMARK    2  A    between atoms: O_1  and  C_17
REMARK    3  A    between atoms: O_3  and  C_21
REMARK    4  A    between atoms: O_3  and  C_24
REMARK    5  A    between atoms: O_4  and  C_22
REMARK    6  A    between atoms: O_4  and  C_25
REMARK    7  A    between atoms: N_6  and  C_18
REMARK    8  A    between atoms: C_8  and  C_14
REMARK    9  A    between atoms: C_10  and  C_15
REMARK                            x       y       z     vdW  Elec       q    Type
REMARK                         _______ _______ _______ _____ _____    ______ ____
ROOT
ATOM      2  O   UNL     1      16.400   8.193  21.529  0.00  0.00    -0.226 OA
ATOM      6  N   UNL     1      15.542   6.539  20.112  0.00  0.00    -0.251 N 
ATOM     17  C   UNL     1      16.453   7.094  20.991  0.00  0.00    +0.405 C 
ATOM     26  H   UNL     1      15.761   5.608  19.768  0.00  0.00    +0.158 HD
ENDROOT
BRANCH   6  18
ATOM     18  C   UNL     1      14.342   7.108  19.629  0.00  0.00    +0.043 A 
ATOM     19  C   UNL     1      13.187   7.001  20.387  0.00  0.00    +0.069 A 
ATOM     20  C   UNL     1      14.344   7.763  18.408  0.00  0.00    +0.069 A 
ATOM     21  C   UNL     1      13.159   8.324  17.931  0.00  0.00    +0.125 A 
ATOM     22  C   UNL     1      12.002   7.563  19.911  0.00  0.00    +0.125 A 
ATOM     23  C   UNL     1      11.988   8.225  18.683  0.00  0.00    +0.091 A 
BRANCH  21   3
ATOM      3  O   UNL     1      13.145   8.970  16.732  0.00  0.00    -0.495 OA
ATOM     24  C   UNL     1      14.193   8.661  15.815  0.00  0.00    +0.277 C 
ENDBRANCH  21   3
BRANCH  22   4
ATOM      4  O   UNL     1      10.860   7.466  20.644  0.00  0.00    -0.495 OA
ATOM     25  C   UNL     1      10.978   7.628  22.057  0.00  0.00    +0.277 C 
ENDBRANCH  22   4
ENDBRANCH   6  18
BRANCH  17   1
ATOM      1  O   UNL     1      17.485   6.207  21.199  0.00  0.00    -0.449 OA
BRANCH   1  14
ATOM     14  C   UNL     1      18.664   6.415  20.445  0.00  0.00    +0.252 C 
BRANCH  14   8
ATOM      5  N   UNL     1      20.893   7.556  20.558  0.00  0.00    -0.295 NA
ATOM      7  C   UNL     1      21.442   6.693  22.952  0.00  0.00    +0.008 C 
ATOM      8  C   UNL     1      19.634   7.245  21.287  0.00  0.00    +0.095 C 
ATOM      9  C   UNL     1      19.934   6.574  22.647  0.00  0.00    +0.027 C 
ATOM     10  C   UNL     1      22.236   5.907  21.886  0.00  0.00    +0.081 C 
ATOM     11  C   UNL     1      21.826   8.176  22.793  0.00  0.00    +0.020 C 
ATOM     12  C   UNL     1      21.757   6.350  20.487  0.00  0.00    +0.101 C 
ATOM     13  C   UNL     1      21.619   8.598  21.327  0.00  0.00    +0.085 C 
BRANCH  10  15
ATOM     15  C   UNL     1      22.107   4.451  22.065  0.00  0.00    -0.101 C 
ATOM     16  C   UNL     1      22.002   3.264  22.210  0.00  0.00    +0.004 C 
ENDBRANCH  10  15
ENDBRANCH  14   8
ENDBRANCH   1  14
ENDBRANCH  17   1
TORSDOF 7
ENDMDL
