MODEL 1
REMARK VINA RESULT:      -7.0      0.000      0.000
REMARK  Name = 7135055
REMARK  15 active torsions:
REMARK  status: ('A' for Active; 'I' for Inactive)
REMARK    1  A    between atoms: O_2  and  C_14
REMARK    2  A    between atoms: O_3  and  C_19
REMARK    3  A    between atoms: N_7  and  C_25
REMARK    4  A    between atoms: C_9  and  C_17
REMARK    5  A    between atoms: C_11  and  C_19
REMARK    6  A    between atoms: C_11  and  C_20
REMARK    7  A    between atoms: C_12  and  C_22
REMARK    8  A    between atoms: C_22  and  C_23
REMARK    9  A    between atoms: C_25  and  C_27
REMARK   10  A    between atoms: C_25  and  C_28
REMARK   11  A    between atoms: C_26  and  C_29
REMARK   12  A    between atoms: C_32  and  C_35
REMARK   13  A    between atoms: C_35  and  C_36
REMARK   14  A    between atoms: C_35  and  C_37
REMARK   15  A    between atoms: C_35  and  C_38
REMARK                            x       y       z     vdW  Elec       q    Type
REMARK                         _______ _______ _______ _____ _____    ______ ____
ROOT
ATOM      1  S   UNL     1      17.590   5.936  19.629  0.00  0.00    -0.057 S 
ATOM      5  O   UNL     1      21.294   8.126  21.406  0.00  0.00    -0.270 OA
ATOM      6  N   UNL     1      18.388   8.067  20.859  0.00  0.00    -0.229 NA
ATOM      8  N   UNL     1      20.071   6.429  20.319  0.00  0.00    -0.261 N 
ATOM      9  C   UNL     1      14.814   9.465  20.484  0.00  0.00    -0.019 C 
ATOM     10  C   UNL     1      14.156   8.016  20.545  0.00  0.00    +0.011 C 
ATOM     11  C   UNL     1      12.599   7.927  20.310  0.00  0.00    +0.021 C 
ATOM     12  C   UNL     1      16.257   9.381  21.166  0.00  0.00    +0.054 C 
ATOM     13  C   UNL     1      13.946  10.460  21.297  0.00  0.00    +0.010 C 
ATOM     14  C   UNL     1      11.890   9.018  21.161  0.00  0.00    +0.123 C 
ATOM     15  C   UNL     1      14.976   6.984  19.716  0.00  0.00    +0.049 C 
ATOM     16  C   UNL     1      12.464  10.414  20.949  0.00  0.00    +0.032 C 
ATOM     17  C   UNL     1      14.959   9.999  19.038  0.00  0.00    +0.012 C 
ATOM     18  C   UNL     1      17.024   8.184  20.666  0.00  0.00    +0.058 A 
ATOM     20  C   UNL     1      12.090   6.546  20.812  0.00  0.00    +0.016 C 
ATOM     21  C   UNL     1      16.427   7.112  20.034  0.00  0.00    +0.015 A 
ATOM     24  C   UNL     1      18.796   6.927  20.347  0.00  0.00    +0.165 A 
ATOM     26  C   UNL     1      21.224   7.042  20.837  0.00  0.00    +0.250 C 
ATOM     42  H   UNL     1      20.137   5.504  19.906  0.00  0.00    +0.157 HD
ENDROOT
BRANCH  26  29
ATOM     29  C   UNL     1      22.480   6.258  20.695  0.00  0.00    +0.037 A 
ATOM     30  C   UNL     1      23.704   6.917  20.574  0.00  0.00    +0.013 A 
ATOM     31  C   UNL     1      22.434   4.864  20.684  0.00  0.00    +0.013 A 
ATOM     32  C   UNL     1      24.836   4.787  20.431  0.00  0.00    -0.042 A 
ATOM     33  C   UNL     1      24.881   6.181  20.442  0.00  0.00    +0.005 A 
ATOM     34  C   UNL     1      23.612   4.128  20.552  0.00  0.00    +0.005 A 
BRANCH  32  35
ATOM     35  C   UNL     1      26.094   4.000  20.289  0.00  0.00    -0.013 C 
ATOM     36  C   UNL     1      25.927   2.557  20.859  0.00  0.00    +0.015 C 
ATOM     37  C   UNL     1      27.273   4.675  21.055  0.00  0.00    +0.015 C 
ATOM     38  C   UNL     1      26.605   3.811  18.822  0.00  0.00    +0.015 C 
ENDBRANCH  32  35
ENDBRANCH  26  29
BRANCH  14   2
ATOM      2  O   UNL     1      10.492   9.048  20.874  0.00  0.00    -0.391 OA
ATOM     39  H   UNL     1      10.309   9.870  20.385  0.00  0.00    +0.210 HD
ENDBRANCH  14   2
BRANCH  11  19
ATOM     19  C   UNL     1      12.168   8.015  18.830  0.00  0.00    +0.165 C 
BRANCH  19   3
ATOM      3  O   UNL     1      12.030   6.700  18.341  0.00  0.00    -0.394 OA
ATOM     40  H   UNL     1      12.846   6.484  17.857  0.00  0.00    +0.209 HD
ENDBRANCH  19   3
ENDBRANCH  11  19
BRANCH  12  22
ATOM     22  C   UNL     1      17.088  10.667  21.061  0.00  0.00    +0.106 C 
BRANCH  22  23
ATOM      4  O   UNL     1      16.875  11.832  23.171  0.00  0.00    -0.276 OA
ATOM      7  N   UNL     1      18.854  10.721  22.669  0.00  0.00    -0.313 N 
ATOM     23  C   UNL     1      17.560  11.149  22.413  0.00  0.00    +0.214 C 
ATOM     41  H   UNL     1      19.310  10.109  21.998  0.00  0.00    +0.149 HD
BRANCH   7  25
ATOM     25  C   UNL     1      19.564  11.037  23.887  0.00  0.00    +0.067 C 
ATOM     27  C   UNL     1      20.413  12.288  23.696  0.00  0.00    +0.027 C 
ATOM     28  C   UNL     1      20.416   9.855  24.331  0.00  0.00    +0.027 C 
ENDBRANCH   7  25
ENDBRANCH  22  23
ENDBRANCH  12  22
TORSDOF 8
ENDMDL
MODEL 2
REMARK VINA RESULT:      -6.8     30.417     34.064
REMARK  Name = 7135055
REMARK  15 active torsions:
REMARK  status: ('A' for Active; 'I' for Inactive)
REMARK    1  A    between atoms: O_2  and  C_14
REMARK    2  A    between atoms: O_3  and  C_19
REMARK    3  A    between atoms: N_7  and  C_25
REMARK    4  A    between atoms: C_9  and  C_17
REMARK    5  A    between atoms: C_11  and  C_19
REMARK    6  A    between atoms: C_11  and  C_20
REMARK    7  A    between atoms: C_12  and  C_22
REMARK    8  A    between atoms: C_22  and  C_23
REMARK    9  A    between atoms: C_25  and  C_27
REMARK   10  A    between atoms: C_25  and  C_28
REMARK   11  A    between atoms: C_26  and  C_29
REMARK   12  A    between atoms: C_32  and  C_35
REMARK   13  A    between atoms: C_35  and  C_36
REMARK   14  A    between atoms: C_35  and  C_37
REMARK   15  A    between atoms: C_35  and  C_38
REMARK                            x       y       z     vdW  Elec       q    Type
REMARK                         _______ _______ _______ _____ _____    ______ ____
ROOT
ATOM      1  S   UNL     1      -9.890  -9.480  13.754  0.00  0.00    -0.057 S 
ATOM      5  O   UNL     1      -9.466 -10.361  18.305  0.00  0.00    -0.270 OA
ATOM      6  N   UNL     1      -8.232 -10.142  15.626  0.00  0.00    -0.229 NA
ATOM      8  N   UNL     1     -10.527  -9.795  16.278  0.00  0.00    -0.261 N 
ATOM      9  C   UNL     1      -5.546 -10.620  12.901  0.00  0.00    -0.019 C 
ATOM     10  C   UNL     1      -6.179  -9.494  11.969  0.00  0.00    +0.011 C 
ATOM     11  C   UNL     1      -5.530  -9.296  10.545  0.00  0.00    +0.021 C 
ATOM     12  C   UNL     1      -6.039 -10.356  14.398  0.00  0.00    +0.054 C 
ATOM     13  C   UNL     1      -4.000 -10.508  12.868  0.00  0.00    +0.010 C 
ATOM     14  C   UNL     1      -3.983  -9.251  10.689  0.00  0.00    +0.123 C 
ATOM     15  C   UNL     1      -7.733  -9.583  11.943  0.00  0.00    +0.049 C 
ATOM     16  C   UNL     1      -3.416 -10.436  11.464  0.00  0.00    +0.032 C 
ATOM     17  C   UNL     1      -5.950 -12.052  12.472  0.00  0.00    +0.012 C 
ATOM     18  C   UNL     1      -7.522 -10.088  14.441  0.00  0.00    +0.058 A 
ATOM     20  C   UNL     1      -5.981  -7.923   9.970  0.00  0.00    +0.016 C 
ATOM     21  C   UNL     1      -8.258  -9.725  13.332  0.00  0.00    +0.015 A 
ATOM     24  C   UNL     1      -9.491  -9.848  15.383  0.00  0.00    +0.165 A 
ATOM     26  C   UNL     1     -10.459 -10.050  17.658  0.00  0.00    +0.250 C 
ATOM     42  H   UNL     1     -11.406  -9.503  15.863  0.00  0.00    +0.157 HD
ENDROOT
BRANCH  26  29
ATOM     29  C   UNL     1     -11.739  -9.890  18.397  0.00  0.00    +0.037 A 
ATOM     30  C   UNL     1     -11.757  -9.984  19.789  0.00  0.00    +0.013 A 
ATOM     31  C   UNL     1     -12.921  -9.643  17.700  0.00  0.00    +0.013 A 
ATOM     32  C   UNL     1     -14.140  -9.586  19.785  0.00  0.00    -0.042 A 
ATOM     33  C   UNL     1     -12.958  -9.832  20.482  0.00  0.00    +0.005 A 
ATOM     34  C   UNL     1     -14.122  -9.492  18.393  0.00  0.00    +0.005 A 
BRANCH  32  35
ATOM     35  C   UNL     1     -15.424  -9.425  20.525  0.00  0.00    -0.013 C 
ATOM     36  C   UNL     1     -15.579 -10.513  21.633  0.00  0.00    +0.015 C 
ATOM     37  C   UNL     1     -16.649  -9.551  19.568  0.00  0.00    +0.015 C 
ATOM     38  C   UNL     1     -15.609  -8.055  21.260  0.00  0.00    +0.015 C 
ENDBRANCH  32  35
ENDBRANCH  26  29
BRANCH  14   2
ATOM      2  O   UNL     1      -3.360  -9.202   9.406  0.00  0.00    -0.391 OA
ATOM     39  H   UNL     1      -3.743  -8.450   8.921  0.00  0.00    +0.210 HD
ENDBRANCH  14   2
BRANCH  11  19
ATOM     19  C   UNL     1      -5.955 -10.346   9.496  0.00  0.00    +0.165 C 
BRANCH  19   3
ATOM      3  O   UNL     1      -5.973  -9.714   8.235  0.00  0.00    -0.394 OA
ATOM     40  H   UNL     1      -5.706 -10.376   7.575  0.00  0.00    +0.209 HD
ENDBRANCH  19   3
ENDBRANCH  11  19
BRANCH  12  22
ATOM     22  C   UNL     1      -5.634 -11.441  15.404  0.00  0.00    +0.106 C 
BRANCH  22  23
ATOM      4  O   UNL     1      -4.357  -9.817  16.663  0.00  0.00    -0.276 OA
ATOM      7  N   UNL     1      -5.284 -11.645  17.758  0.00  0.00    -0.313 N 
ATOM     23  C   UNL     1      -5.014 -10.856  16.651  0.00  0.00    +0.214 C 
ATOM     41  H   UNL     1      -5.889 -12.455  17.648  0.00  0.00    +0.149 HD
BRANCH   7  25
ATOM     25  C   UNL     1      -4.813 -11.331  19.087  0.00  0.00    +0.067 C 
ATOM     27  C   UNL     1      -3.699 -12.287  19.495  0.00  0.00    +0.027 C 
ATOM     28  C   UNL     1      -5.964 -11.368  20.085  0.00  0.00    +0.027 C 
ENDBRANCH   7  25
ENDBRANCH  22  23
ENDBRANCH  12  22
TORSDOF 8
ENDMDL
MODEL 3
REMARK VINA RESULT:      -6.8      1.587      2.176
REMARK  Name = 7135055
REMARK  15 active torsions:
REMARK  status: ('A' for Active; 'I' for Inactive)
REMARK    1  A    between atoms: O_2  and  C_14
REMARK    2  A    between atoms: O_3  and  C_19
REMARK    3  A    between atoms: N_7  and  C_25
REMARK    4  A    between atoms: C_9  and  C_17
REMARK    5  A    between atoms: C_11  and  C_19
REMARK    6  A    between atoms: C_11  and  C_20
REMARK    7  A    between atoms: C_12  and  C_22
REMARK    8  A    between atoms: C_22  and  C_23
REMARK    9  A    between atoms: C_25  and  C_27
REMARK   10  A    between atoms: C_25  and  C_28
REMARK   11  A    between atoms: C_26  and  C_29
REMARK   12  A    between atoms: C_32  and  C_35
REMARK   13  A    between atoms: C_35  and  C_36
REMARK   14  A    between atoms: C_35  and  C_37
REMARK   15  A    between atoms: C_35  and  C_38
REMARK                            x       y       z     vdW  Elec       q    Type
REMARK                         _______ _______ _______ _____ _____    ______ ____
ROOT
ATOM      1  S   UNL     1      16.616   6.218  20.644  0.00  0.00    -0.057 S 
ATOM      5  O   UNL     1      20.794   7.912  21.808  0.00  0.00    -0.270 OA
ATOM      6  N   UNL     1      17.869   8.285  21.564  0.00  0.00    -0.229 NA
ATOM      8  N   UNL     1      19.207   6.353  21.028  0.00  0.00    -0.261 N 
ATOM      9  C   UNL     1      14.534  10.214  21.410  0.00  0.00    -0.019 C 
ATOM     10  C   UNL     1      13.673   8.903  21.684  0.00  0.00    +0.011 C 
ATOM     11  C   UNL     1      12.104   9.051  21.617  0.00  0.00    +0.021 C 
ATOM     12  C   UNL     1      16.016   9.953  21.949  0.00  0.00    +0.054 C 
ATOM     13  C   UNL     1      13.929  11.403  22.201  0.00  0.00    +0.010 C 
ATOM     14  C   UNL     1      11.674  10.311  22.419  0.00  0.00    +0.123 C 
ATOM     15  C   UNL     1      14.222   7.684  20.886  0.00  0.00    +0.049 C 
ATOM     16  C   UNL     1      12.428  11.571  22.009  0.00  0.00    +0.032 C 
ATOM     17  C   UNL     1      14.592  10.593  19.909  0.00  0.00    +0.012 C 
ATOM     18  C   UNL     1      16.527   8.608  21.498  0.00  0.00    +0.058 A 
ATOM     20  C   UNL     1      11.450   7.820  22.305  0.00  0.00    +0.016 C 
ATOM     21  C   UNL     1      15.703   7.599  21.042  0.00  0.00    +0.015 A 
ATOM     24  C   UNL     1      18.035   7.054  21.132  0.00  0.00    +0.165 A 
ATOM     26  C   UNL     1      20.492   6.811  21.363  0.00  0.00    +0.250 C 
ATOM     42  H   UNL     1      19.081   5.398  20.706  0.00  0.00    +0.157 HD
ENDROOT
BRANCH  26  29
ATOM     29  C   UNL     1      21.587   5.822  21.176  0.00  0.00    +0.037 A 
ATOM     30  C   UNL     1      21.367   4.474  21.460  0.00  0.00    +0.013 A 
ATOM     31  C   UNL     1      22.835   6.242  20.715  0.00  0.00    +0.013 A 
ATOM     32  C   UNL     1      23.642   3.967  20.823  0.00  0.00    -0.042 A 
ATOM     33  C   UNL     1      22.394   3.547  21.283  0.00  0.00    +0.005 A 
ATOM     34  C   UNL     1      23.863   5.316  20.539  0.00  0.00    +0.005 A 
BRANCH  32  35
ATOM     35  C   UNL     1      24.741   2.978  20.636  0.00  0.00    -0.013 C 
ATOM     36  C   UNL     1      25.954   3.296  21.564  0.00  0.00    +0.015 C 
ATOM     37  C   UNL     1      25.261   2.981  19.165  0.00  0.00    +0.015 C 
ATOM     38  C   UNL     1      24.363   1.489  20.940  0.00  0.00    +0.015 C 
ENDBRANCH  32  35
ENDBRANCH  26  29
BRANCH  14   2
ATOM      2  O   UNL     1      10.274  10.547  22.272  0.00  0.00    -0.391 OA
ATOM     39  H   UNL     1      10.007  10.205  21.401  0.00  0.00    +0.210 HD
ENDBRANCH  14   2
BRANCH  11  19
ATOM     19  C   UNL     1      11.524   9.084  20.186  0.00  0.00    +0.165 C 
BRANCH  19   3
ATOM      3  O   UNL     1      10.349   8.304  20.179  0.00  0.00    -0.394 OA
ATOM     40  H   UNL     1      10.584   7.423  20.516  0.00  0.00    +0.209 HD
ENDBRANCH  19   3
ENDBRANCH  11  19
BRANCH  12  22
ATOM     22  C   UNL     1      17.017  11.071  21.630  0.00  0.00    +0.106 C 
BRANCH  22  23
ATOM      4  O   UNL     1      19.009  11.301  22.985  0.00  0.00    -0.276 OA
ATOM      7  N   UNL     1      16.981  12.114  23.779  0.00  0.00    -0.313 N 
ATOM     23  C   UNL     1      17.802  11.493  22.850  0.00  0.00    +0.214 C 
ATOM     41  H   UNL     1      16.006  12.276  23.541  0.00  0.00    +0.149 HD
BRANCH   7  25
ATOM     25  C   UNL     1      17.460  12.620  25.045  0.00  0.00    +0.067 C 
ATOM     27  C   UNL     1      16.463  12.305  26.153  0.00  0.00    +0.027 C 
ATOM     28  C   UNL     1      17.731  14.116  24.955  0.00  0.00    +0.027 C 
ENDBRANCH   7  25
ENDBRANCH  22  23
ENDBRANCH  12  22
TORSDOF 8
ENDMDL
MODEL 4
REMARK VINA RESULT:      -6.5     30.433     35.329
REMARK  Name = 7135055
REMARK  15 active torsions:
REMARK  status: ('A' for Active; 'I' for Inactive)
REMARK    1  A    between atoms: O_2  and  C_14
REMARK    2  A    between atoms: O_3  and  C_19
REMARK    3  A    between atoms: N_7  and  C_25
REMARK    4  A    between atoms: C_9  and  C_17
REMARK    5  A    between atoms: C_11  and  C_19
REMARK    6  A    between atoms: C_11  and  C_20
REMARK    7  A    between atoms: C_12  and  C_22
REMARK    8  A    between atoms: C_22  and  C_23
REMARK    9  A    between atoms: C_25  and  C_27
REMARK   10  A    between atoms: C_25  and  C_28
REMARK   11  A    between atoms: C_26  and  C_29
REMARK   12  A    between atoms: C_32  and  C_35
REMARK   13  A    between atoms: C_35  and  C_36
REMARK   14  A    between atoms: C_35  and  C_37
REMARK   15  A    between atoms: C_35  and  C_38
REMARK                            x       y       z     vdW  Elec       q    Type
REMARK                         _______ _______ _______ _____ _____    ______ ____
ROOT
ATOM      1  S   UNL     1      -8.049  -7.680   6.070  0.00  0.00    -0.057 S 
ATOM      5  O   UNL     1      -5.339 -11.453   6.385  0.00  0.00    -0.270 OA
ATOM      6  N   UNL     1      -7.281  -9.830   4.853  0.00  0.00    -0.229 NA
ATOM      8  N   UNL     1      -6.344  -9.423   7.037  0.00  0.00    -0.261 N 
ATOM      9  C   UNL     1      -9.867  -9.042   2.103  0.00  0.00    -0.019 C 
ATOM     10  C   UNL     1      -9.732  -7.470   2.318  0.00  0.00    +0.011 C 
ATOM     11  C   UNL     1     -10.709  -6.550   1.490  0.00  0.00    +0.021 C 
ATOM     12  C   UNL     1      -8.541  -9.733   2.671  0.00  0.00    +0.054 C 
ATOM     13  C   UNL     1      -9.967  -9.349   0.587  0.00  0.00    +0.010 C 
ATOM     14  C   UNL     1     -10.725  -7.022   0.008  0.00  0.00    +0.123 C 
ATOM     15  C   UNL     1      -9.659  -7.106   3.830  0.00  0.00    +0.049 C 
ATOM     16  C   UNL     1     -11.007  -8.512  -0.144  0.00  0.00    +0.032 C 
ATOM     17  C   UNL     1     -11.104  -9.643   2.815  0.00  0.00    +0.012 C 
ATOM     18  C   UNL     1      -8.184  -9.185   4.029  0.00  0.00    +0.058 A 
ATOM     20  C   UNL     1     -10.165  -5.093   1.504  0.00  0.00    +0.016 C 
ATOM     21  C   UNL     1      -8.683  -7.997   4.522  0.00  0.00    +0.015 A 
ATOM     24  C   UNL     1      -7.138  -9.132   5.959  0.00  0.00    +0.165 A 
ATOM     26  C   UNL     1      -5.508 -10.542   7.187  0.00  0.00    +0.250 C 
ATOM     42  H   UNL     1      -6.366  -8.710   7.760  0.00  0.00    +0.157 HD
ENDROOT
BRANCH  26  29
ATOM     29  C   UNL     1      -4.732 -10.589   8.454  0.00  0.00    +0.037 A 
ATOM     30  C   UNL     1      -4.292  -9.406   9.048  0.00  0.00    +0.013 A 
ATOM     31  C   UNL     1      -4.443 -11.817   9.050  0.00  0.00    +0.013 A 
ATOM     32  C   UNL     1      -3.276 -10.678  10.833  0.00  0.00    -0.042 A 
ATOM     33  C   UNL     1      -3.564  -9.450  10.237  0.00  0.00    +0.005 A 
ATOM     34  C   UNL     1      -3.715 -11.862  10.239  0.00  0.00    +0.005 A 
BRANCH  32  35
ATOM     35  C   UNL     1      -2.497 -10.727  12.103  0.00  0.00    -0.013 C 
ATOM     36  C   UNL     1      -3.378 -10.317  13.324  0.00  0.00    +0.015 C 
ATOM     37  C   UNL     1      -1.277  -9.756  12.056  0.00  0.00    +0.015 C 
ATOM     38  C   UNL     1      -1.901 -12.126  12.472  0.00  0.00    +0.015 C 
ENDBRANCH  32  35
ENDBRANCH  26  29
BRANCH  14   2
ATOM      2  O   UNL     1     -11.695  -6.292  -0.741  0.00  0.00    -0.391 OA
ATOM     39  H   UNL     1     -12.570  -6.487  -0.361  0.00  0.00    +0.210 HD
ENDBRANCH  14   2
BRANCH  11  19
ATOM     19  C   UNL     1     -12.143  -6.463   2.056  0.00  0.00    +0.165 C 
BRANCH  19   3
ATOM      3  O   UNL     1     -12.623  -5.159   1.819  0.00  0.00    -0.394 OA
ATOM     40  H   UNL     1     -12.318  -4.893   0.935  0.00  0.00    +0.209 HD
ENDBRANCH  19   3
ENDBRANCH  11  19
BRANCH  12  22
ATOM     22  C   UNL     1      -8.572 -11.267   2.672  0.00  0.00    +0.106 C 
BRANCH  22  23
ATOM      4  O   UNL     1      -7.262 -11.903   0.739  0.00  0.00    -0.276 OA
ATOM      7  N   UNL     1      -6.444 -12.336   2.871  0.00  0.00    -0.313 N 
ATOM     23  C   UNL     1      -7.376 -11.858   1.962  0.00  0.00    +0.214 C 
ATOM     41  H   UNL     1      -6.610 -12.195   3.864  0.00  0.00    +0.149 HD
BRANCH   7  25
ATOM     25  C   UNL     1      -5.202 -12.959   2.476  0.00  0.00    +0.067 C 
ATOM     27  C   UNL     1      -5.339 -14.476   2.496  0.00  0.00    +0.027 C 
ATOM     28  C   UNL     1      -4.063 -12.496   3.375  0.00  0.00    +0.027 C 
ENDBRANCH   7  25
ENDBRANCH  22  23
ENDBRANCH  12  22
TORSDOF 8
ENDMDL
MODEL 5
REMARK VINA RESULT:      -6.4     30.244     32.752
REMARK  Name = 7135055
REMARK  15 active torsions:
REMARK  status: ('A' for Active; 'I' for Inactive)
REMARK    1  A    between atoms: O_2  and  C_14
REMARK    2  A    between atoms: O_3  and  C_19
REMARK    3  A    between atoms: N_7  and  C_25
REMARK    4  A    between atoms: C_9  and  C_17
REMARK    5  A    between atoms: C_11  and  C_19
REMARK    6  A    between atoms: C_11  and  C_20
REMARK    7  A    between atoms: C_12  and  C_22
REMARK    8  A    between atoms: C_22  and  C_23
REMARK    9  A    between atoms: C_25  and  C_27
REMARK   10  A    between atoms: C_25  and  C_28
REMARK   11  A    between atoms: C_26  and  C_29
REMARK   12  A    between atoms: C_32  and  C_35
REMARK   13  A    between atoms: C_35  and  C_36
REMARK   14  A    between atoms: C_35  and  C_37
REMARK   15  A    between atoms: C_35  and  C_38
REMARK                            x       y       z     vdW  Elec       q    Type
REMARK                         _______ _______ _______ _____ _____    ______ ____
ROOT
ATOM      1  S   UNL     1      -7.219 -10.939  12.256  0.00  0.00    -0.057 S 
ATOM      5  O   UNL     1      -3.314 -12.835  10.574  0.00  0.00    -0.270 OA
ATOM      6  N   UNL     1      -4.919 -11.937  12.890  0.00  0.00    -0.229 NA
ATOM      8  N   UNL     1      -5.460 -11.860  10.543  0.00  0.00    -0.261 N 
ATOM      9  C   UNL     1      -5.625 -10.911  16.540  0.00  0.00    -0.019 C 
ATOM     10  C   UNL     1      -7.198 -11.098  16.370  0.00  0.00    +0.011 C 
ATOM     11  C   UNL     1      -8.103 -10.682  17.593  0.00  0.00    +0.021 C 
ATOM     12  C   UNL     1      -4.901 -11.776  15.408  0.00  0.00    +0.054 C 
ATOM     13  C   UNL     1      -5.188 -11.453  17.924  0.00  0.00    +0.010 C 
ATOM     14  C   UNL     1      -7.499 -11.267  18.900  0.00  0.00    +0.123 C 
ATOM     15  C   UNL     1      -7.694 -10.539  15.004  0.00  0.00    +0.049 C 
ATOM     16  C   UNL     1      -6.024 -10.929  19.085  0.00  0.00    +0.032 C 
ATOM     17  C   UNL     1      -5.180  -9.432  16.421  0.00  0.00    +0.012 C 
ATOM     18  C   UNL     1      -5.545 -11.557  14.063  0.00  0.00    +0.058 A 
ATOM     20  C   UNL     1      -9.514 -11.311  17.414  0.00  0.00    +0.016 C 
ATOM     21  C   UNL     1      -6.805 -11.017  13.906  0.00  0.00    +0.015 A 
ATOM     24  C   UNL     1      -5.704 -11.652  11.875  0.00  0.00    +0.165 A 
ATOM     26  C   UNL     1      -4.305 -12.426   9.979  0.00  0.00    +0.250 C 
ATOM     42  H   UNL     1      -6.236 -11.598   9.943  0.00  0.00    +0.157 HD
ENDROOT
BRANCH  26  29
ATOM     29  C   UNL     1      -4.321 -12.561   8.498  0.00  0.00    +0.037 A 
ATOM     30  C   UNL     1      -3.956 -13.769   7.903  0.00  0.00    +0.013 A 
ATOM     31  C   UNL     1      -4.702 -11.480   7.703  0.00  0.00    +0.013 A 
ATOM     32  C   UNL     1      -4.354 -12.814   5.719  0.00  0.00    -0.042 A 
ATOM     33  C   UNL     1      -3.972 -13.895   6.514  0.00  0.00    +0.005 A 
ATOM     34  C   UNL     1      -4.719 -11.606   6.314  0.00  0.00    +0.005 A 
BRANCH  32  35
ATOM     35  C   UNL     1      -4.370 -12.948   4.235  0.00  0.00    -0.013 C 
ATOM     36  C   UNL     1      -5.502 -12.080   3.601  0.00  0.00    +0.015 C 
ATOM     37  C   UNL     1      -4.614 -14.427   3.803  0.00  0.00    +0.015 C 
ATOM     38  C   UNL     1      -3.055 -12.512   3.507  0.00  0.00    +0.015 C 
ENDBRANCH  32  35
ENDBRANCH  26  29
BRANCH  14   2
ATOM      2  O   UNL     1      -8.222 -10.804  20.040  0.00  0.00    -0.391 OA
ATOM     39  H   UNL     1      -8.673  -9.979  19.787  0.00  0.00    +0.210 HD
ENDBRANCH  14   2
BRANCH  11  19
ATOM     19  C   UNL     1      -8.340  -9.162  17.728  0.00  0.00    +0.165 C 
BRANCH  19   3
ATOM      3  O   UNL     1      -9.670  -8.969  18.155  0.00  0.00    -0.394 OA
ATOM     40  H   UNL     1      -9.644  -8.786  19.110  0.00  0.00    +0.209 HD
ENDBRANCH  19   3
ENDBRANCH  11  19
BRANCH  12  22
ATOM     22  C   UNL     1      -3.379 -11.591  15.340  0.00  0.00    +0.106 C 
BRANCH  22  23
ATOM      4  O   UNL     1      -1.685 -12.693  14.009  0.00  0.00    -0.276 OA
ATOM      7  N   UNL     1      -3.347 -13.959  15.027  0.00  0.00    -0.313 N 
ATOM     23  C   UNL     1      -2.691 -12.780  14.710  0.00  0.00    +0.214 C 
ATOM     41  H   UNL     1      -4.139 -13.925  15.665  0.00  0.00    +0.149 HD
BRANCH   7  25
ATOM     25  C   UNL     1      -2.914 -15.255  14.559  0.00  0.00    +0.067 C 
ATOM     27  C   UNL     1      -3.547 -15.570  13.209  0.00  0.00    +0.027 C 
ATOM     28  C   UNL     1      -3.241 -16.332  15.586  0.00  0.00    +0.027 C 
ENDBRANCH   7  25
ENDBRANCH  22  23
ENDBRANCH  12  22
TORSDOF 8
ENDMDL
MODEL 6
REMARK VINA RESULT:      -6.4     25.265     28.817
REMARK  Name = 7135055
REMARK  15 active torsions:
REMARK  status: ('A' for Active; 'I' for Inactive)
REMARK    1  A    between atoms: O_2  and  C_14
REMARK    2  A    between atoms: O_3  and  C_19
REMARK    3  A    between atoms: N_7  and  C_25
REMARK    4  A    between atoms: C_9  and  C_17
REMARK    5  A    between atoms: C_11  and  C_19
REMARK    6  A    between atoms: C_11  and  C_20
REMARK    7  A    between atoms: C_12  and  C_22
REMARK    8  A    between atoms: C_22  and  C_23
REMARK    9  A    between atoms: C_25  and  C_27
REMARK   10  A    between atoms: C_25  and  C_28
REMARK   11  A    between atoms: C_26  and  C_29
REMARK   12  A    between atoms: C_32  and  C_35
REMARK   13  A    between atoms: C_35  and  C_36
REMARK   14  A    between atoms: C_35  and  C_37
REMARK   15  A    between atoms: C_35  and  C_38
REMARK                            x       y       z     vdW  Elec       q    Type
REMARK                         _______ _______ _______ _____ _____    ______ ____
ROOT
ATOM      1  S   UNL     1      20.150  -7.295  -0.781  0.00  0.00    -0.057 S 
ATOM      5  O   UNL     1      16.968 -10.473  -1.985  0.00  0.00    -0.270 OA
ATOM      6  N   UNL     1      19.067  -9.549  -0.118  0.00  0.00    -0.229 NA
ATOM      8  N   UNL     1      18.254  -8.502  -2.131  0.00  0.00    -0.261 N 
ATOM      9  C   UNL     1      21.660  -9.809   2.725  0.00  0.00    -0.019 C 
ATOM     10  C   UNL     1      21.744  -8.228   2.899  0.00  0.00    +0.011 C 
ATOM     11  C   UNL     1      22.813  -7.677   3.920  0.00  0.00    +0.021 C 
ATOM     12  C   UNL     1      20.270 -10.154   2.016  0.00  0.00    +0.054 C 
ATOM     13  C   UNL     1      21.677 -10.483   4.121  0.00  0.00    +0.010 C 
ATOM     14  C   UNL     1      22.725  -8.491   5.242  0.00  0.00    +0.123 C 
ATOM     15  C   UNL     1      21.762  -7.504   1.521  0.00  0.00    +0.049 C 
ATOM     16  C   UNL     1      22.800  -9.998   5.027  0.00  0.00    +0.032 C 
ATOM     17  C   UNL     1      22.825 -10.384   1.881  0.00  0.00    +0.012 C 
ATOM     18  C   UNL     1      20.026  -9.252   0.833  0.00  0.00    +0.058 A 
ATOM     20  C   UNL     1      22.470  -6.200   4.262  0.00  0.00    +0.016 C 
ATOM     21  C   UNL     1      20.694  -8.060   0.640  0.00  0.00    +0.015 A 
ATOM     24  C   UNL     1      19.050  -8.592  -1.020  0.00  0.00    +0.165 A 
ATOM     26  C   UNL     1      17.280  -9.427  -2.543  0.00  0.00    +0.250 C 
ATOM     42  H   UNL     1      18.390  -7.646  -2.660  0.00  0.00    +0.157 HD
ENDROOT
BRANCH  26  29
ATOM     29  C   UNL     1      16.538  -9.060  -3.779  0.00  0.00    +0.037 A 
ATOM     30  C   UNL     1      17.153  -9.188  -5.025  0.00  0.00    +0.013 A 
ATOM     31  C   UNL     1      15.228  -8.590  -3.693  0.00  0.00    +0.013 A 
ATOM     32  C   UNL     1      15.146  -8.375  -6.098  0.00  0.00    -0.042 A 
ATOM     33  C   UNL     1      16.457  -8.845  -6.184  0.00  0.00    +0.005 A 
ATOM     34  C   UNL     1      14.532  -8.247  -4.852  0.00  0.00    +0.005 A 
BRANCH  32  35
ATOM     35  C   UNL     1      14.402  -8.007  -7.336  0.00  0.00    -0.013 C 
ATOM     36  C   UNL     1      12.888  -7.772  -7.038  0.00  0.00    +0.015 C 
ATOM     37  C   UNL     1      14.500  -9.133  -8.411  0.00  0.00    +0.015 C 
ATOM     38  C   UNL     1      14.892  -6.704  -8.052  0.00  0.00    +0.015 C 
ENDBRANCH  32  35
ENDBRANCH  26  29
BRANCH  14   2
ATOM      2  O   UNL     1      23.764  -8.103   6.140  0.00  0.00    -0.391 OA
ATOM     39  H   UNL     1      24.310  -7.435   5.689  0.00  0.00    +0.210 HD
ENDBRANCH  14   2
BRANCH  11  19
ATOM     19  C   UNL     1      24.260  -7.654   3.383  0.00  0.00    +0.165 C 
BRANCH  19   3
ATOM      3  O   UNL     1      24.799  -6.378   3.648  0.00  0.00    -0.394 OA
ATOM     40  H   UNL     1      24.177  -5.918   4.237  0.00  0.00    +0.209 HD
ENDBRANCH  19   3
ENDBRANCH  11  19
BRANCH  12  22
ATOM     22  C   UNL     1      20.094 -11.632   1.642  0.00  0.00    +0.106 C 
BRANCH  22  23
ATOM      4  O   UNL     1      18.670 -12.547   3.371  0.00  0.00    -0.276 OA
ATOM      7  N   UNL     1      17.841 -12.303   1.213  0.00  0.00    -0.313 N 
ATOM     23  C   UNL     1      18.813 -12.208   2.198  0.00  0.00    +0.214 C 
ATOM     41  H   UNL     1      18.045 -11.938   0.286  0.00  0.00    +0.149 HD
BRANCH   7  25
ATOM     25  C   UNL     1      16.516 -12.822   1.457  0.00  0.00    +0.067 C 
ATOM     27  C   UNL     1      16.011 -13.583   0.237  0.00  0.00    +0.027 C 
ATOM     28  C   UNL     1      15.562 -11.697   1.839  0.00  0.00    +0.027 C 
ENDBRANCH   7  25
ENDBRANCH  22  23
ENDBRANCH  12  22
TORSDOF 8
ENDMDL
MODEL 7
REMARK VINA RESULT:      -6.2     29.900     32.993
REMARK  Name = 7135055
REMARK  15 active torsions:
REMARK  status: ('A' for Active; 'I' for Inactive)
REMARK    1  A    between atoms: O_2  and  C_14
REMARK    2  A    between atoms: O_3  and  C_19
REMARK    3  A    between atoms: N_7  and  C_25
REMARK    4  A    between atoms: C_9  and  C_17
REMARK    5  A    between atoms: C_11  and  C_19
REMARK    6  A    between atoms: C_11  and  C_20
REMARK    7  A    between atoms: C_12  and  C_22
REMARK    8  A    between atoms: C_22  and  C_23
REMARK    9  A    between atoms: C_25  and  C_27
REMARK   10  A    between atoms: C_25  and  C_28
REMARK   11  A    between atoms: C_26  and  C_29
REMARK   12  A    between atoms: C_32  and  C_35
REMARK   13  A    between atoms: C_35  and  C_36
REMARK   14  A    between atoms: C_35  and  C_37
REMARK   15  A    between atoms: C_35  and  C_38
REMARK                            x       y       z     vdW  Elec       q    Type
REMARK                         _______ _______ _______ _____ _____    ______ ____
ROOT
ATOM      1  S   UNL     1      -8.263 -10.371  12.986  0.00  0.00    -0.057 S 
ATOM      5  O   UNL     1      -4.839 -10.808   9.861  0.00  0.00    -0.270 OA
ATOM      6  N   UNL     1      -5.742 -10.864  12.677  0.00  0.00    -0.229 NA
ATOM      8  N   UNL     1      -7.017 -10.427  10.679  0.00  0.00    -0.261 N 
ATOM      9  C   UNL     1      -5.403 -10.857  16.518  0.00  0.00    -0.019 C 
ATOM     10  C   UNL     1      -6.887 -11.397  16.729  0.00  0.00    +0.011 C 
ATOM     11  C   UNL     1      -7.408 -11.496  18.214  0.00  0.00    +0.021 C 
ATOM     12  C   UNL     1      -4.942 -11.247  15.039  0.00  0.00    +0.054 C 
ATOM     13  C   UNL     1      -4.454 -11.554  17.526  0.00  0.00    +0.010 C 
ATOM     14  C   UNL     1      -6.320 -12.174  19.094  0.00  0.00    +0.123 C 
ATOM     15  C   UNL     1      -7.888 -10.703  15.759  0.00  0.00    +0.049 C 
ATOM     16  C   UNL     1      -4.949 -11.520  18.966  0.00  0.00    +0.032 C 
ATOM     17  C   UNL     1      -5.289  -9.324  16.706  0.00  0.00    +0.012 C 
ATOM     18  C   UNL     1      -6.014 -10.916  14.032  0.00  0.00    +0.058 A 
ATOM     20  C   UNL     1      -8.666 -12.409  18.249  0.00  0.00    +0.016 C 
ATOM     21  C   UNL     1      -7.332 -10.693  14.375  0.00  0.00    +0.015 A 
ATOM     24  C   UNL     1      -6.851 -10.578  12.030  0.00  0.00    +0.165 A 
ATOM     26  C   UNL     1      -6.025 -10.547   9.691  0.00  0.00    +0.250 C 
ATOM     42  H   UNL     1      -7.979 -10.248  10.406  0.00  0.00    +0.157 HD
ENDROOT
BRANCH  26  29
ATOM     29  C   UNL     1      -6.494 -10.361   8.293  0.00  0.00    +0.037 A 
ATOM     30  C   UNL     1      -5.571 -10.308   7.248  0.00  0.00    +0.013 A 
ATOM     31  C   UNL     1      -7.858 -10.241   8.025  0.00  0.00    +0.013 A 
ATOM     32  C   UNL     1      -7.375 -10.015   5.668  0.00  0.00    -0.042 A 
ATOM     33  C   UNL     1      -6.012 -10.135   5.936  0.00  0.00    +0.005 A 
ATOM     34  C   UNL     1      -8.299 -10.067   6.713  0.00  0.00    +0.005 A 
BRANCH  32  35
ATOM     35  C   UNL     1      -7.847  -9.828   4.266  0.00  0.00    -0.013 C 
ATOM     36  C   UNL     1      -7.220 -10.892   3.312  0.00  0.00    +0.015 C 
ATOM     37  C   UNL     1      -7.457  -8.419   3.721  0.00  0.00    +0.015 C 
ATOM     38  C   UNL     1      -9.394  -9.942   4.057  0.00  0.00    +0.015 C 
ENDBRANCH  32  35
ENDBRANCH  26  29
BRANCH  14   2
ATOM      2  O   UNL     1      -6.706 -12.164  20.468  0.00  0.00    -0.391 OA
ATOM     39  H   UNL     1      -5.897 -12.246  21.002  0.00  0.00    +0.210 HD
ENDBRANCH  14   2
BRANCH  11  19
ATOM     19  C   UNL     1      -7.853 -10.151  18.829  0.00  0.00    +0.165 C 
BRANCH  19   3
ATOM      3  O   UNL     1      -8.740 -10.433  19.888  0.00  0.00    -0.394 OA
ATOM     40  H   UNL     1      -8.276 -10.228  20.718  0.00  0.00    +0.209 HD
ENDBRANCH  19   3
ENDBRANCH  11  19
BRANCH  12  22
ATOM     22  C   UNL     1      -3.582 -10.671  14.622  0.00  0.00    +0.106 C 
BRANCH  22  23
ATOM      4  O   UNL     1      -1.396 -11.669  14.914  0.00  0.00    -0.276 OA
ATOM      7  N   UNL     1      -3.035 -12.822  13.737  0.00  0.00    -0.313 N 
ATOM     23  C   UNL     1      -2.536 -11.750  14.460  0.00  0.00    +0.214 C 
ATOM     41  H   UNL     1      -4.013 -12.813  13.458  0.00  0.00    +0.149 HD
BRANCH   7  25
ATOM     25  C   UNL     1      -2.255 -13.997  13.424  0.00  0.00    +0.067 C 
ATOM     27  C   UNL     1      -2.582 -14.493  12.021  0.00  0.00    +0.027 C 
ATOM     28  C   UNL     1      -2.490 -15.087  14.463  0.00  0.00    +0.027 C 
ENDBRANCH   7  25
ENDBRANCH  22  23
ENDBRANCH  12  22
TORSDOF 8
ENDMDL
MODEL 8
REMARK VINA RESULT:      -6.2     17.446     22.591
REMARK  Name = 7135055
REMARK  15 active torsions:
REMARK  status: ('A' for Active; 'I' for Inactive)
REMARK    1  A    between atoms: O_2  and  C_14
REMARK    2  A    between atoms: O_3  and  C_19
REMARK    3  A    between atoms: N_7  and  C_25
REMARK    4  A    between atoms: C_9  and  C_17
REMARK    5  A    between atoms: C_11  and  C_19
REMARK    6  A    between atoms: C_11  and  C_20
REMARK    7  A    between atoms: C_12  and  C_22
REMARK    8  A    between atoms: C_22  and  C_23
REMARK    9  A    between atoms: C_25  and  C_27
REMARK   10  A    between atoms: C_25  and  C_28
REMARK   11  A    between atoms: C_26  and  C_29
REMARK   12  A    between atoms: C_32  and  C_35
REMARK   13  A    between atoms: C_35  and  C_36
REMARK   14  A    between atoms: C_35  and  C_37
REMARK   15  A    between atoms: C_35  and  C_38
REMARK                            x       y       z     vdW  Elec       q    Type
REMARK                         _______ _______ _______ _____ _____    ______ ____
ROOT
ATOM      1  S   UNL     1       8.864   8.819   0.632  0.00  0.00    -0.057 S 
ATOM      5  O   UNL     1       7.446   9.239   5.046  0.00  0.00    -0.270 OA
ATOM      6  N   UNL     1       9.113   7.868   3.024  0.00  0.00    -0.229 NA
ATOM      8  N   UNL     1       7.586   9.711   2.741  0.00  0.00    -0.261 N 
ATOM      9  C   UNL     1      11.335   5.084   1.546  0.00  0.00    -0.019 C 
ATOM     10  C   UNL     1      11.882   6.028   0.386  0.00  0.00    +0.011 C 
ATOM     11  C   UNL     1      12.818   5.363  -0.696  0.00  0.00    +0.021 C 
ATOM     12  C   UNL     1      10.801   6.016   2.729  0.00  0.00    +0.054 C 
ATOM     13  C   UNL     1      12.496   4.215   2.094  0.00  0.00    +0.010 C 
ATOM     14  C   UNL     1      13.891   4.496   0.020  0.00  0.00    +0.123 C 
ATOM     15  C   UNL     1      10.744   6.901  -0.221  0.00  0.00    +0.049 C 
ATOM     16  C   UNL     1      13.298   3.503   1.013  0.00  0.00    +0.032 C 
ATOM     17  C   UNL     1      10.195   4.149   1.073  0.00  0.00    +0.012 C 
ATOM     18  C   UNL     1       9.937   7.129   2.195  0.00  0.00    +0.058 A 
ATOM     20  C   UNL     1      13.569   6.482  -1.471  0.00  0.00    +0.016 C 
ATOM     21  C   UNL     1       9.940   7.522   0.872  0.00  0.00    +0.015 A 
ATOM     24  C   UNL     1       8.494   8.780   2.308  0.00  0.00    +0.165 A 
ATOM     26  C   UNL     1       7.122   9.885   4.055  0.00  0.00    +0.250 C 
ATOM     42  H   UNL     1       7.273  10.342   2.010  0.00  0.00    +0.157 HD
ENDROOT
BRANCH  26  29
ATOM     29  C   UNL     1       6.156  10.998   4.247  0.00  0.00    +0.037 A 
ATOM     30  C   UNL     1       4.889  10.931   3.666  0.00  0.00    +0.013 A 
ATOM     31  C   UNL     1       6.516  12.111   5.007  0.00  0.00    +0.013 A 
ATOM     32  C   UNL     1       4.343  13.088   4.608  0.00  0.00    -0.042 A 
ATOM     33  C   UNL     1       3.983  11.975   3.847  0.00  0.00    +0.005 A 
ATOM     34  C   UNL     1       5.610  13.156   5.188  0.00  0.00    +0.005 A 
BRANCH  32  35
ATOM     35  C   UNL     1       3.375  14.206   4.800  0.00  0.00    -0.013 C 
ATOM     36  C   UNL     1       1.977  13.674   5.244  0.00  0.00    +0.015 C 
ATOM     37  C   UNL     1       3.173  15.013   3.480  0.00  0.00    +0.015 C 
ATOM     38  C   UNL     1       3.779  15.265   5.879  0.00  0.00    +0.015 C 
ENDBRANCH  32  35
ENDBRANCH  26  29
BRANCH  14   2
ATOM      2  O   UNL     1      14.675   3.778  -0.933  0.00  0.00    -0.391 OA
ATOM     39  H   UNL     1      14.694   2.845  -0.657  0.00  0.00    +0.210 HD
ENDBRANCH  14   2
BRANCH  11  19
ATOM     19  C   UNL     1      12.073   4.542  -1.770  0.00  0.00    +0.165 C 
BRANCH  19   3
ATOM      3  O   UNL     1      12.850   4.564  -2.946  0.00  0.00    -0.394 OA
ATOM     40  H   UNL     1      12.765   3.692  -3.367  0.00  0.00    +0.209 HD
ENDBRANCH  19   3
ENDBRANCH  11  19
BRANCH  12  22
ATOM     22  C   UNL     1      10.104   5.262   3.870  0.00  0.00    +0.106 C 
BRANCH  22  23
ATOM      4  O   UNL     1      11.683   6.278   5.397  0.00  0.00    -0.276 OA
ATOM      7  N   UNL     1       9.746   5.303   6.232  0.00  0.00    -0.313 N 
ATOM     23  C   UNL     1      10.622   5.682   5.227  0.00  0.00    +0.214 C 
ATOM     41  H   UNL     1       8.864   4.865   5.976  0.00  0.00    +0.149 HD
BRANCH   7  25
ATOM     25  C   UNL     1       9.985   5.571   7.631  0.00  0.00    +0.067 C 
ATOM     27  C   UNL     1       9.729   4.319   8.462  0.00  0.00    +0.027 C 
ATOM     28  C   UNL     1       9.124   6.734   8.108  0.00  0.00    +0.027 C 
ENDBRANCH   7  25
ENDBRANCH  22  23
ENDBRANCH  12  22
TORSDOF 8
ENDMDL
MODEL 9
REMARK VINA RESULT:      -6.1      2.986     10.264
REMARK  Name = 7135055
REMARK  15 active torsions:
REMARK  status: ('A' for Active; 'I' for Inactive)
REMARK    1  A    between atoms: O_2  and  C_14
REMARK    2  A    between atoms: O_3  and  C_19
REMARK    3  A    between atoms: N_7  and  C_25
REMARK    4  A    between atoms: C_9  and  C_17
REMARK    5  A    between atoms: C_11  and  C_19
REMARK    6  A    between atoms: C_11  and  C_20
REMARK    7  A    between atoms: C_12  and  C_22
REMARK    8  A    between atoms: C_22  and  C_23
REMARK    9  A    between atoms: C_25  and  C_27
REMARK   10  A    between atoms: C_25  and  C_28
REMARK   11  A    between atoms: C_26  and  C_29
REMARK   12  A    between atoms: C_32  and  C_35
REMARK   13  A    between atoms: C_35  and  C_36
REMARK   14  A    between atoms: C_35  and  C_37
REMARK   15  A    between atoms: C_35  and  C_38
REMARK                            x       y       z     vdW  Elec       q    Type
REMARK                         _______ _______ _______ _____ _____    ______ ____
ROOT
ATOM      1  S   UNL     1      20.273   4.323  20.464  0.00  0.00    -0.057 S 
ATOM      5  O   UNL     1      18.462   8.336  21.976  0.00  0.00    -0.270 OA
ATOM      6  N   UNL     1      20.616   6.312  22.081  0.00  0.00    -0.229 NA
ATOM      8  N   UNL     1      18.628   6.349  20.719  0.00  0.00    -0.261 N 
ATOM      9  C   UNL     1      23.684   4.458  23.503  0.00  0.00    -0.019 C 
ATOM     10  C   UNL     1      24.005   3.758  22.109  0.00  0.00    +0.011 C 
ATOM     11  C   UNL     1      25.178   2.704  22.092  0.00  0.00    +0.021 C 
ATOM     12  C   UNL     1      22.803   5.759  23.210  0.00  0.00    +0.054 C 
ATOM     13  C   UNL     1      25.009   4.906  24.173  0.00  0.00    +0.010 C 
ATOM     14  C   UNL     1      26.407   3.293  22.842  0.00  0.00    +0.123 C 
ATOM     15  C   UNL     1      22.706   3.262  21.410  0.00  0.00    +0.049 C 
ATOM     16  C   UNL     1      26.069   3.814  24.234  0.00  0.00    +0.032 C 
ATOM     17  C   UNL     1      22.921   3.531  24.481  0.00  0.00    +0.012 C 
ATOM     18  C   UNL     1      21.686   5.452  22.247  0.00  0.00    +0.058 A 
ATOM     20  C   UNL     1      25.612   2.453  20.620  0.00  0.00    +0.016 C 
ATOM     21  C   UNL     1      21.671   4.335  21.436  0.00  0.00    +0.015 A 
ATOM     24  C   UNL     1      19.805   5.815  21.173  0.00  0.00    +0.165 A 
ATOM     26  C   UNL     1      18.034   7.551  21.137  0.00  0.00    +0.250 C 
ATOM     42  H   UNL     1      18.194   5.804  19.980  0.00  0.00    +0.157 HD
ENDROOT
BRANCH  26  29
ATOM     29  C   UNL     1      16.764   7.905  20.450  0.00  0.00    +0.037 A 
ATOM     30  C   UNL     1      16.078   6.941  19.711  0.00  0.00    +0.013 A 
ATOM     31  C   UNL     1      16.257   9.201  20.545  0.00  0.00    +0.013 A 
ATOM     32  C   UNL     1      14.378   8.569  19.163  0.00  0.00    -0.042 A 
ATOM     33  C   UNL     1      14.886   7.273  19.068  0.00  0.00    +0.005 A 
ATOM     34  C   UNL     1      15.065   9.534  19.902  0.00  0.00    +0.005 A 
BRANCH  32  35
ATOM     35  C   UNL     1      13.105   8.925  18.474  0.00  0.00    -0.013 C 
ATOM     36  C   UNL     1      12.080   9.553  19.470  0.00  0.00    +0.015 C 
ATOM     37  C   UNL     1      12.435   7.668  17.839  0.00  0.00    +0.015 C 
ATOM     38  C   UNL     1      13.239   9.960  17.308  0.00  0.00    +0.015 C 
ENDBRANCH  32  35
ENDBRANCH  26  29
BRANCH  14   2
ATOM      2  O   UNL     1      27.441   2.317  22.956  0.00  0.00    -0.391 OA
ATOM     39  H   UNL     1      28.084   2.643  23.610  0.00  0.00    +0.210 HD
ENDBRANCH  14   2
BRANCH  11  19
ATOM     19  C   UNL     1      24.803   1.317  22.657  0.00  0.00    +0.165 C 
BRANCH  19   3
ATOM      3  O   UNL     1      25.559   0.350  21.964  0.00  0.00    -0.394 OA
ATOM     40  H   UNL     1      24.989  -0.428  21.837  0.00  0.00    +0.209 HD
ENDBRANCH  19   3
ENDBRANCH  11  19
BRANCH  12  22
ATOM     22  C   UNL     1      22.284   6.474  24.465  0.00  0.00    +0.106 C 
BRANCH  22  23
ATOM      4  O   UNL     1      23.594   8.476  24.830  0.00  0.00    -0.276 OA
ATOM      7  N   UNL     1      21.482   8.646  23.876  0.00  0.00    -0.313 N 
ATOM     23  C   UNL     1      22.555   7.960  24.424  0.00  0.00    +0.214 C 
ATOM     41  H   UNL     1      20.692   8.116  23.516  0.00  0.00    +0.149 HD
BRANCH   7  25
ATOM     25  C   UNL     1      21.460  10.081  23.715  0.00  0.00    +0.067 C 
ATOM     27  C   UNL     1      20.294  10.684  24.489  0.00  0.00    +0.027 C 
ATOM     28  C   UNL     1      21.393  10.453  22.239  0.00  0.00    +0.027 C 
ENDBRANCH   7  25
ENDBRANCH  22  23
ENDBRANCH  12  22
TORSDOF 8
ENDMDL
MODEL 10
REMARK VINA RESULT:      -6.1     15.737     19.361
REMARK  Name = 7135055
REMARK  15 active torsions:
REMARK  status: ('A' for Active; 'I' for Inactive)
REMARK    1  A    between atoms: O_2  and  C_14
REMARK    2  A    between atoms: O_3  and  C_19
REMARK    3  A    between atoms: N_7  and  C_25
REMARK    4  A    between atoms: C_9  and  C_17
REMARK    5  A    between atoms: C_11  and  C_19
REMARK    6  A    between atoms: C_11  and  C_20
REMARK    7  A    between atoms: C_12  and  C_22
REMARK    8  A    between atoms: C_22  and  C_23
REMARK    9  A    between atoms: C_25  and  C_27
REMARK   10  A    between atoms: C_25  and  C_28
REMARK   11  A    between atoms: C_26  and  C_29
REMARK   12  A    between atoms: C_32  and  C_35
REMARK   13  A    between atoms: C_35  and  C_36
REMARK   14  A    between atoms: C_35  and  C_37
REMARK   15  A    between atoms: C_35  and  C_38
REMARK                            x       y       z     vdW  Elec       q    Type
REMARK                         _______ _______ _______ _____ _____    ______ ____
ROOT
ATOM      1  S   UNL     1      10.802  10.119   3.046  0.00  0.00    -0.057 S 
ATOM      5  O   UNL     1      10.507   5.506   3.596  0.00  0.00    -0.270 OA
ATOM      6  N   UNL     1      10.321   8.227   4.742  0.00  0.00    -0.229 NA
ATOM      8  N   UNL     1      10.852   7.558   2.488  0.00  0.00    -0.261 N 
ATOM      9  C   UNL     1      10.149  10.918   7.499  0.00  0.00    -0.019 C 
ATOM     10  C   UNL     1       9.601  12.025   6.493  0.00  0.00    +0.011 C 
ATOM     11  C   UNL     1       9.434  13.486   7.061  0.00  0.00    +0.021 C 
ATOM     12  C   UNL     1       9.828   9.482   6.874  0.00  0.00    +0.054 C 
ATOM     13  C   UNL     1       9.404  11.038   8.853  0.00  0.00    +0.010 C 
ATOM     14  C   UNL     1       8.713  13.421   8.438  0.00  0.00    +0.123 C 
ATOM     15  C   UNL     1      10.341  11.965   5.124  0.00  0.00    +0.049 C 
ATOM     16  C   UNL     1       9.371  12.453   9.415  0.00  0.00    +0.032 C 
ATOM     17  C   UNL     1      11.671  11.038   7.755  0.00  0.00    +0.012 C 
ATOM     18  C   UNL     1      10.206   9.428   5.416  0.00  0.00    +0.058 A 
ATOM     20  C   UNL     1       8.521  14.301   6.101  0.00  0.00    +0.016 C 
ATOM     21  C   UNL     1      10.414  10.554   4.646  0.00  0.00    +0.015 A 
ATOM     24  C   UNL     1      10.639   8.468   3.489  0.00  0.00    +0.165 A 
ATOM     26  C   UNL     1      10.778   6.159   2.595  0.00  0.00    +0.250 C 
ATOM     42  H   UNL     1      11.045   7.984   1.587  0.00  0.00    +0.157 HD
ENDROOT
BRANCH  26  29
ATOM     29  C   UNL     1      11.029   5.411   1.335  0.00  0.00    +0.037 A 
ATOM     30  C   UNL     1      10.189   5.593   0.235  0.00  0.00    +0.013 A 
ATOM     31  C   UNL     1      12.105   4.528   1.250  0.00  0.00    +0.013 A 
ATOM     32  C   UNL     1      11.503   4.009  -1.031  0.00  0.00    -0.042 A 
ATOM     33  C   UNL     1      10.426   4.892  -0.947  0.00  0.00    +0.005 A 
ATOM     34  C   UNL     1      12.342   3.826   0.069  0.00  0.00    +0.005 A 
BRANCH  32  35
ATOM     35  C   UNL     1      11.755   3.258  -2.294  0.00  0.00    -0.013 C 
ATOM     36  C   UNL     1      11.743   1.717  -2.048  0.00  0.00    +0.015 C 
ATOM     37  C   UNL     1      13.144   3.626  -2.902  0.00  0.00    +0.015 C 
ATOM     38  C   UNL     1      10.719   3.505  -3.441  0.00  0.00    +0.015 C 
ENDBRANCH  32  35
ENDBRANCH  26  29
BRANCH  14   2
ATOM      2  O   UNL     1       8.660  14.714   9.039  0.00  0.00    -0.391 OA
ATOM     39  H   UNL     1       9.094  15.340   8.432  0.00  0.00    +0.210 HD
ENDBRANCH  14   2
BRANCH  11  19
ATOM     19  C   UNL     1      10.748  14.289   7.165  0.00  0.00    +0.165 C 
BRANCH  19   3
ATOM      3  O   UNL     1      10.510  15.578   6.647  0.00  0.00    -0.394 OA
ATOM     40  H   UNL     1      11.375  16.004   6.519  0.00  0.00    +0.209 HD
ENDBRANCH  19   3
ENDBRANCH  11  19
BRANCH  12  22
ATOM     22  C   UNL     1      10.420   8.300   7.653  0.00  0.00    +0.106 C 
BRANCH  22  23
ATOM      4  O   UNL     1       8.195   7.350   7.673  0.00  0.00    -0.276 OA
ATOM      7  N   UNL     1       9.982   6.102   8.481  0.00  0.00    -0.313 N 
ATOM     23  C   UNL     1       9.392   7.226   7.921  0.00  0.00    +0.214 C 
ATOM     41  H   UNL     1      10.993   6.081   8.590  0.00  0.00    +0.149 HD
BRANCH   7  25
ATOM     25  C   UNL     1       9.239   4.919   8.846  0.00  0.00    +0.067 C 
ATOM     27  C   UNL     1       9.361   4.656  10.342  0.00  0.00    +0.027 C 
ATOM     28  C   UNL     1       9.712   3.719   8.035  0.00  0.00    +0.027 C 
ENDBRANCH   7  25
ENDBRANCH  22  23
ENDBRANCH  12  22
TORSDOF 8
ENDMDL
