MODEL 1
REMARK VINA RESULT:      -7.6      0.000      0.000
REMARK  Name = 26745059
REMARK  9 active torsions:
REMARK  status: ('A' for Active; 'I' for Inactive)
REMARK    1  A    between atoms: O_4  and  C_24
REMARK    2  A    between atoms: C_11  and  C_13
REMARK    3  A    between atoms: C_11  and  C_19
REMARK    4  A    between atoms: C_11  and  C_20
REMARK    5  A    between atoms: C_11  and  C_21
REMARK    6  A    between atoms: C_12  and  C_22
REMARK    7  A    between atoms: C_13  and  C_16
REMARK    8  A    between atoms: C_19  and  C_24
REMARK    9  A    between atoms: C_25  and  C_26
REMARK                            x       y       z     vdW  Elec       q    Type
REMARK                         _______ _______ _______ _____ _____    ______ ____
ROOT
ATOM      2  O   UNL     1      13.393   9.477  22.810  0.00  0.00    -0.276 OA
ATOM      6  N   UNL     1      13.483   9.441  20.482  0.00  0.00    -0.284 N 
ATOM      7  N   UNL     1      12.532   9.991  16.916  0.00  0.00    -0.347 N 
ATOM      8  N   UNL     1      11.477   8.033  17.123  0.00  0.00    -0.240 NA
ATOM     12  C   UNL     1      13.371   7.943  20.419  0.00  0.00    +0.171 C 
ATOM     14  C   UNL     1      12.200   7.497  19.491  0.00  0.00    +0.089 C 
ATOM     15  C   UNL     1      13.651  10.180  19.199  0.00  0.00    +0.163 C 
ATOM     16  C   UNL     1      13.529  10.066  21.735  0.00  0.00    +0.217 C 
ATOM     17  C   UNL     1      12.811   9.535  18.170  0.00  0.00    +0.056 A 
ATOM     18  C   UNL     1      12.155   8.333  18.271  0.00  0.00    +0.066 A 
ATOM     23  C   UNL     1      11.725   9.052  16.324  0.00  0.00    +0.197 A 
ATOM     32  H   UNL     1      12.857  10.853  16.497  0.00  0.00    +0.167 HD
ENDROOT
BRANCH  12  22
ATOM      3  O   UNL     1      14.878   6.672  18.955  0.00  0.00    -0.336 OA
ATOM      9  N   UNL     1      15.807   7.293  20.895  0.00  0.00    -0.190 NA
ATOM     10  N   UNL     1      16.190   6.184  18.931  0.00  0.00    -0.056 NA
ATOM     22  C   UNL     1      14.735   7.312  20.145  0.00  0.00    +0.249 A 
ATOM     25  C   UNL     1      16.673   6.590  20.109  0.00  0.00    +0.202 A 
BRANCH  25  26
ATOM      1 CL   UNL     1      22.235   5.430  21.857  0.00  0.00    -0.084 Cl
ATOM     26  C   UNL     1      18.015   6.311  20.530  0.00  0.00    +0.023 A 
ATOM     27  C   UNL     1      18.773   5.354  19.855  0.00  0.00    +0.013 A 
ATOM     28  C   UNL     1      18.563   6.996  21.615  0.00  0.00    +0.013 A 
ATOM     29  C   UNL     1      20.078   5.081  20.265  0.00  0.00    +0.021 A 
ATOM     30  C   UNL     1      19.868   6.723  22.025  0.00  0.00    +0.021 A 
ATOM     31  C   UNL     1      20.626   5.766  21.350  0.00  0.00    +0.041 A 
ENDBRANCH  25  26
ENDBRANCH  12  22
BRANCH  16  13
ATOM     13  C   UNL     1      13.759  11.557  21.737  0.00  0.00    +0.103 C 
BRANCH  13  11
ATOM     11  C   UNL     1      12.513  12.355  22.166  0.00  0.00    -0.017 C 
ATOM     20  C   UNL     1      11.271  11.595  21.658  0.00  0.00    +0.012 C 
ATOM     21  C   UNL     1      12.517  13.746  21.494  0.00  0.00    +0.012 C 
BRANCH  11  19
ATOM     19  C   UNL     1      12.425  12.563  23.698  0.00  0.00    +0.127 C 
BRANCH  19  24
ATOM      5  O   UNL     1      10.168  12.359  24.547  0.00  0.00    -0.251 OA
ATOM     24  C   UNL     1      11.268  11.854  24.367  0.00  0.00    +0.305 C 
BRANCH  24   4
ATOM      4  O   UNL     1      11.578  10.593  24.758  0.00  0.00    -0.481 OA
ATOM     33  H   UNL     1      10.928   9.937  24.427  0.00  0.00    +0.295 HD
ENDBRANCH  24   4
ENDBRANCH  19  24
ENDBRANCH  11  19
ENDBRANCH  13  11
ENDBRANCH  16  13
TORSDOF 7
ENDMDL
MODEL 2
REMARK VINA RESULT:      -6.6     14.064     17.283
REMARK  Name = 26745059
REMARK  9 active torsions:
REMARK  status: ('A' for Active; 'I' for Inactive)
REMARK    1  A    between atoms: O_4  and  C_24
REMARK    2  A    between atoms: C_11  and  C_13
REMARK    3  A    between atoms: C_11  and  C_19
REMARK    4  A    between atoms: C_11  and  C_20
REMARK    5  A    between atoms: C_11  and  C_21
REMARK    6  A    between atoms: C_12  and  C_22
REMARK    7  A    between atoms: C_13  and  C_16
REMARK    8  A    between atoms: C_19  and  C_24
REMARK    9  A    between atoms: C_25  and  C_26
REMARK                            x       y       z     vdW  Elec       q    Type
REMARK                         _______ _______ _______ _____ _____    ______ ____
ROOT
ATOM      2  O   UNL     1       9.496   7.005   3.131  0.00  0.00    -0.276 OA
ATOM      6  N   UNL     1      10.142   6.067   5.164  0.00  0.00    -0.284 N 
ATOM      7  N   UNL     1      10.068   3.980   8.256  0.00  0.00    -0.347 N 
ATOM      8  N   UNL     1       9.012   5.733   9.151  0.00  0.00    -0.240 NA
ATOM     12  C   UNL     1      10.063   7.381   5.889  0.00  0.00    +0.171 C 
ATOM     14  C   UNL     1       9.152   7.282   7.151  0.00  0.00    +0.089 C 
ATOM     15  C   UNL     1      10.605   4.877   5.931  0.00  0.00    +0.163 C 
ATOM     16  C   UNL     1       9.880   6.034   3.788  0.00  0.00    +0.217 C 
ATOM     17  C   UNL     1      10.042   4.945   7.294  0.00  0.00    +0.056 A 
ATOM     18  C   UNL     1       9.392   6.010   7.868  0.00  0.00    +0.066 A 
ATOM     23  C   UNL     1       9.435   4.501   9.356  0.00  0.00    +0.197 A 
ATOM     32  H   UNL     1      10.476   3.057   8.179  0.00  0.00    +0.167 HD
ENDROOT
BRANCH  12  22
ATOM      3  O   UNL     1      11.603   8.825   7.143  0.00  0.00    -0.336 OA
ATOM      9  N   UNL     1      12.557   7.759   5.420  0.00  0.00    -0.190 NA
ATOM     10  N   UNL     1      12.946   9.221   7.136  0.00  0.00    -0.056 NA
ATOM     22  C   UNL     1      11.458   7.964   6.101  0.00  0.00    +0.249 A 
ATOM     25  C   UNL     1      13.442   8.551   6.092  0.00  0.00    +0.202 A 
BRANCH  25  26
ATOM      1 CL   UNL     1      19.138   8.960   4.440  0.00  0.00    -0.084 Cl
ATOM     26  C   UNL     1      14.816   8.648   5.694  0.00  0.00    +0.023 A 
ATOM     27  C   UNL     1      15.655   9.580   6.307  0.00  0.00    +0.013 A 
ATOM     28  C   UNL     1      15.315   7.813   4.694  0.00  0.00    +0.013 A 
ATOM     29  C   UNL     1      16.991   9.676   5.919  0.00  0.00    +0.021 A 
ATOM     30  C   UNL     1      16.652   7.910   4.307  0.00  0.00    +0.021 A 
ATOM     31  C   UNL     1      17.490   8.841   4.919  0.00  0.00    +0.041 A 
ENDBRANCH  25  26
ENDBRANCH  12  22
BRANCH  16  13
ATOM     13  C   UNL     1      10.090   4.712   3.092  0.00  0.00    +0.103 C 
BRANCH  13  11
ATOM     11  C   UNL     1      11.301   4.723   2.138  0.00  0.00    -0.017 C 
ATOM     20  C   UNL     1      12.290   5.791   2.647  0.00  0.00    +0.012 C 
ATOM     21  C   UNL     1      10.853   5.139   0.720  0.00  0.00    +0.012 C 
BRANCH  11  19
ATOM     19  C   UNL     1      12.003   3.347   2.035  0.00  0.00    +0.127 C 
BRANCH  19  24
ATOM      5  O   UNL     1      13.374   3.477   0.045  0.00  0.00    -0.251 OA
ATOM     24  C   UNL     1      13.302   3.356   1.261  0.00  0.00    +0.305 C 
BRANCH  24   4
ATOM      4  O   UNL     1      14.391   3.208   2.057  0.00  0.00    -0.481 OA
ATOM     33  H   UNL     1      15.194   3.601   1.653  0.00  0.00    +0.295 HD
ENDBRANCH  24   4
ENDBRANCH  19  24
ENDBRANCH  11  19
ENDBRANCH  13  11
ENDBRANCH  16  13
TORSDOF 7
ENDMDL
MODEL 3
REMARK VINA RESULT:      -6.5     27.818     29.466
REMARK  Name = 26745059
REMARK  9 active torsions:
REMARK  status: ('A' for Active; 'I' for Inactive)
REMARK    1  A    between atoms: O_4  and  C_24
REMARK    2  A    between atoms: C_11  and  C_13
REMARK    3  A    between atoms: C_11  and  C_19
REMARK    4  A    between atoms: C_11  and  C_20
REMARK    5  A    between atoms: C_11  and  C_21
REMARK    6  A    between atoms: C_12  and  C_22
REMARK    7  A    between atoms: C_13  and  C_16
REMARK    8  A    between atoms: C_19  and  C_24
REMARK    9  A    between atoms: C_25  and  C_26
REMARK                            x       y       z     vdW  Elec       q    Type
REMARK                         _______ _______ _______ _____ _____    ______ ____
ROOT
ATOM      2  O   UNL     1      -3.996 -10.327  17.427  0.00  0.00    -0.276 OA
ATOM      6  N   UNL     1      -3.961 -12.038  15.846  0.00  0.00    -0.284 N 
ATOM      7  N   UNL     1      -3.196 -15.306  14.216  0.00  0.00    -0.347 N 
ATOM      8  N   UNL     1      -1.398 -14.241  13.424  0.00  0.00    -0.240 NA
ATOM     12  C   UNL     1      -3.201 -11.210  14.847  0.00  0.00    +0.171 C 
ATOM     14  C   UNL     1      -1.914 -11.945  14.361  0.00  0.00    +0.089 C 
ATOM     15  C   UNL     1      -4.381 -13.408  15.437  0.00  0.00    +0.163 C 
ATOM     16  C   UNL     1      -4.331 -11.458  17.067  0.00  0.00    +0.217 C 
ATOM     17  C   UNL     1      -3.300 -14.012  14.634  0.00  0.00    +0.056 A 
ATOM     18  C   UNL     1      -2.188 -13.381  14.134  0.00  0.00    +0.066 A 
ATOM     23  C   UNL     1      -2.034 -15.395  13.491  0.00  0.00    +0.197 A 
ATOM     32  H   UNL     1      -3.848 -16.057  14.399  0.00  0.00    +0.167 HD
ENDROOT
BRANCH  12  22
ATOM      3  O   UNL     1      -5.259 -10.046  14.184  0.00  0.00    -0.336 OA
ATOM      9  N   UNL     1      -4.019 -10.754  12.459  0.00  0.00    -0.190 NA
ATOM     10  N   UNL     1      -5.947  -9.661  13.027  0.00  0.00    -0.056 NA
ATOM     22  C   UNL     1      -4.136 -10.684  13.761  0.00  0.00    +0.249 A 
ATOM     25  C   UNL     1      -5.154 -10.114  12.052  0.00  0.00    +0.202 A 
BRANCH  25  26
ATOM      1 CL   UNL     1      -6.437  -9.393   6.292  0.00  0.00    -0.084 Cl
ATOM     26  C   UNL     1      -5.463  -9.941  10.662  0.00  0.00    +0.023 A 
ATOM     27  C   UNL     1      -4.435  -9.771   9.735  0.00  0.00    +0.013 A 
ATOM     28  C   UNL     1      -6.792  -9.942  10.238  0.00  0.00    +0.013 A 
ATOM     29  C   UNL     1      -4.736  -9.602   8.383  0.00  0.00    +0.021 A 
ATOM     30  C   UNL     1      -7.093  -9.773   8.886  0.00  0.00    +0.021 A 
ATOM     31  C   UNL     1      -6.065  -9.603   7.959  0.00  0.00    +0.041 A 
ENDBRANCH  25  26
ENDBRANCH  12  22
BRANCH  16  13
ATOM     13  C   UNL     1      -5.192 -12.296  17.978  0.00  0.00    +0.103 C 
BRANCH  13  11
ATOM     11  C   UNL     1      -6.601 -11.704  18.182  0.00  0.00    -0.017 C 
ATOM     20  C   UNL     1      -6.497 -10.606  19.260  0.00  0.00    +0.012 C 
ATOM     21  C   UNL     1      -7.560 -12.791  18.714  0.00  0.00    +0.012 C 
BRANCH  11  19
ATOM     19  C   UNL     1      -7.208 -11.123  16.882  0.00  0.00    +0.127 C 
BRANCH  19  24
ATOM      5  O   UNL     1      -8.453  -9.121  17.426  0.00  0.00    -0.251 OA
ATOM     24  C   UNL     1      -7.466  -9.634  16.914  0.00  0.00    +0.305 C 
BRANCH  24   4
ATOM      4  O   UNL     1      -6.489  -8.916  16.307  0.00  0.00    -0.481 OA
ATOM     33  H   UNL     1      -5.988  -8.366  16.947  0.00  0.00    +0.295 HD
ENDBRANCH  24   4
ENDBRANCH  19  24
ENDBRANCH  11  19
ENDBRANCH  13  11
ENDBRANCH  16  13
TORSDOF 7
ENDMDL
MODEL 4
REMARK VINA RESULT:      -6.5     14.547     18.229
REMARK  Name = 26745059
REMARK  9 active torsions:
REMARK  status: ('A' for Active; 'I' for Inactive)
REMARK    1  A    between atoms: O_4  and  C_24
REMARK    2  A    between atoms: C_11  and  C_13
REMARK    3  A    between atoms: C_11  and  C_19
REMARK    4  A    between atoms: C_11  and  C_20
REMARK    5  A    between atoms: C_11  and  C_21
REMARK    6  A    between atoms: C_12  and  C_22
REMARK    7  A    between atoms: C_13  and  C_16
REMARK    8  A    between atoms: C_19  and  C_24
REMARK    9  A    between atoms: C_25  and  C_26
REMARK                            x       y       z     vdW  Elec       q    Type
REMARK                         _______ _______ _______ _____ _____    ______ ____
ROOT
ATOM      2  O   UNL     1      10.962   9.714   4.781  0.00  0.00    -0.276 OA
ATOM      6  N   UNL     1      10.075   7.883   5.917  0.00  0.00    -0.284 N 
ATOM      7  N   UNL     1       8.641   5.806   8.665  0.00  0.00    -0.347 N 
ATOM      8  N   UNL     1      10.776   5.338   9.129  0.00  0.00    -0.240 NA
ATOM     12  C   UNL     1      11.350   7.094   5.805  0.00  0.00    +0.171 C 
ATOM     14  C   UNL     1      11.834   6.594   7.201  0.00  0.00    +0.089 C 
ATOM     15  C   UNL     1       8.905   7.226   6.565  0.00  0.00    +0.163 C 
ATOM     16  C   UNL     1      10.008   9.150   5.323  0.00  0.00    +0.217 C 
ATOM     17  C   UNL     1       9.388   6.420   7.704  0.00  0.00    +0.056 A 
ATOM     18  C   UNL     1      10.691   6.116   8.009  0.00  0.00    +0.066 A 
ATOM     23  C   UNL     1       9.522   5.168   9.501  0.00  0.00    +0.197 A 
ATOM     32  H   UNL     1       7.633   5.814   8.749  0.00  0.00    +0.167 HD
ENDROOT
BRANCH  12  22
ATOM      3  O   UNL     1      10.551   4.908   5.022  0.00  0.00    -0.336 OA
ATOM      9  N   UNL     1      11.705   6.057   3.485  0.00  0.00    -0.190 NA
ATOM     10  N   UNL     1      10.581   4.104   3.875  0.00  0.00    -0.056 NA
ATOM     22  C   UNL     1      11.236   6.039   4.707  0.00  0.00    +0.249 A 
ATOM     25  C   UNL     1      11.279   4.850   3.014  0.00  0.00    +0.202 A 
BRANCH  25  26
ATOM      1 CL   UNL     1      12.466   3.061  -2.529  0.00  0.00    -0.084 Cl
ATOM     26  C   UNL     1      11.567   4.419   1.677  0.00  0.00    +0.023 A 
ATOM     27  C   UNL     1      10.697   4.748   0.637  0.00  0.00    +0.013 A 
ATOM     28  C   UNL     1      12.715   3.671   1.415  0.00  0.00    +0.013 A 
ATOM     29  C   UNL     1      10.975   4.328  -0.664  0.00  0.00    +0.021 A 
ATOM     30  C   UNL     1      12.993   3.251   0.115  0.00  0.00    +0.021 A 
ATOM     31  C   UNL     1      12.123   3.579  -0.925  0.00  0.00    +0.041 A 
ENDBRANCH  25  26
ENDBRANCH  12  22
BRANCH  16  13
ATOM     13  C   UNL     1       8.669   9.844   5.365  0.00  0.00    +0.103 C 
BRANCH  13  11
ATOM     11  C   UNL     1       7.952   9.845   4.001  0.00  0.00    -0.017 C 
ATOM     20  C   UNL     1       8.525  11.012   3.171  0.00  0.00    +0.012 C 
ATOM     21  C   UNL     1       6.443  10.109   4.196  0.00  0.00    +0.012 C 
BRANCH  11  19
ATOM     19  C   UNL     1       8.110   8.511   3.232  0.00  0.00    +0.127 C 
BRANCH  19  24
ATOM      5  O   UNL     1       8.383   8.908   0.861  0.00  0.00    -0.251 OA
ATOM     24  C   UNL     1       8.885   8.615   1.938  0.00  0.00    +0.305 C 
BRANCH  24   4
ATOM      4  O   UNL     1      10.205   8.340   2.090  0.00  0.00    -0.481 OA
ATOM     33  H   UNL     1      10.350   7.505   2.585  0.00  0.00    +0.295 HD
ENDBRANCH  24   4
ENDBRANCH  19  24
ENDBRANCH  11  19
ENDBRANCH  13  11
ENDBRANCH  16  13
TORSDOF 7
ENDMDL
MODEL 5
REMARK VINA RESULT:      -6.5     25.627     27.856
REMARK  Name = 26745059
REMARK  9 active torsions:
REMARK  status: ('A' for Active; 'I' for Inactive)
REMARK    1  A    between atoms: O_4  and  C_24
REMARK    2  A    between atoms: C_11  and  C_13
REMARK    3  A    between atoms: C_11  and  C_19
REMARK    4  A    between atoms: C_11  and  C_20
REMARK    5  A    between atoms: C_11  and  C_21
REMARK    6  A    between atoms: C_12  and  C_22
REMARK    7  A    between atoms: C_13  and  C_16
REMARK    8  A    between atoms: C_19  and  C_24
REMARK    9  A    between atoms: C_25  and  C_26
REMARK                            x       y       z     vdW  Elec       q    Type
REMARK                         _______ _______ _______ _____ _____    ______ ____
ROOT
ATOM      2  O   UNL     1     -13.856  10.676  19.107  0.00  0.00    -0.276 OA
ATOM      6  N   UNL     1     -13.292   8.912  20.522  0.00  0.00    -0.284 N 
ATOM      7  N   UNL     1     -13.021   5.454  21.897  0.00  0.00    -0.347 N 
ATOM      8  N   UNL     1     -14.949   5.943  22.914  0.00  0.00    -0.240 NA
ATOM     12  C   UNL     1     -14.142   9.436  21.647  0.00  0.00    +0.171 C 
ATOM     14  C   UNL     1     -15.141   8.353  22.158  0.00  0.00    +0.089 C 
ATOM     15  C   UNL     1     -12.494   7.679  20.770  0.00  0.00    +0.163 C 
ATOM     16  C   UNL     1     -13.206   9.653  19.336  0.00  0.00    +0.217 C 
ATOM     17  C   UNL     1     -13.298   6.754  21.592  0.00  0.00    +0.056 A 
ATOM     18  C   UNL     1     -14.482   7.029  22.230  0.00  0.00    +0.066 A 
ATOM     23  C   UNL     1     -14.045   5.008  22.695  0.00  0.00    +0.197 A 
ATOM     32  H   UNL     1     -12.217   4.918  21.597  0.00  0.00    +0.167 HD
ENDROOT
BRANCH  12  22
ATOM      3  O   UNL     1     -12.310  10.956  22.248  0.00  0.00    -0.336 OA
ATOM      9  N   UNL     1     -13.322  10.012  24.008  0.00  0.00    -0.190 NA
ATOM     10  N   UNL     1     -11.658  11.452  23.383  0.00  0.00    -0.056 NA
ATOM     22  C   UNL     1     -13.276  10.116  22.704  0.00  0.00    +0.249 A 
ATOM     25  C   UNL     1     -12.310  10.849  24.381  0.00  0.00    +0.202 A 
BRANCH  25  26
ATOM      1 CL   UNL     1     -10.932  11.734  30.095  0.00  0.00    -0.084 Cl
ATOM     26  C   UNL     1     -11.979  11.061  25.760  0.00  0.00    +0.023 A 
ATOM     27  C   UNL     1     -12.373  12.238  26.398  0.00  0.00    +0.013 A 
ATOM     28  C   UNL     1     -11.262  10.094  26.463  0.00  0.00    +0.013 A 
ATOM     29  C   UNL     1     -12.050  12.446  27.739  0.00  0.00    +0.021 A 
ATOM     30  C   UNL     1     -10.938  10.302  27.804  0.00  0.00    +0.021 A 
ATOM     31  C   UNL     1     -11.332  11.478  28.442  0.00  0.00    +0.041 A 
ENDBRANCH  25  26
ENDBRANCH  12  22
BRANCH  16  13
ATOM     13  C   UNL     1     -12.248   9.140  18.289  0.00  0.00    +0.103 C 
BRANCH  13  11
ATOM     11  C   UNL     1     -10.946   9.963  18.215  0.00  0.00    -0.017 C 
ATOM     20  C   UNL     1     -10.049   9.529  19.392  0.00  0.00    +0.012 C 
ATOM     21  C   UNL     1     -11.258  11.464  18.394  0.00  0.00    +0.012 C 
BRANCH  11  19
ATOM     19  C   UNL     1     -10.194   9.785  16.873  0.00  0.00    +0.127 C 
BRANCH  19  24
ATOM      5  O   UNL     1     -11.380   8.685  15.074  0.00  0.00    -0.251 OA
ATOM     24  C   UNL     1     -10.643   8.601  16.047  0.00  0.00    +0.305 C 
BRANCH  24   4
ATOM      4  O   UNL     1     -10.148   7.423  16.503  0.00  0.00    -0.481 OA
ATOM     33  H   UNL     1     -10.840   6.877  16.933  0.00  0.00    +0.295 HD
ENDBRANCH  24   4
ENDBRANCH  19  24
ENDBRANCH  11  19
ENDBRANCH  13  11
ENDBRANCH  16  13
TORSDOF 7
ENDMDL
MODEL 6
REMARK VINA RESULT:      -6.5     30.016     32.727
REMARK  Name = 26745059
REMARK  9 active torsions:
REMARK  status: ('A' for Active; 'I' for Inactive)
REMARK    1  A    between atoms: O_4  and  C_24
REMARK    2  A    between atoms: C_11  and  C_13
REMARK    3  A    between atoms: C_11  and  C_19
REMARK    4  A    between atoms: C_11  and  C_20
REMARK    5  A    between atoms: C_11  and  C_21
REMARK    6  A    between atoms: C_12  and  C_22
REMARK    7  A    between atoms: C_13  and  C_16
REMARK    8  A    between atoms: C_19  and  C_24
REMARK    9  A    between atoms: C_25  and  C_26
REMARK                            x       y       z     vdW  Elec       q    Type
REMARK                         _______ _______ _______ _____ _____    ______ ____
ROOT
ATOM      2  O   UNL     1     -16.005   4.869  30.039  0.00  0.00    -0.276 OA
ATOM      6  N   UNL     1     -16.363   5.112  32.329  0.00  0.00    -0.284 N 
ATOM      7  N   UNL     1     -18.006   4.909  35.672  0.00  0.00    -0.347 N 
ATOM      8  N   UNL     1     -18.917   6.868  35.100  0.00  0.00    -0.240 NA
ATOM     12  C   UNL     1     -16.420   6.612  32.243  0.00  0.00    +0.171 C 
ATOM     14  C   UNL     1     -17.728   7.169  32.883  0.00  0.00    +0.089 C 
ATOM     15  C   UNL     1     -16.478   4.488  33.676  0.00  0.00    +0.163 C 
ATOM     16  C   UNL     1     -16.104   4.375  31.165  0.00  0.00    +0.217 C 
ATOM     17  C   UNL     1     -17.472   5.243  34.463  0.00  0.00    +0.056 A 
ATOM     18  C   UNL     1     -18.044   6.448  34.136  0.00  0.00    +0.066 A 
ATOM     23  C   UNL     1     -18.871   5.918  36.014  0.00  0.00    +0.197 A 
ATOM     32  H   UNL     1     -17.805   4.081  36.217  0.00  0.00    +0.167 HD
ENDROOT
BRANCH  12  22
ATOM      3  O   UNL     1     -14.321   7.796  31.775  0.00  0.00    -0.336 OA
ATOM      9  N   UNL     1     -14.620   7.297  33.937  0.00  0.00    -0.190 NA
ATOM     10  N   UNL     1     -13.194   8.285  32.447  0.00  0.00    -0.056 NA
ATOM     22  C   UNL     1     -15.110   7.229  32.725  0.00  0.00    +0.249 A 
ATOM     25  C   UNL     1     -13.444   7.953  33.716  0.00  0.00    +0.202 A 
BRANCH  25  26
ATOM      1 CL   UNL     1      -9.710   9.240  38.159  0.00  0.00    -0.084 Cl
ATOM     26  C   UNL     1     -12.542   8.263  34.787  0.00  0.00    +0.023 A 
ATOM     27  C   UNL     1     -12.598   7.537  35.977  0.00  0.00    +0.013 A 
ATOM     28  C   UNL     1     -11.610   9.291  34.641  0.00  0.00    +0.013 A 
ATOM     29  C   UNL     1     -11.722   7.839  37.020  0.00  0.00    +0.021 A 
ATOM     30  C   UNL     1     -10.734   9.593  35.683  0.00  0.00    +0.021 A 
ATOM     31  C   UNL     1     -10.790   8.867  36.873  0.00  0.00    +0.041 A 
ENDBRANCH  25  26
ENDBRANCH  12  22
BRANCH  16  13
ATOM     13  C   UNL     1     -15.941   2.885  31.333  0.00  0.00    +0.103 C 
BRANCH  13  11
ATOM     11  C   UNL     1     -14.464   2.447  31.398  0.00  0.00    -0.017 C 
ATOM     20  C   UNL     1     -14.338   1.384  32.508  0.00  0.00    +0.012 C 
ATOM     21  C   UNL     1     -13.574   3.645  31.795  0.00  0.00    +0.012 C 
BRANCH  11  19
ATOM     19  C   UNL     1     -13.940   1.885  30.054  0.00  0.00    +0.127 C 
BRANCH  19  24
ATOM      5  O   UNL     1     -15.147  -0.184  29.709  0.00  0.00    -0.251 OA
ATOM     24  C   UNL     1     -14.081   0.387  29.897  0.00  0.00    +0.305 C 
BRANCH  24   4
ATOM      4  O   UNL     1     -12.897  -0.267  29.993  0.00  0.00    -0.481 OA
ATOM     33  H   UNL     1     -12.608  -0.629  29.128  0.00  0.00    +0.295 HD
ENDBRANCH  24   4
ENDBRANCH  19  24
ENDBRANCH  11  19
ENDBRANCH  13  11
ENDBRANCH  16  13
TORSDOF 7
ENDMDL
MODEL 7
REMARK VINA RESULT:      -6.4     26.039     28.145
REMARK  Name = 26745059
REMARK  9 active torsions:
REMARK  status: ('A' for Active; 'I' for Inactive)
REMARK    1  A    between atoms: O_4  and  C_24
REMARK    2  A    between atoms: C_11  and  C_13
REMARK    3  A    between atoms: C_11  and  C_19
REMARK    4  A    between atoms: C_11  and  C_20
REMARK    5  A    between atoms: C_11  and  C_21
REMARK    6  A    between atoms: C_12  and  C_22
REMARK    7  A    between atoms: C_13  and  C_16
REMARK    8  A    between atoms: C_19  and  C_24
REMARK    9  A    between atoms: C_25  and  C_26
REMARK                            x       y       z     vdW  Elec       q    Type
REMARK                         _______ _______ _______ _____ _____    ______ ____
ROOT
ATOM      2  O   UNL     1     -14.357   9.441  18.830  0.00  0.00    -0.276 OA
ATOM      6  N   UNL     1     -13.647   8.004  20.522  0.00  0.00    -0.284 N 
ATOM      7  N   UNL     1     -13.117   4.878  22.488  0.00  0.00    -0.347 N 
ATOM      8  N   UNL     1     -15.051   5.424  23.464  0.00  0.00    -0.240 NA
ATOM     12  C   UNL     1     -14.506   8.670  21.560  0.00  0.00    +0.171 C 
ATOM     14  C   UNL     1     -15.419   7.639  22.291  0.00  0.00    +0.089 C 
ATOM     15  C   UNL     1     -12.763   6.888  20.962  0.00  0.00    +0.163 C 
ATOM     16  C   UNL     1     -13.635   8.519  19.219  0.00  0.00    +0.217 C 
ATOM     17  C   UNL     1     -13.486   6.081  21.964  0.00  0.00    +0.056 A 
ATOM     18  C   UNL     1     -14.673   6.394  22.580  0.00  0.00    +0.066 A 
ATOM     23  C   UNL     1     -14.091   4.523  23.387  0.00  0.00    +0.197 A 
ATOM     32  H   UNL     1     -12.285   4.347  22.265  0.00  0.00    +0.167 HD
ENDROOT
BRANCH  12  22
ATOM      3  O   UNL     1     -12.796  10.414  21.813  0.00  0.00    -0.336 OA
ATOM      9  N   UNL     1     -13.653   9.694  23.753  0.00  0.00    -0.190 NA
ATOM     10  N   UNL     1     -12.148  11.141  22.820  0.00  0.00    -0.056 NA
ATOM     22  C   UNL     1     -13.666   9.584  22.448  0.00  0.00    +0.249 A 
ATOM     25  C   UNL     1     -12.707  10.660  23.934  0.00  0.00    +0.202 A 
BRANCH  25  26
ATOM      1 CL   UNL     1     -11.201  12.586  29.352  0.00  0.00    -0.084 Cl
ATOM     26  C   UNL     1     -12.345  11.124  25.241  0.00  0.00    +0.023 A 
ATOM     27  C   UNL     1     -12.700  12.410  25.648  0.00  0.00    +0.013 A 
ATOM     28  C   UNL     1     -11.636  10.290  26.107  0.00  0.00    +0.013 A 
ATOM     29  C   UNL     1     -12.347  12.862  26.919  0.00  0.00    +0.021 A 
ATOM     30  C   UNL     1     -11.283  10.742  27.378  0.00  0.00    +0.021 A 
ATOM     31  C   UNL     1     -11.638  12.029  27.784  0.00  0.00    +0.041 A 
ENDBRANCH  25  26
ENDBRANCH  12  22
BRANCH  16  13
ATOM     13  C   UNL     1     -12.668   7.884  18.251  0.00  0.00    +0.103 C 
BRANCH  13  11
ATOM     11  C   UNL     1     -11.563   8.854  17.786  0.00  0.00    -0.017 C 
ATOM     20  C   UNL     1     -12.198   9.842  16.786  0.00  0.00    +0.012 C 
ATOM     21  C   UNL     1     -10.457   8.078  17.038  0.00  0.00    +0.012 C 
BRANCH  11  19
ATOM     19  C   UNL     1     -10.902   9.624  18.955  0.00  0.00    +0.127 C 
BRANCH  19  24
ATOM      5  O   UNL     1     -10.192  11.816  18.214  0.00  0.00    -0.251 OA
ATOM     24  C   UNL     1     -10.984  11.131  18.847  0.00  0.00    +0.305 C 
BRANCH  24   4
ATOM      4  O   UNL     1     -12.031  11.652  19.534  0.00  0.00    -0.481 OA
ATOM     33  H   UNL     1     -11.774  11.920  20.442  0.00  0.00    +0.295 HD
ENDBRANCH  24   4
ENDBRANCH  19  24
ENDBRANCH  11  19
ENDBRANCH  13  11
ENDBRANCH  16  13
TORSDOF 7
ENDMDL
MODEL 8
REMARK VINA RESULT:      -6.4     27.603     29.178
REMARK  Name = 26745059
REMARK  9 active torsions:
REMARK  status: ('A' for Active; 'I' for Inactive)
REMARK    1  A    between atoms: O_4  and  C_24
REMARK    2  A    between atoms: C_11  and  C_13
REMARK    3  A    between atoms: C_11  and  C_19
REMARK    4  A    between atoms: C_11  and  C_20
REMARK    5  A    between atoms: C_11  and  C_21
REMARK    6  A    between atoms: C_12  and  C_22
REMARK    7  A    between atoms: C_13  and  C_16
REMARK    8  A    between atoms: C_19  and  C_24
REMARK    9  A    between atoms: C_25  and  C_26
REMARK                            x       y       z     vdW  Elec       q    Type
REMARK                         _______ _______ _______ _____ _____    ______ ____
ROOT
ATOM      2  O   UNL     1      -2.728 -10.463  16.688  0.00  0.00    -0.276 OA
ATOM      6  N   UNL     1      -3.206 -12.190  15.199  0.00  0.00    -0.284 N 
ATOM      7  N   UNL     1      -3.526 -15.628  13.787  0.00  0.00    -0.347 N 
ATOM      8  N   UNL     1      -1.440 -15.289  13.062  0.00  0.00    -0.240 NA
ATOM     12  C   UNL     1      -2.166 -11.737  14.213  0.00  0.00    +0.171 C 
ATOM     14  C   UNL     1      -1.186 -12.894  13.848  0.00  0.00    +0.089 C 
ATOM     15  C   UNL     1      -4.048 -13.363  14.833  0.00  0.00    +0.163 C 
ATOM     16  C   UNL     1      -3.411 -11.437  16.363  0.00  0.00    +0.217 C 
ATOM     17  C   UNL     1      -3.203 -14.350  14.133  0.00  0.00    +0.056 A 
ATOM     18  C   UNL     1      -1.921 -14.166  13.676  0.00  0.00    +0.066 A 
ATOM     23  C   UNL     1      -2.433 -16.153  13.145  0.00  0.00    +0.197 A 
ATOM     32  H   UNL     1      -4.402 -16.102  13.964  0.00  0.00    +0.167 HD
ENDROOT
BRANCH  12  22
ATOM      3  O   UNL     1      -1.990 -10.608  12.040  0.00  0.00    -0.336 OA
ATOM      9  N   UNL     1      -4.074 -10.690  12.854  0.00  0.00    -0.190 NA
ATOM     10  N   UNL     1      -2.802  -9.966  11.096  0.00  0.00    -0.056 NA
ATOM     22  C   UNL     1      -2.817 -11.003  13.043  0.00  0.00    +0.249 A 
ATOM     25  C   UNL     1      -4.016 -10.055  11.648  0.00  0.00    +0.202 A 
BRANCH  25  26
ATOM      1 CL   UNL     1      -8.881  -7.840   9.048  0.00  0.00    -0.084 Cl
ATOM     26  C   UNL     1      -5.190  -9.522  11.020  0.00  0.00    +0.023 A 
ATOM     27  C   UNL     1      -5.072  -8.741   9.870  0.00  0.00    +0.013 A 
ATOM     28  C   UNL     1      -6.450  -9.783  11.559  0.00  0.00    +0.013 A 
ATOM     29  C   UNL     1      -6.213  -8.221   9.260  0.00  0.00    +0.021 A 
ATOM     30  C   UNL     1      -7.591  -9.263  10.949  0.00  0.00    +0.021 A 
ATOM     31  C   UNL     1      -7.473  -8.482   9.799  0.00  0.00    +0.041 A 
ENDBRANCH  25  26
ENDBRANCH  12  22
BRANCH  16  13
ATOM     13  C   UNL     1      -4.545 -11.872  17.257  0.00  0.00    +0.103 C 
BRANCH  13  11
ATOM     11  C   UNL     1      -5.743 -10.902  17.219  0.00  0.00    -0.017 C 
ATOM     20  C   UNL     1      -7.025 -11.745  17.069  0.00  0.00    +0.012 C 
ATOM     21  C   UNL     1      -5.641  -9.983  15.982  0.00  0.00    +0.012 C 
BRANCH  11  19
ATOM     19  C   UNL     1      -5.835 -10.004  18.477  0.00  0.00    +0.127 C 
BRANCH  19  24
ATOM      5  O   UNL     1      -5.927 -11.418  20.438  0.00  0.00    -0.251 OA
ATOM     24  C   UNL     1      -6.497 -10.654  19.671  0.00  0.00    +0.305 C 
BRANCH  24   4
ATOM      4  O   UNL     1      -7.801 -10.306  19.805  0.00  0.00    -0.481 OA
ATOM     33  H   UNL     1      -8.031 -10.100  20.736  0.00  0.00    +0.295 HD
ENDBRANCH  24   4
ENDBRANCH  19  24
ENDBRANCH  11  19
ENDBRANCH  13  11
ENDBRANCH  16  13
TORSDOF 7
ENDMDL
MODEL 9
REMARK VINA RESULT:      -6.3     27.729     29.522
REMARK  Name = 26745059
REMARK  9 active torsions:
REMARK  status: ('A' for Active; 'I' for Inactive)
REMARK    1  A    between atoms: O_4  and  C_24
REMARK    2  A    between atoms: C_11  and  C_13
REMARK    3  A    between atoms: C_11  and  C_19
REMARK    4  A    between atoms: C_11  and  C_20
REMARK    5  A    between atoms: C_11  and  C_21
REMARK    6  A    between atoms: C_12  and  C_22
REMARK    7  A    between atoms: C_13  and  C_16
REMARK    8  A    between atoms: C_19  and  C_24
REMARK    9  A    between atoms: C_25  and  C_26
REMARK                            x       y       z     vdW  Elec       q    Type
REMARK                         _______ _______ _______ _____ _____    ______ ____
ROOT
ATOM      2  O   UNL     1      -5.574  -9.553  16.147  0.00  0.00    -0.276 OA
ATOM      6  N   UNL     1      -4.802 -11.435  15.010  0.00  0.00    -0.284 N 
ATOM      7  N   UNL     1      -3.108 -14.691  14.341  0.00  0.00    -0.347 N 
ATOM      8  N   UNL     1      -1.323 -13.422  13.900  0.00  0.00    -0.240 NA
ATOM     12  C   UNL     1      -3.892 -10.628  14.126  0.00  0.00    +0.171 C 
ATOM     14  C   UNL     1      -2.428 -11.159  14.180  0.00  0.00    +0.089 C 
ATOM     15  C   UNL     1      -4.873 -12.905  14.777  0.00  0.00    +0.163 C 
ATOM     16  C   UNL     1      -5.615 -10.768  15.937  0.00  0.00    +0.217 C 
ATOM     17  C   UNL     1      -3.520 -13.396  14.450  0.00  0.00    +0.056 A 
ATOM     18  C   UNL     1      -2.409 -12.639  14.172  0.00  0.00    +0.066 A 
ATOM     23  C   UNL     1      -1.777 -14.655  14.009  0.00  0.00    +0.197 A 
ATOM     32  H   UNL     1      -3.670 -15.521  14.476  0.00  0.00    +0.167 HD
ENDROOT
BRANCH  12  22
ATOM      3  O   UNL     1      -5.616  -9.680  12.657  0.00  0.00    -0.336 OA
ATOM      9  N   UNL     1      -4.113 -10.952  11.591  0.00  0.00    -0.190 NA
ATOM     10  N   UNL     1      -5.988  -9.672  11.307  0.00  0.00    -0.056 NA
ATOM     22  C   UNL     1      -4.504 -10.456  12.738  0.00  0.00    +0.249 A 
ATOM     25  C   UNL     1      -5.054 -10.445  10.743  0.00  0.00    +0.202 A 
BRANCH  25  26
ATOM      1 CL   UNL     1      -4.954 -11.614   4.916  0.00  0.00    -0.084 Cl
ATOM     26  C   UNL     1      -5.032 -10.727   9.337  0.00  0.00    +0.023 A 
ATOM     27  C   UNL     1      -4.580 -11.966   8.882  0.00  0.00    +0.013 A 
ATOM     28  C   UNL     1      -5.460  -9.763   8.424  0.00  0.00    +0.013 A 
ATOM     29  C   UNL     1      -4.556 -12.240   7.515  0.00  0.00    +0.021 A 
ATOM     30  C   UNL     1      -5.436 -10.037   7.057  0.00  0.00    +0.021 A 
ATOM     31  C   UNL     1      -4.984 -11.276   6.602  0.00  0.00    +0.041 A 
ENDBRANCH  25  26
ENDBRANCH  12  22
BRANCH  16  13
ATOM     13  C   UNL     1      -6.591 -11.618  16.712  0.00  0.00    +0.103 C 
BRANCH  13  11
ATOM     11  C   UNL     1      -6.129 -11.892  18.157  0.00  0.00    -0.017 C 
ATOM     20  C   UNL     1      -7.315 -12.520  18.917  0.00  0.00    +0.012 C 
ATOM     21  C   UNL     1      -5.775 -10.563  18.861  0.00  0.00    +0.012 C 
BRANCH  11  19
ATOM     19  C   UNL     1      -4.892 -12.819  18.232  0.00  0.00    +0.127 C 
BRANCH  19  24
ATOM      5  O   UNL     1      -3.353 -12.237  20.006  0.00  0.00    -0.251 OA
ATOM     24  C   UNL     1      -3.655 -12.179  18.822  0.00  0.00    +0.305 C 
BRANCH  24   4
ATOM      4  O   UNL     1      -2.912 -11.520  17.898  0.00  0.00    -0.481 OA
ATOM     33  H   UNL     1      -2.905 -10.552  18.056  0.00  0.00    +0.295 HD
ENDBRANCH  24   4
ENDBRANCH  19  24
ENDBRANCH  11  19
ENDBRANCH  13  11
ENDBRANCH  16  13
TORSDOF 7
ENDMDL
MODEL 10
REMARK VINA RESULT:      -6.3      5.275     10.404
REMARK  Name = 26745059
REMARK  9 active torsions:
REMARK  status: ('A' for Active; 'I' for Inactive)
REMARK    1  A    between atoms: O_4  and  C_24
REMARK    2  A    between atoms: C_11  and  C_13
REMARK    3  A    between atoms: C_11  and  C_19
REMARK    4  A    between atoms: C_11  and  C_20
REMARK    5  A    between atoms: C_11  and  C_21
REMARK    6  A    between atoms: C_12  and  C_22
REMARK    7  A    between atoms: C_13  and  C_16
REMARK    8  A    between atoms: C_19  and  C_24
REMARK    9  A    between atoms: C_25  and  C_26
REMARK                            x       y       z     vdW  Elec       q    Type
REMARK                         _______ _______ _______ _____ _____    ______ ____
ROOT
ATOM      2  O   UNL     1      21.943   5.216  23.760  0.00  0.00    -0.276 OA
ATOM      6  N   UNL     1      22.036   6.529  21.837  0.00  0.00    -0.284 N 
ATOM      7  N   UNL     1      23.308   8.913  19.264  0.00  0.00    -0.347 N 
ATOM      8  N   UNL     1      22.338  10.468  20.542  0.00  0.00    -0.240 NA
ATOM     12  C   UNL     1      20.901   7.408  22.283  0.00  0.00    +0.171 C 
ATOM     14  C   UNL     1      21.303   8.914  22.254  0.00  0.00    +0.089 C 
ATOM     15  C   UNL     1      22.628   6.786  20.494  0.00  0.00    +0.163 C 
ATOM     16  C   UNL     1      22.418   5.450  22.646  0.00  0.00    +0.217 C 
ATOM     17  C   UNL     1      22.682   8.245  20.275  0.00  0.00    +0.056 A 
ATOM     18  C   UNL     1      22.094   9.220  21.042  0.00  0.00    +0.066 A 
ATOM     23  C   UNL     1      23.072  10.249  19.469  0.00  0.00    +0.197 A 
ATOM     32  H   UNL     1      23.841   8.507  18.506  0.00  0.00    +0.167 HD
ENDROOT
BRANCH  12  22
ATOM      3  O   UNL     1      19.703   6.038  20.635  0.00  0.00    -0.336 OA
ATOM      9  N   UNL     1      18.409   7.532  21.688  0.00  0.00    -0.190 NA
ATOM     10  N   UNL     1      18.414   5.876  20.111  0.00  0.00    -0.056 NA
ATOM     22  C   UNL     1      19.612   7.033  21.557  0.00  0.00    +0.249 A 
ATOM     25  C   UNL     1      17.709   6.792  20.781  0.00  0.00    +0.202 A 
BRANCH  25  26
ATOM      1 CL   UNL     1      11.889   7.624  19.902  0.00  0.00    -0.084 Cl
ATOM     26  C   UNL     1      16.305   6.991  20.569  0.00  0.00    +0.023 A 
ATOM     27  C   UNL     1      15.767   6.861  19.288  0.00  0.00    +0.013 A 
ATOM     28  C   UNL     1      15.476   7.316  21.643  0.00  0.00    +0.013 A 
ATOM     29  C   UNL     1      14.402   7.057  19.082  0.00  0.00    +0.021 A 
ATOM     30  C   UNL     1      14.110   7.511  21.437  0.00  0.00    +0.021 A 
ATOM     31  C   UNL     1      13.573   7.382  20.156  0.00  0.00    +0.041 A 
ENDBRANCH  25  26
ENDBRANCH  12  22
BRANCH  16  13
ATOM     13  C   UNL     1      23.482   4.535  22.091  0.00  0.00    +0.103 C 
BRANCH  13  11
ATOM     11  C   UNL     1      22.991   3.084  21.917  0.00  0.00    -0.017 C 
ATOM     20  C   UNL     1      21.664   3.128  21.133  0.00  0.00    +0.012 C 
ATOM     21  C   UNL     1      22.697   2.455  23.297  0.00  0.00    +0.012 C 
BRANCH  11  19
ATOM     19  C   UNL     1      24.016   2.182  21.187  0.00  0.00    +0.127 C 
BRANCH  19  24
ATOM      5  O   UNL     1      25.992   3.403  20.509  0.00  0.00    -0.251 OA
ATOM     24  C   UNL     1      24.913   2.906  20.210  0.00  0.00    +0.305 C 
BRANCH  24   4
ATOM      4  O   UNL     1      24.396   2.958  18.957  0.00  0.00    -0.481 OA
ATOM     33  H   UNL     1      24.555   2.127  18.461  0.00  0.00    +0.295 HD
ENDBRANCH  24   4
ENDBRANCH  19  24
ENDBRANCH  11  19
ENDBRANCH  13  11
ENDBRANCH  16  13
TORSDOF 7
ENDMDL
