MODEL 1
REMARK VINA RESULT:      -7.2      0.000      0.000
REMARK  Name = 7049502
REMARK  16 active torsions:
REMARK  status: ('A' for Active; 'I' for Inactive)
REMARK    1  A    between atoms: O_5  and  C_32
REMARK    2  A    between atoms: O_5  and  C_35
REMARK    3  A    between atoms: N_7  and  C_12
REMARK    4  A    between atoms: N_8  and  C_19
REMARK    5  A    between atoms: N_9  and  C_29
REMARK    6  A    between atoms: C_11  and  C_16
REMARK    7  A    between atoms: C_15  and  C_17
REMARK    8  A    between atoms: C_17  and  C_18
REMARK    9  A    between atoms: C_18  and  C_20
REMARK   10  A    between atoms: C_18  and  C_21
REMARK   11  A    between atoms: C_18  and  C_22
REMARK   12  A    between atoms: C_19  and  C_23
REMARK   13  A    between atoms: C_19  and  C_26
REMARK   14  A    between atoms: C_23  and  C_25
REMARK   15  A    between atoms: C_25  and  C_27
REMARK   16  A    between atoms: C_25  and  C_28
REMARK                            x       y       z     vdW  Elec       q    Type
REMARK                         _______ _______ _______ _____ _____    ______ ____
ROOT
ATOM      1  O   UNL     1      13.177   7.645  22.288  0.00  0.00    -0.276 OA
ATOM      6  N   UNL     1      12.337   8.172  20.196  0.00  0.00    -0.288 N 
ATOM     11  C   UNL     1      13.189   7.260  19.447  0.00  0.00    +0.164 C 
ATOM     12  C   UNL     1      11.842   8.540  17.902  0.00  0.00    +0.094 C 
ATOM     13  C   UNL     1      12.579   7.206  18.048  0.00  0.00    +0.055 C 
ATOM     14  C   UNL     1      11.375   8.845  19.322  0.00  0.00    +0.131 C 
ATOM     15  C   UNL     1      12.351   8.226  21.582  0.00  0.00    +0.217 C 
ENDROOT
BRANCH  12   7
ATOM      3  O   UNL     1      12.322   9.155  15.146  0.00  0.00    -0.253 OA
ATOM      7  N   UNL     1      12.703   9.575  17.387  0.00  0.00    -0.295 N 
ATOM      9  N   UNL     1      13.771  10.874  15.820  0.00  0.00    -0.269 N 
ATOM     24  C   UNL     1      12.883   9.812  16.019  0.00  0.00    +0.304 C 
ATOM     36  H   UNL     1      13.252  10.119  18.046  0.00  0.00    +0.151 HD
ATOM     38  H   UNL     1      14.149  11.314  16.655  0.00  0.00    +0.156 HD
BRANCH   9  29
ATOM     29  C   UNL     1      14.211  11.418  14.592  0.00  0.00    +0.038 A 
ATOM     30  C   UNL     1      13.335  12.167  13.806  0.00  0.00    +0.069 A 
ATOM     31  C   UNL     1      15.523  11.206  14.165  0.00  0.00    +0.023 A 
ATOM     32  C   UNL     1      13.770  12.704  12.594  0.00  0.00    +0.122 A 
ATOM     33  C   UNL     1      15.958  11.742  12.954  0.00  0.00    +0.005 A 
ATOM     34  C   UNL     1      15.081  12.492  12.168  0.00  0.00    +0.046 A 
BRANCH  32   5
ATOM      5  O   UNL     1      12.915  13.436  11.827  0.00  0.00    -0.495 OA
ATOM     35  C   UNL     1      11.562  12.992  11.762  0.00  0.00    +0.277 C 
ENDBRANCH  32   5
ENDBRANCH   9  29
ENDBRANCH  12   7
BRANCH  11  16
ATOM      2  O   UNL     1      14.807   8.986  19.127  0.00  0.00    -0.274 OA
ATOM      8  N   UNL     1      15.532   6.859  19.733  0.00  0.00    -0.302 N 
ATOM     16  C   UNL     1      14.581   7.815  19.419  0.00  0.00    +0.234 C 
ATOM     37  H   UNL     1      15.231   5.909  19.931  0.00  0.00    +0.150 HD
BRANCH   8  19
ATOM     19  C   UNL     1      16.951   7.133  19.754  0.00  0.00    +0.159 C 
BRANCH  19  26
ATOM      4  O   UNL     1      18.642   5.387  19.812  0.00  0.00    -0.274 OA
ATOM     10  N   UNL     1      17.038   5.309  18.170  0.00  0.00    -0.328 N 
ATOM     26  C   UNL     1      17.655   5.875  19.265  0.00  0.00    +0.231 C 
ATOM     39  H   UNL     1      17.398   4.456  17.753  0.00  0.00    +0.145 HD
ATOM     40  H   UNL     1      16.222   5.720  17.729  0.00  0.00    +0.145 HD
ENDBRANCH  19  26
BRANCH  19  23
ATOM     23  C   UNL     1      17.449   7.510  21.156  0.00  0.00    +0.034 C 
BRANCH  23  25
ATOM     25  C   UNL     1      18.119   8.896  21.252  0.00  0.00    -0.015 C 
ATOM     27  C   UNL     1      19.248   8.853  22.286  0.00  0.00    +0.007 C 
ATOM     28  C   UNL     1      17.126   9.999  21.620  0.00  0.00    +0.007 C 
ENDBRANCH  23  25
ENDBRANCH  19  23
ENDBRANCH   8  19
ENDBRANCH  11  16
BRANCH  15  17
ATOM     17  C   UNL     1      11.274   9.074  22.211  0.00  0.00    +0.102 C 
BRANCH  17  18
ATOM     18  C   UNL     1      11.779  10.467  22.630  0.00  0.00    -0.029 C 
ATOM     20  C   UNL     1      13.314  10.499  22.714  0.00  0.00    +0.011 C 
ATOM     21  C   UNL     1      11.299  11.550  21.649  0.00  0.00    +0.011 C 
ATOM     22  C   UNL     1      11.204  10.778  24.024  0.00  0.00    +0.011 C 
ENDBRANCH  17  18
ENDBRANCH  15  17
TORSDOF 10
ENDMDL
MODEL 2
REMARK VINA RESULT:      -6.9      3.762      7.832
REMARK  Name = 7049502
REMARK  16 active torsions:
REMARK  status: ('A' for Active; 'I' for Inactive)
REMARK    1  A    between atoms: O_5  and  C_32
REMARK    2  A    between atoms: O_5  and  C_35
REMARK    3  A    between atoms: N_7  and  C_12
REMARK    4  A    between atoms: N_8  and  C_19
REMARK    5  A    between atoms: N_9  and  C_29
REMARK    6  A    between atoms: C_11  and  C_16
REMARK    7  A    between atoms: C_15  and  C_17
REMARK    8  A    between atoms: C_17  and  C_18
REMARK    9  A    between atoms: C_18  and  C_20
REMARK   10  A    between atoms: C_18  and  C_21
REMARK   11  A    between atoms: C_18  and  C_22
REMARK   12  A    between atoms: C_19  and  C_23
REMARK   13  A    between atoms: C_19  and  C_26
REMARK   14  A    between atoms: C_23  and  C_25
REMARK   15  A    between atoms: C_25  and  C_27
REMARK   16  A    between atoms: C_25  and  C_28
REMARK                            x       y       z     vdW  Elec       q    Type
REMARK                         _______ _______ _______ _____ _____    ______ ____
ROOT
ATOM      1  O   UNL     1      10.946  11.285  22.925  0.00  0.00    -0.276 OA
ATOM      6  N   UNL     1      13.258  11.280  22.797  0.00  0.00    -0.288 N 
ATOM     11  C   UNL     1      13.338  11.121  21.352  0.00  0.00    +0.164 C 
ATOM     12  C   UNL     1      15.569  11.090  22.281  0.00  0.00    +0.094 C 
ATOM     13  C   UNL     1      14.794  11.416  21.001  0.00  0.00    +0.055 C 
ATOM     14  C   UNL     1      14.584  11.445  23.391  0.00  0.00    +0.131 C 
ATOM     15  C   UNL     1      12.048  11.430  23.458  0.00  0.00    +0.217 C 
ENDROOT
BRANCH  12   7
ATOM      3  O   UNL     1      17.835   9.897  20.998  0.00  0.00    -0.253 OA
ATOM      7  N   UNL     1      15.958   9.703  22.333  0.00  0.00    -0.295 N 
ATOM      9  N   UNL     1      17.212   7.824  21.905  0.00  0.00    -0.269 N 
ATOM     24  C   UNL     1      17.086   9.197  21.675  0.00  0.00    +0.304 C 
ATOM     36  H   UNL     1      15.352   9.048  22.820  0.00  0.00    +0.151 HD
ATOM     38  H   UNL     1      16.502   7.394  22.493  0.00  0.00    +0.156 HD
BRANCH   9  29
ATOM     29  C   UNL     1      18.212   6.951  21.419  0.00  0.00    +0.038 A 
ATOM     30  C   UNL     1      19.399   6.783  22.132  0.00  0.00    +0.069 A 
ATOM     31  C   UNL     1      18.011   6.257  20.225  0.00  0.00    +0.023 A 
ATOM     32  C   UNL     1      20.385   5.922  21.652  0.00  0.00    +0.122 A 
ATOM     33  C   UNL     1      18.997   5.395  19.745  0.00  0.00    +0.005 A 
ATOM     34  C   UNL     1      20.185   5.228  20.459  0.00  0.00    +0.046 A 
BRANCH  32   5
ATOM      5  O   UNL     1      21.544   5.758  22.349  0.00  0.00    -0.495 OA
ATOM     35  C   UNL     1      22.050   4.429  22.460  0.00  0.00    +0.277 C 
ENDBRANCH  32   5
ENDBRANCH   9  29
ENDBRANCH  12   7
BRANCH  11  16
ATOM      2  O   UNL     1      13.694   8.763  21.256  0.00  0.00    -0.274 OA
ATOM      8  N   UNL     1      11.737   9.644  20.357  0.00  0.00    -0.302 N 
ATOM     16  C   UNL     1      12.961   9.713  21.001  0.00  0.00    +0.234 C 
ATOM     37  H   UNL     1      11.228  10.504  20.171  0.00  0.00    +0.150 HD
BRANCH   8  19
ATOM     19  C   UNL     1      11.157   8.405  19.893  0.00  0.00    +0.159 C 
BRANCH  19  26
ATOM      4  O   UNL     1      10.453   7.758  22.129  0.00  0.00    -0.274 OA
ATOM     10  N   UNL     1      11.689   6.268  20.894  0.00  0.00    -0.328 N 
ATOM     26  C   UNL     1      11.062   7.479  21.098  0.00  0.00    +0.231 C 
ATOM     39  H   UNL     1      11.687   5.553  21.613  0.00  0.00    +0.145 HD
ATOM     40  H   UNL     1      12.187   6.049  20.036  0.00  0.00    +0.145 HD
ENDBRANCH  19  26
BRANCH  19  23
ATOM     23  C   UNL     1      11.993   7.750  18.786  0.00  0.00    +0.034 C 
BRANCH  23  25
ATOM     25  C   UNL     1      12.456   8.711  17.672  0.00  0.00    -0.015 C 
ATOM     27  C   UNL     1      11.364   8.828  16.605  0.00  0.00    +0.007 C 
ATOM     28  C   UNL     1      13.764   8.261  17.020  0.00  0.00    +0.007 C 
ENDBRANCH  23  25
ENDBRANCH  19  23
ENDBRANCH   8  19
ENDBRANCH  11  16
BRANCH  15  17
ATOM     17  C   UNL     1      12.144  11.782  24.921  0.00  0.00    +0.102 C 
BRANCH  17  18
ATOM     18  C   UNL     1      11.969  13.288  25.187  0.00  0.00    -0.029 C 
ATOM     20  C   UNL     1      12.970  13.786  26.242  0.00  0.00    +0.011 C 
ATOM     21  C   UNL     1      12.140  14.104  23.894  0.00  0.00    +0.011 C 
ATOM     22  C   UNL     1      10.541  13.509  25.721  0.00  0.00    +0.011 C 
ENDBRANCH  17  18
ENDBRANCH  15  17
TORSDOF 10
ENDMDL
MODEL 3
REMARK VINA RESULT:      -6.9      1.286      2.158
REMARK  Name = 7049502
REMARK  16 active torsions:
REMARK  status: ('A' for Active; 'I' for Inactive)
REMARK    1  A    between atoms: O_5  and  C_32
REMARK    2  A    between atoms: O_5  and  C_35
REMARK    3  A    between atoms: N_7  and  C_12
REMARK    4  A    between atoms: N_8  and  C_19
REMARK    5  A    between atoms: N_9  and  C_29
REMARK    6  A    between atoms: C_11  and  C_16
REMARK    7  A    between atoms: C_15  and  C_17
REMARK    8  A    between atoms: C_17  and  C_18
REMARK    9  A    between atoms: C_18  and  C_20
REMARK   10  A    between atoms: C_18  and  C_21
REMARK   11  A    between atoms: C_18  and  C_22
REMARK   12  A    between atoms: C_19  and  C_23
REMARK   13  A    between atoms: C_19  and  C_26
REMARK   14  A    between atoms: C_23  and  C_25
REMARK   15  A    between atoms: C_25  and  C_27
REMARK   16  A    between atoms: C_25  and  C_28
REMARK                            x       y       z     vdW  Elec       q    Type
REMARK                         _______ _______ _______ _____ _____    ______ ____
ROOT
ATOM      1  O   UNL     1      12.957   7.492  22.202  0.00  0.00    -0.276 OA
ATOM      6  N   UNL     1      12.255   8.166  20.101  0.00  0.00    -0.288 N 
ATOM     11  C   UNL     1      13.092   7.242  19.349  0.00  0.00    +0.164 C 
ATOM     12  C   UNL     1      11.899   8.671  17.807  0.00  0.00    +0.094 C 
ATOM     13  C   UNL     1      12.553   7.291  17.921  0.00  0.00    +0.055 C 
ATOM     14  C   UNL     1      11.379   8.934  19.217  0.00  0.00    +0.131 C 
ATOM     15  C   UNL     1      12.202   8.154  21.487  0.00  0.00    +0.217 C 
ENDROOT
BRANCH  12   7
ATOM      3  O   UNL     1      12.659   9.288  15.115  0.00  0.00    -0.253 OA
ATOM      7  N   UNL     1      12.841   9.677  17.387  0.00  0.00    -0.295 N 
ATOM      9  N   UNL     1      14.098  10.947  15.941  0.00  0.00    -0.269 N 
ATOM     24  C   UNL     1      13.159   9.918  16.044  0.00  0.00    +0.304 C 
ATOM     36  H   UNL     1      13.346  10.195  18.100  0.00  0.00    +0.151 HD
ATOM     38  H   UNL     1      14.412  11.367  16.813  0.00  0.00    +0.156 HD
BRANCH   9  29
ATOM     29  C   UNL     1      14.672  11.485  14.766  0.00  0.00    +0.038 A 
ATOM     30  C   UNL     1      16.057  11.491  14.604  0.00  0.00    +0.069 A 
ATOM     31  C   UNL     1      13.851  12.009  13.767  0.00  0.00    +0.023 A 
ATOM     32  C   UNL     1      16.621  12.022  13.445  0.00  0.00    +0.122 A 
ATOM     33  C   UNL     1      14.415  12.540  12.607  0.00  0.00    +0.005 A 
ATOM     34  C   UNL     1      15.801  12.546  12.446  0.00  0.00    +0.046 A 
BRANCH  32   5
ATOM      5  O   UNL     1      17.974  12.027  13.287  0.00  0.00    -0.495 OA
ATOM     35  C   UNL     1      18.764  11.796  14.451  0.00  0.00    +0.277 C 
ENDBRANCH  32   5
ENDBRANCH   9  29
ENDBRANCH  12   7
BRANCH  11  16
ATOM      2  O   UNL     1      14.815   8.890  19.219  0.00  0.00    -0.274 OA
ATOM      8  N   UNL     1      15.395   6.687  19.696  0.00  0.00    -0.302 N 
ATOM     16  C   UNL     1      14.513   7.717  19.416  0.00  0.00    +0.234 C 
ATOM     37  H   UNL     1      15.034   5.745  19.811  0.00  0.00    +0.150 HD
BRANCH   8  19
ATOM     19  C   UNL     1      16.825   6.876  19.792  0.00  0.00    +0.159 C 
BRANCH  19  26
ATOM      4  O   UNL     1      16.991   5.403  17.865  0.00  0.00    -0.274 OA
ATOM     10  N   UNL     1      18.694   5.392  19.405  0.00  0.00    -0.328 N 
ATOM     26  C   UNL     1      17.475   5.813  18.918  0.00  0.00    +0.231 C 
ATOM     39  H   UNL     1      19.240   4.696  18.909  0.00  0.00    +0.145 HD
ATOM     40  H   UNL     1      19.084   5.740  20.276  0.00  0.00    +0.145 HD
ENDBRANCH  19  26
BRANCH  19  23
ATOM     23  C   UNL     1      17.331   6.758  21.236  0.00  0.00    +0.034 C 
BRANCH  23  25
ATOM     25  C   UNL     1      18.051   8.011  21.773  0.00  0.00    -0.015 C 
ATOM     27  C   UNL     1      17.675   9.227  20.921  0.00  0.00    +0.007 C 
ATOM     28  C   UNL     1      19.572   7.847  21.791  0.00  0.00    +0.007 C 
ENDBRANCH  23  25
ENDBRANCH  19  23
ENDBRANCH   8  19
ENDBRANCH  11  16
BRANCH  15  17
ATOM     17  C   UNL     1      11.143   9.032  22.105  0.00  0.00    +0.102 C 
BRANCH  17  18
ATOM     18  C   UNL     1      11.696  10.387  22.582  0.00  0.00    -0.029 C 
ATOM     20  C   UNL     1      11.298  11.519  21.620  0.00  0.00    +0.011 C 
ATOM     21  C   UNL     1      11.199  10.723  23.999  0.00  0.00    +0.011 C 
ATOM     22  C   UNL     1      13.232  10.286  22.613  0.00  0.00    +0.011 C 
ENDBRANCH  17  18
ENDBRANCH  15  17
TORSDOF 10
ENDMDL
MODEL 4
REMARK VINA RESULT:      -6.1     12.143     15.200
REMARK  Name = 7049502
REMARK  16 active torsions:
REMARK  status: ('A' for Active; 'I' for Inactive)
REMARK    1  A    between atoms: O_5  and  C_32
REMARK    2  A    between atoms: O_5  and  C_35
REMARK    3  A    between atoms: N_7  and  C_12
REMARK    4  A    between atoms: N_8  and  C_19
REMARK    5  A    between atoms: N_9  and  C_29
REMARK    6  A    between atoms: C_11  and  C_16
REMARK    7  A    between atoms: C_15  and  C_17
REMARK    8  A    between atoms: C_17  and  C_18
REMARK    9  A    between atoms: C_18  and  C_20
REMARK   10  A    between atoms: C_18  and  C_21
REMARK   11  A    between atoms: C_18  and  C_22
REMARK   12  A    between atoms: C_19  and  C_23
REMARK   13  A    between atoms: C_19  and  C_26
REMARK   14  A    between atoms: C_23  and  C_25
REMARK   15  A    between atoms: C_25  and  C_27
REMARK   16  A    between atoms: C_25  and  C_28
REMARK                            x       y       z     vdW  Elec       q    Type
REMARK                         _______ _______ _______ _____ _____    ______ ____
ROOT
ATOM      1  O   UNL     1       9.090   8.751   7.699  0.00  0.00    -0.276 OA
ATOM      6  N   UNL     1       9.259   6.940   6.267  0.00  0.00    -0.288 N 
ATOM     11  C   UNL     1       9.947   6.060   7.201  0.00  0.00    +0.164 C 
ATOM     12  C   UNL     1       9.744   4.949   5.065  0.00  0.00    +0.094 C 
ATOM     13  C   UNL     1       9.879   4.674   6.565  0.00  0.00    +0.055 C 
ATOM     14  C   UNL     1       8.953   6.252   5.012  0.00  0.00    +0.131 C 
ATOM     15  C   UNL     1       8.813   8.201   6.631  0.00  0.00    +0.217 C 
ENDROOT
BRANCH  12   7
ATOM      3  O   UNL     1      10.408   4.195   2.382  0.00  0.00    -0.253 OA
ATOM      7  N   UNL     1      11.030   5.077   4.426  0.00  0.00    -0.295 N 
ATOM      9  N   UNL     1      12.606   4.926   2.759  0.00  0.00    -0.269 N 
ATOM     24  C   UNL     1      11.273   4.683   3.104  0.00  0.00    +0.304 C 
ATOM     36  H   UNL     1      11.814   5.412   4.979  0.00  0.00    +0.151 HD
ATOM     38  H   UNL     1      13.195   5.338   3.479  0.00  0.00    +0.156 HD
BRANCH   9  29
ATOM     29  C   UNL     1      13.242   4.670   1.523  0.00  0.00    +0.038 A 
ATOM     30  C   UNL     1      12.578   4.937   0.326  0.00  0.00    +0.069 A 
ATOM     31  C   UNL     1      14.537   4.149   1.501  0.00  0.00    +0.023 A 
ATOM     32  C   UNL     1      13.207   4.684  -0.892  0.00  0.00    +0.122 A 
ATOM     33  C   UNL     1      15.166   3.895   0.282  0.00  0.00    +0.005 A 
ATOM     34  C   UNL     1      14.501   4.163  -0.915  0.00  0.00    +0.046 A 
BRANCH  32   5
ATOM      5  O   UNL     1      12.559   4.946  -2.061  0.00  0.00    -0.495 OA
ATOM     35  C   UNL     1      11.331   4.256  -2.290  0.00  0.00    +0.277 C 
ENDBRANCH  32   5
ENDBRANCH   9  29
ENDBRANCH  12   7
BRANCH  11  16
ATOM      2  O   UNL     1      12.182   5.916   8.028  0.00  0.00    -0.274 OA
ATOM      8  N   UNL     1      11.600   7.707   6.660  0.00  0.00    -0.302 N 
ATOM     16  C   UNL     1      11.364   6.529   7.348  0.00  0.00    +0.234 C 
ATOM     37  H   UNL     1      10.836   8.143   6.152  0.00  0.00    +0.150 HD
BRANCH   8  19
ATOM     19  C   UNL     1      12.879   8.379   6.660  0.00  0.00    +0.159 C 
BRANCH  19  26
ATOM      4  O   UNL     1      13.071  10.761   6.214  0.00  0.00    -0.274 OA
ATOM     10  N   UNL     1      11.738  10.074   7.952  0.00  0.00    -0.328 N 
ATOM     26  C   UNL     1      12.606   9.857   6.903  0.00  0.00    +0.231 C 
ATOM     39  H   UNL     1      11.459  11.015   8.211  0.00  0.00    +0.145 HD
ATOM     40  H   UNL     1      11.358   9.318   8.513  0.00  0.00    +0.145 HD
ENDBRANCH  19  26
BRANCH  19  23
ATOM     23  C   UNL     1      13.635   8.190   5.338  0.00  0.00    +0.034 C 
BRANCH  23  25
ATOM     25  C   UNL     1      14.980   7.446   5.464  0.00  0.00    -0.015 C 
ATOM     27  C   UNL     1      15.996   8.335   6.187  0.00  0.00    +0.007 C 
ATOM     28  C   UNL     1      15.542   7.023   4.106  0.00  0.00    +0.007 C 
ENDBRANCH  23  25
ENDBRANCH  19  23
ENDBRANCH   8  19
ENDBRANCH  11  16
BRANCH  15  17
ATOM     17  C   UNL     1       7.948   8.904   5.615  0.00  0.00    +0.102 C 
BRANCH  17  18
ATOM     18  C   UNL     1       8.636  10.133   4.994  0.00  0.00    -0.029 C 
ATOM     20  C   UNL     1       8.855  11.236   6.043  0.00  0.00    +0.011 C 
ATOM     21  C   UNL     1       9.985   9.755   4.361  0.00  0.00    +0.011 C 
ATOM     22  C   UNL     1       7.713  10.683   3.890  0.00  0.00    +0.011 C 
ENDBRANCH  17  18
ENDBRANCH  15  17
TORSDOF 10
ENDMDL
MODEL 5
REMARK VINA RESULT:      -6.1     25.019     28.337
REMARK  Name = 7049502
REMARK  16 active torsions:
REMARK  status: ('A' for Active; 'I' for Inactive)
REMARK    1  A    between atoms: O_5  and  C_32
REMARK    2  A    between atoms: O_5  and  C_35
REMARK    3  A    between atoms: N_7  and  C_12
REMARK    4  A    between atoms: N_8  and  C_19
REMARK    5  A    between atoms: N_9  and  C_29
REMARK    6  A    between atoms: C_11  and  C_16
REMARK    7  A    between atoms: C_15  and  C_17
REMARK    8  A    between atoms: C_17  and  C_18
REMARK    9  A    between atoms: C_18  and  C_20
REMARK   10  A    between atoms: C_18  and  C_21
REMARK   11  A    between atoms: C_18  and  C_22
REMARK   12  A    between atoms: C_19  and  C_23
REMARK   13  A    between atoms: C_19  and  C_26
REMARK   14  A    between atoms: C_23  and  C_25
REMARK   15  A    between atoms: C_25  and  C_27
REMARK   16  A    between atoms: C_25  and  C_28
REMARK                            x       y       z     vdW  Elec       q    Type
REMARK                         _______ _______ _______ _____ _____    ______ ____
ROOT
ATOM      1  O   UNL     1      19.475  -6.593  -4.023  0.00  0.00    -0.276 OA
ATOM      6  N   UNL     1      19.877  -7.871  -2.135  0.00  0.00    -0.288 N 
ATOM     11  C   UNL     1      19.621  -9.162  -2.757  0.00  0.00    +0.164 C 
ATOM     12  C   UNL     1      20.066  -9.488  -0.405  0.00  0.00    +0.094 C 
ATOM     13  C   UNL     1      20.144 -10.194  -1.761  0.00  0.00    +0.055 C 
ATOM     14  C   UNL     1      20.325  -8.025  -0.751  0.00  0.00    +0.131 C 
ATOM     15  C   UNL     1      19.859  -6.687  -2.855  0.00  0.00    +0.217 C 
ENDROOT
BRANCH  12   7
ATOM      3  O   UNL     1      19.249 -11.706   1.215  0.00  0.00    -0.253 OA
ATOM      7  N   UNL     1      18.780  -9.672   0.221  0.00  0.00    -0.295 N 
ATOM      9  N   UNL     1      17.147 -10.694   1.476  0.00  0.00    -0.269 N 
ATOM     24  C   UNL     1      18.459 -10.789   1.002  0.00  0.00    +0.304 C 
ATOM     36  H   UNL     1      18.051  -8.988   0.038  0.00  0.00    +0.151 HD
ATOM     38  H   UNL     1      16.624  -9.865   1.205  0.00  0.00    +0.156 HD
BRANCH   9  29
ATOM     29  C   UNL     1      16.451 -11.614   2.293  0.00  0.00    +0.038 A 
ATOM     30  C   UNL     1      16.510 -11.499   3.681  0.00  0.00    +0.069 A 
ATOM     31  C   UNL     1      15.704 -12.638   1.709  0.00  0.00    +0.023 A 
ATOM     32  C   UNL     1      15.823 -12.407   4.486  0.00  0.00    +0.122 A 
ATOM     33  C   UNL     1      15.017 -13.546   2.514  0.00  0.00    +0.005 A 
ATOM     34  C   UNL     1      15.077 -13.431   3.903  0.00  0.00    +0.046 A 
BRANCH  32   5
ATOM      5  O   UNL     1      15.880 -12.293   5.842  0.00  0.00    -0.495 OA
ATOM     35  C   UNL     1      14.914 -11.448   6.463  0.00  0.00    +0.277 C 
ENDBRANCH  32   5
ENDBRANCH   9  29
ENDBRANCH  12   7
BRANCH  11  16
ATOM      2  O   UNL     1      17.392  -9.691  -2.085  0.00  0.00    -0.274 OA
ATOM      8  N   UNL     1      17.773  -8.984  -4.270  0.00  0.00    -0.302 N 
ATOM     16  C   UNL     1      18.145  -9.307  -2.976  0.00  0.00    +0.234 C 
ATOM     37  H   UNL     1      18.490  -8.706  -4.934  0.00  0.00    +0.150 HD
BRANCH   8  19
ATOM     19  C   UNL     1      16.410  -9.063  -4.743  0.00  0.00    +0.159 C 
BRANCH  19  26
ATOM      4  O   UNL     1      17.488 -10.085  -6.668  0.00  0.00    -0.274 OA
ATOM     10  N   UNL     1      15.200  -9.889  -6.667  0.00  0.00    -0.328 N 
ATOM     26  C   UNL     1      16.453  -9.713  -6.119  0.00  0.00    +0.231 C 
ATOM     39  H   UNL     1      15.086 -10.326  -7.576  0.00  0.00    +0.145 HD
ATOM     40  H   UNL     1      14.352  -9.579  -6.202  0.00  0.00    +0.145 HD
ENDBRANCH  19  26
BRANCH  19  23
ATOM     23  C   UNL     1      15.744  -7.683  -4.829  0.00  0.00    +0.034 C 
BRANCH  23  25
ATOM     25  C   UNL     1      14.368  -7.587  -4.138  0.00  0.00    -0.015 C 
ATOM     27  C   UNL     1      14.115  -6.145  -3.691  0.00  0.00    +0.007 C 
ATOM     28  C   UNL     1      14.252  -8.526  -2.937  0.00  0.00    +0.007 C 
ENDBRANCH  23  25
ENDBRANCH  19  23
ENDBRANCH   8  19
ENDBRANCH  11  16
BRANCH  15  17
ATOM     17  C   UNL     1      20.337  -5.465  -2.112  0.00  0.00    +0.102 C 
BRANCH  17  18
ATOM     18  C   UNL     1      19.183  -4.634  -1.523  0.00  0.00    -0.029 C 
ATOM     20  C   UNL     1      17.826  -5.093  -2.084  0.00  0.00    +0.011 C 
ATOM     21  C   UNL     1      19.159  -4.725   0.012  0.00  0.00    +0.011 C 
ATOM     22  C   UNL     1      19.408  -3.164  -1.924  0.00  0.00    +0.011 C 
ENDBRANCH  17  18
ENDBRANCH  15  17
TORSDOF 10
ENDMDL
MODEL 6
REMARK VINA RESULT:      -6.1     10.584     13.448
REMARK  Name = 7049502
REMARK  16 active torsions:
REMARK  status: ('A' for Active; 'I' for Inactive)
REMARK    1  A    between atoms: O_5  and  C_32
REMARK    2  A    between atoms: O_5  and  C_35
REMARK    3  A    between atoms: N_7  and  C_12
REMARK    4  A    between atoms: N_8  and  C_19
REMARK    5  A    between atoms: N_9  and  C_29
REMARK    6  A    between atoms: C_11  and  C_16
REMARK    7  A    between atoms: C_15  and  C_17
REMARK    8  A    between atoms: C_17  and  C_18
REMARK    9  A    between atoms: C_18  and  C_20
REMARK   10  A    between atoms: C_18  and  C_21
REMARK   11  A    between atoms: C_18  and  C_22
REMARK   12  A    between atoms: C_19  and  C_23
REMARK   13  A    between atoms: C_19  and  C_26
REMARK   14  A    between atoms: C_23  and  C_25
REMARK   15  A    between atoms: C_25  and  C_27
REMARK   16  A    between atoms: C_25  and  C_28
REMARK                            x       y       z     vdW  Elec       q    Type
REMARK                         _______ _______ _______ _____ _____    ______ ____
ROOT
ATOM      1  O   UNL     1      10.351   9.801   8.451  0.00  0.00    -0.276 OA
ATOM      6  N   UNL     1      12.270  10.496   7.358  0.00  0.00    -0.288 N 
ATOM     11  C   UNL     1      11.983   9.833   6.093  0.00  0.00    +0.164 C 
ATOM     12  C   UNL     1      14.156  10.883   5.966  0.00  0.00    +0.094 C 
ATOM     13  C   UNL     1      12.980  10.425   5.100  0.00  0.00    +0.055 C 
ATOM     14  C   UNL     1      13.493  11.295   7.276  0.00  0.00    +0.131 C 
ATOM     15  C   UNL     1      11.375  10.487   8.416  0.00  0.00    +0.217 C 
ENDROOT
BRANCH  12   7
ATOM      3  O   UNL     1      16.912  10.912   5.185  0.00  0.00    -0.253 OA
ATOM      7  N   UNL     1      15.119   9.828   6.162  0.00  0.00    -0.295 N 
ATOM      9  N   UNL     1      17.148   8.751   6.071  0.00  0.00    -0.269 N 
ATOM     24  C   UNL     1      16.454   9.921   5.750  0.00  0.00    +0.304 C 
ATOM     36  H   UNL     1      14.801   8.951   6.563  0.00  0.00    +0.151 HD
ATOM     38  H   UNL     1      16.618   8.021   6.541  0.00  0.00    +0.156 HD
BRANCH   9  29
ATOM     29  C   UNL     1      18.508   8.453   5.824  0.00  0.00    +0.038 A 
ATOM     30  C   UNL     1      18.916   8.059   4.550  0.00  0.00    +0.069 A 
ATOM     31  C   UNL     1      19.442   8.553   6.856  0.00  0.00    +0.023 A 
ATOM     32  C   UNL     1      20.258   7.765   4.308  0.00  0.00    +0.122 A 
ATOM     33  C   UNL     1      20.783   8.259   6.614  0.00  0.00    +0.005 A 
ATOM     34  C   UNL     1      21.191   7.865   5.339  0.00  0.00    +0.046 A 
BRANCH  32   5
ATOM      5  O   UNL     1      20.657   7.381   3.063  0.00  0.00    -0.495 OA
ATOM     35  C   UNL     1      21.823   6.563   2.980  0.00  0.00    +0.277 C 
ENDBRANCH  32   5
ENDBRANCH   9  29
ENDBRANCH  12   7
BRANCH  11  16
ATOM      2  O   UNL     1      13.104   7.907   6.948  0.00  0.00    -0.274 OA
ATOM      8  N   UNL     1      11.259   7.614   5.561  0.00  0.00    -0.302 N 
ATOM     16  C   UNL     1      12.189   8.358   6.266  0.00  0.00    +0.234 C 
ATOM     37  H   UNL     1      10.560   8.097   5.004  0.00  0.00    +0.150 HD
BRANCH   8  19
ATOM     19  C   UNL     1      11.252   6.169   5.543  0.00  0.00    +0.159 C 
BRANCH  19  26
ATOM      4  O   UNL     1      10.347   5.217   3.497  0.00  0.00    -0.274 OA
ATOM     10  N   UNL     1      12.486   6.051   3.467  0.00  0.00    -0.328 N 
ATOM     26  C   UNL     1      11.292   5.742   4.082  0.00  0.00    +0.231 C 
ATOM     39  H   UNL     1      12.638   5.834   2.487  0.00  0.00    +0.145 HD
ATOM     40  H   UNL     1      13.259   6.487   3.960  0.00  0.00    +0.145 HD
ENDBRANCH  19  26
BRANCH  19  23
ATOM     23  C   UNL     1      10.014   5.584   6.235  0.00  0.00    +0.034 C 
BRANCH  23  25
ATOM     25  C   UNL     1      10.041   5.654   7.775  0.00  0.00    -0.015 C 
ATOM     27  C   UNL     1       9.815   4.257   8.359  0.00  0.00    +0.007 C 
ATOM     28  C   UNL     1       8.994   6.620   8.332  0.00  0.00    +0.007 C 
ENDBRANCH  23  25
ENDBRANCH  19  23
ENDBRANCH   8  19
ENDBRANCH  11  16
BRANCH  15  17
ATOM     17  C   UNL     1      11.730  11.381   9.578  0.00  0.00    +0.102 C 
BRANCH  17  18
ATOM     18  C   UNL     1      10.679  12.476   9.832  0.00  0.00    -0.029 C 
ATOM     20  C   UNL     1      10.131  13.038   8.510  0.00  0.00    +0.011 C 
ATOM     21  C   UNL     1       9.514  11.940  10.682  0.00  0.00    +0.011 C 
ATOM     22  C   UNL     1      11.365  13.618  10.605  0.00  0.00    +0.011 C 
ENDBRANCH  17  18
ENDBRANCH  15  17
TORSDOF 10
ENDMDL
MODEL 7
REMARK VINA RESULT:      -6.0     27.085     29.322
REMARK  Name = 7049502
REMARK  16 active torsions:
REMARK  status: ('A' for Active; 'I' for Inactive)
REMARK    1  A    between atoms: O_5  and  C_32
REMARK    2  A    between atoms: O_5  and  C_35
REMARK    3  A    between atoms: N_7  and  C_12
REMARK    4  A    between atoms: N_8  and  C_19
REMARK    5  A    between atoms: N_9  and  C_29
REMARK    6  A    between atoms: C_11  and  C_16
REMARK    7  A    between atoms: C_15  and  C_17
REMARK    8  A    between atoms: C_17  and  C_18
REMARK    9  A    between atoms: C_18  and  C_20
REMARK   10  A    between atoms: C_18  and  C_21
REMARK   11  A    between atoms: C_18  and  C_22
REMARK   12  A    between atoms: C_19  and  C_23
REMARK   13  A    between atoms: C_19  and  C_26
REMARK   14  A    between atoms: C_23  and  C_25
REMARK   15  A    between atoms: C_25  and  C_27
REMARK   16  A    between atoms: C_25  and  C_28
REMARK                            x       y       z     vdW  Elec       q    Type
REMARK                         _______ _______ _______ _____ _____    ______ ____
ROOT
ATOM      1  O   UNL     1      -8.849 -10.943  19.672  0.00  0.00    -0.276 OA
ATOM      6  N   UNL     1      -9.175 -10.956  17.380  0.00  0.00    -0.288 N 
ATOM     11  C   UNL     1      -8.232 -12.025  17.089  0.00  0.00    +0.164 C 
ATOM     12  C   UNL     1      -9.130 -11.172  15.015  0.00  0.00    +0.094 C 
ATOM     13  C   UNL     1      -8.519 -12.427  15.645  0.00  0.00    +0.055 C 
ATOM     14  C   UNL     1      -9.881 -10.523  16.174  0.00  0.00    +0.131 C 
ATOM     15  C   UNL     1      -9.464 -10.557  18.676  0.00  0.00    +0.217 C 
ENDROOT
BRANCH  12   7
ATOM      3  O   UNL     1      -8.029 -11.256  12.372  0.00  0.00    -0.253 OA
ATOM      7  N   UNL     1      -8.120 -10.298  14.474  0.00  0.00    -0.295 N 
ATOM      9  N   UNL     1      -6.664  -9.427  12.922  0.00  0.00    -0.269 N 
ATOM     24  C   UNL     1      -7.633 -10.405  13.165  0.00  0.00    +0.304 C 
ATOM     36  H   UNL     1      -7.696  -9.609  15.089  0.00  0.00    +0.151 HD
ATOM     38  H   UNL     1      -6.452  -8.796  13.691  0.00  0.00    +0.156 HD
BRANCH   9  29
ATOM     29  C   UNL     1      -5.938  -9.203  11.730  0.00  0.00    +0.038 A 
ATOM     30  C   UNL     1      -4.575  -9.496  11.677  0.00  0.00    +0.069 A 
ATOM     31  C   UNL     1      -6.585  -8.688  10.606  0.00  0.00    +0.023 A 
ATOM     32  C   UNL     1      -3.859  -9.273  10.501  0.00  0.00    +0.122 A 
ATOM     33  C   UNL     1      -5.869  -8.465   9.430  0.00  0.00    +0.005 A 
ATOM     34  C   UNL     1      -4.505  -8.759   9.378  0.00  0.00    +0.046 A 
BRANCH  32   5
ATOM      5  O   UNL     1      -2.529  -9.560  10.450  0.00  0.00    -0.495 OA
ATOM     35  C   UNL     1      -1.941 -10.125  11.620  0.00  0.00    +0.277 C 
ENDBRANCH  32   5
ENDBRANCH   9  29
ENDBRANCH  12   7
BRANCH  11  16
ATOM      2  O   UNL     1      -6.576 -10.305  17.082  0.00  0.00    -0.274 OA
ATOM      8  N   UNL     1      -5.930 -12.488  17.564  0.00  0.00    -0.302 N 
ATOM     16  C   UNL     1      -6.839 -11.493  17.246  0.00  0.00    +0.234 C 
ATOM     37  H   UNL     1      -6.258 -13.447  17.647  0.00  0.00    +0.150 HD
BRANCH   8  19
ATOM     19  C   UNL     1      -4.519 -12.241  17.747  0.00  0.00    +0.159 C 
BRANCH  19  26
ATOM      4  O   UNL     1      -5.197 -11.508  19.963  0.00  0.00    -0.274 OA
ATOM     10  N   UNL     1      -3.027 -12.187  19.649  0.00  0.00    -0.328 N 
ATOM     26  C   UNL     1      -4.309 -11.919  19.220  0.00  0.00    +0.231 C 
ATOM     39  H   UNL     1      -2.758 -12.032  20.614  0.00  0.00    +0.145 HD
ATOM     40  H   UNL     1      -2.302 -12.530  19.025  0.00  0.00    +0.145 HD
ENDBRANCH  19  26
BRANCH  19  23
ATOM     23  C   UNL     1      -4.013 -11.085  16.874  0.00  0.00    +0.034 C 
BRANCH  23  25
ATOM     25  C   UNL     1      -3.180 -11.517  15.649  0.00  0.00    -0.015 C 
ATOM     27  C   UNL     1      -2.031 -10.528  15.432  0.00  0.00    +0.007 C 
ATOM     28  C   UNL     1      -4.022 -11.614  14.377  0.00  0.00    +0.007 C 
ENDBRANCH  23  25
ENDBRANCH  19  23
ENDBRANCH   8  19
ENDBRANCH  11  16
BRANCH  15  17
ATOM     17  C   UNL     1     -10.605  -9.580  18.818  0.00  0.00    +0.102 C 
BRANCH  17  18
ATOM     18  C   UNL     1     -11.930 -10.260  19.203  0.00  0.00    -0.029 C 
ATOM     20  C   UNL     1     -11.821 -11.791  19.094  0.00  0.00    +0.011 C 
ATOM     21  C   UNL     1     -12.357  -9.879  20.631  0.00  0.00    +0.011 C 
ATOM     22  C   UNL     1     -13.013  -9.774  18.222  0.00  0.00    +0.011 C 
ENDBRANCH  17  18
ENDBRANCH  15  17
TORSDOF 10
ENDMDL
MODEL 8
REMARK VINA RESULT:      -5.9     14.192     18.884
REMARK  Name = 7049502
REMARK  16 active torsions:
REMARK  status: ('A' for Active; 'I' for Inactive)
REMARK    1  A    between atoms: O_5  and  C_32
REMARK    2  A    between atoms: O_5  and  C_35
REMARK    3  A    between atoms: N_7  and  C_12
REMARK    4  A    between atoms: N_8  and  C_19
REMARK    5  A    between atoms: N_9  and  C_29
REMARK    6  A    between atoms: C_11  and  C_16
REMARK    7  A    between atoms: C_15  and  C_17
REMARK    8  A    between atoms: C_17  and  C_18
REMARK    9  A    between atoms: C_18  and  C_20
REMARK   10  A    between atoms: C_18  and  C_21
REMARK   11  A    between atoms: C_18  and  C_22
REMARK   12  A    between atoms: C_19  and  C_23
REMARK   13  A    between atoms: C_19  and  C_26
REMARK   14  A    between atoms: C_23  and  C_25
REMARK   15  A    between atoms: C_25  and  C_27
REMARK   16  A    between atoms: C_25  and  C_28
REMARK                            x       y       z     vdW  Elec       q    Type
REMARK                         _______ _______ _______ _____ _____    ______ ____
ROOT
ATOM      1  O   UNL     1       9.747   4.566  -0.740  0.00  0.00    -0.276 OA
ATOM      6  N   UNL     1      11.979   4.205  -0.239  0.00  0.00    -0.288 N 
ATOM     11  C   UNL     1      11.781   3.911   1.173  0.00  0.00    +0.164 C 
ATOM     12  C   UNL     1      14.147   3.903   0.683  0.00  0.00    +0.094 C 
ATOM     13  C   UNL     1      13.107   3.322   1.646  0.00  0.00    +0.055 C 
ATOM     14  C   UNL     1      13.379   4.040  -0.628  0.00  0.00    +0.131 C 
ATOM     15  C   UNL     1      10.917   4.432  -1.102  0.00  0.00    +0.217 C 
ENDROOT
BRANCH  12   7
ATOM      3  O   UNL     1      16.450   5.290  -0.306  0.00  0.00    -0.253 OA
ATOM      7  N   UNL     1      14.652   5.172   1.143  0.00  0.00    -0.295 N 
ATOM      9  N   UNL     1      16.038   7.003   1.245  0.00  0.00    -0.269 N 
ATOM     24  C   UNL     1      15.789   5.786   0.604  0.00  0.00    +0.304 C 
ATOM     36  H   UNL     1      14.198   5.615   1.937  0.00  0.00    +0.151 HD
ATOM     38  H   UNL     1      15.391   7.270   1.983  0.00  0.00    +0.156 HD
BRANCH   9  29
ATOM     29  C   UNL     1      17.086   7.918   0.993  0.00  0.00    +0.038 A 
ATOM     30  C   UNL     1      18.179   7.984   1.857  0.00  0.00    +0.069 A 
ATOM     31  C   UNL     1      17.026   8.757  -0.120  0.00  0.00    +0.023 A 
ATOM     32  C   UNL     1      19.212   8.887   1.608  0.00  0.00    +0.122 A 
ATOM     33  C   UNL     1      18.059   9.661  -0.369  0.00  0.00    +0.005 A 
ATOM     34  C   UNL     1      19.153   9.725   0.495  0.00  0.00    +0.046 A 
BRANCH  32   5
ATOM      5  O   UNL     1      20.280   8.950   2.452  0.00  0.00    -0.495 OA
ATOM     35  C   UNL     1      20.625   7.756   3.151  0.00  0.00    +0.277 C 
ENDBRANCH  32   5
ENDBRANCH   9  29
ENDBRANCH  12   7
BRANCH  11  16
ATOM      2  O   UNL     1      11.714   6.286   1.405  0.00  0.00    -0.274 OA
ATOM      8  N   UNL     1      10.882   4.962   3.128  0.00  0.00    -0.302 N 
ATOM     16  C   UNL     1      11.459   5.188   1.890  0.00  0.00    +0.234 C 
ATOM     37  H   UNL     1      10.744   4.005   3.441  0.00  0.00    +0.150 HD
BRANCH   8  19
ATOM     19  C   UNL     1      10.499   6.026   4.028  0.00  0.00    +0.159 C 
BRANCH  19  26
ATOM      4  O   UNL     1      12.653   7.075   4.442  0.00  0.00    -0.274 OA
ATOM     10  N   UNL     1      11.676   5.868   6.134  0.00  0.00    -0.328 N 
ATOM     26  C   UNL     1      11.729   6.377   4.853  0.00  0.00    +0.231 C 
ATOM     39  H   UNL     1      12.427   6.042   6.794  0.00  0.00    +0.145 HD
ATOM     40  H   UNL     1      10.906   5.294   6.463  0.00  0.00    +0.145 HD
ENDBRANCH  19  26
BRANCH  19  23
ATOM     23  C   UNL     1       9.340   5.621   4.948  0.00  0.00    +0.034 C 
BRANCH  23  25
ATOM     25  C   UNL     1       8.241   6.690   5.112  0.00  0.00    -0.015 C 
ATOM     27  C   UNL     1       8.340   7.711   3.974  0.00  0.00    +0.007 C 
ATOM     28  C   UNL     1       8.325   7.411   6.458  0.00  0.00    +0.007 C 
ENDBRANCH  23  25
ENDBRANCH  19  23
ENDBRANCH   8  19
ENDBRANCH  11  16
BRANCH  15  17
ATOM     17  C   UNL     1      11.276   4.525  -2.564  0.00  0.00    +0.102 C 
BRANCH  17  18
ATOM     18  C   UNL     1      10.901   3.257  -3.353  0.00  0.00    -0.029 C 
ATOM     20  C   UNL     1      11.772   3.108  -4.612  0.00  0.00    +0.011 C 
ATOM     21  C   UNL     1      11.044   1.998  -2.481  0.00  0.00    +0.011 C 
ATOM     22  C   UNL     1       9.429   3.389  -3.786  0.00  0.00    +0.011 C 
ENDBRANCH  17  18
ENDBRANCH  15  17
TORSDOF 10
ENDMDL
MODEL 9
REMARK VINA RESULT:      -5.8     12.039     15.268
REMARK  Name = 7049502
REMARK  16 active torsions:
REMARK  status: ('A' for Active; 'I' for Inactive)
REMARK    1  A    between atoms: O_5  and  C_32
REMARK    2  A    between atoms: O_5  and  C_35
REMARK    3  A    between atoms: N_7  and  C_12
REMARK    4  A    between atoms: N_8  and  C_19
REMARK    5  A    between atoms: N_9  and  C_29
REMARK    6  A    between atoms: C_11  and  C_16
REMARK    7  A    between atoms: C_15  and  C_17
REMARK    8  A    between atoms: C_17  and  C_18
REMARK    9  A    between atoms: C_18  and  C_20
REMARK   10  A    between atoms: C_18  and  C_21
REMARK   11  A    between atoms: C_18  and  C_22
REMARK   12  A    between atoms: C_19  and  C_23
REMARK   13  A    between atoms: C_19  and  C_26
REMARK   14  A    between atoms: C_23  and  C_25
REMARK   15  A    between atoms: C_25  and  C_27
REMARK   16  A    between atoms: C_25  and  C_28
REMARK                            x       y       z     vdW  Elec       q    Type
REMARK                         _______ _______ _______ _____ _____    ______ ____
ROOT
ATOM      1  O   UNL     1      12.783   7.695   7.308  0.00  0.00    -0.276 OA
ATOM      6  N   UNL     1      11.411   9.346   6.442  0.00  0.00    -0.288 N 
ATOM     11  C   UNL     1      10.560   9.479   7.616  0.00  0.00    +0.164 C 
ATOM     12  C   UNL     1       9.727  10.918   5.862  0.00  0.00    +0.094 C 
ATOM     13  C   UNL     1       9.762  10.760   7.385  0.00  0.00    +0.055 C 
ATOM     14  C   UNL     1      11.058  10.324   5.413  0.00  0.00    +0.131 C 
ATOM     15  C   UNL     1      12.515   8.508   6.422  0.00  0.00    +0.217 C 
ENDROOT
BRANCH  12   7
ATOM      3  O   UNL     1       8.283  11.676   3.507  0.00  0.00    -0.253 OA
ATOM      7  N   UNL     1       8.606  10.225   5.278  0.00  0.00    -0.295 N 
ATOM      9  N   UNL     1       6.908   9.795   3.789  0.00  0.00    -0.269 N 
ATOM     24  C   UNL     1       7.953  10.663   4.119  0.00  0.00    +0.304 C 
ATOM     36  H   UNL     1       8.233   9.414   5.762  0.00  0.00    +0.151 HD
ATOM     38  H   UNL     1       6.768   8.997   4.404  0.00  0.00    +0.156 HD
BRANCH   9  29
ATOM     29  C   UNL     1       6.016   9.887   2.697  0.00  0.00    +0.038 A 
ATOM     30  C   UNL     1       6.434   9.515   1.420  0.00  0.00    +0.069 A 
ATOM     31  C   UNL     1       4.715  10.351   2.897  0.00  0.00    +0.023 A 
ATOM     32  C   UNL     1       5.552   9.607   0.343  0.00  0.00    +0.122 A 
ATOM     33  C   UNL     1       3.833  10.443   1.821  0.00  0.00    +0.005 A 
ATOM     34  C   UNL     1       4.252  10.070   0.543  0.00  0.00    +0.046 A 
BRANCH  32   5
ATOM      5  O   UNL     1       5.961   9.242  -0.905  0.00  0.00    -0.495 OA
ATOM     35  C   UNL     1       5.004   8.585  -1.733  0.00  0.00    +0.277 C 
ENDBRANCH  32   5
ENDBRANCH   9  29
ENDBRANCH  12   7
BRANCH  11  16
ATOM      2  O   UNL     1       8.672   8.260   8.422  0.00  0.00    -0.274 OA
ATOM      8  N   UNL     1      10.104   7.240   6.897  0.00  0.00    -0.302 N 
ATOM     16  C   UNL     1       9.663   8.280   7.698  0.00  0.00    +0.234 C 
ATOM     37  H   UNL     1      10.959   7.359   6.360  0.00  0.00    +0.150 HD
BRANCH   8  19
ATOM     19  C   UNL     1       9.429   5.965   6.815  0.00  0.00    +0.159 C 
BRANCH  19  26
ATOM      4  O   UNL     1       9.448   4.182   8.468  0.00  0.00    -0.274 OA
ATOM     10  N   UNL     1      11.411   5.289   8.024  0.00  0.00    -0.328 N 
ATOM     26  C   UNL     1      10.061   5.058   7.862  0.00  0.00    +0.231 C 
ATOM     39  H   UNL     1      11.957   4.741   8.681  0.00  0.00    +0.145 HD
ATOM     40  H   UNL     1      11.907   6.014   7.516  0.00  0.00    +0.145 HD
ENDBRANCH  19  26
BRANCH  19  23
ATOM     23  C   UNL     1       9.550   5.333   5.422  0.00  0.00    +0.034 C 
BRANCH  23  25
ATOM     25  C   UNL     1      10.299   6.193   4.384  0.00  0.00    -0.015 C 
ATOM     27  C   UNL     1       9.292   6.988   3.549  0.00  0.00    +0.007 C 
ATOM     28  C   UNL     1      11.184   5.354   3.462  0.00  0.00    +0.007 C 
ENDBRANCH  23  25
ENDBRANCH  19  23
ENDBRANCH   8  19
ENDBRANCH  11  16
BRANCH  15  17
ATOM     17  C   UNL     1      13.404   8.632   5.209  0.00  0.00    +0.102 C 
BRANCH  17  18
ATOM     18  C   UNL     1      14.798   9.192   5.546  0.00  0.00    -0.029 C 
ATOM     20  C   UNL     1      15.696   8.109   6.167  0.00  0.00    +0.011 C 
ATOM     21  C   UNL     1      15.482   9.768   4.294  0.00  0.00    +0.011 C 
ATOM     22  C   UNL     1      14.615  10.327   6.571  0.00  0.00    +0.011 C 
ENDBRANCH  17  18
ENDBRANCH  15  17
TORSDOF 10
ENDMDL
MODEL 10
REMARK VINA RESULT:      -5.7      2.411      3.165
REMARK  Name = 7049502
REMARK  16 active torsions:
REMARK  status: ('A' for Active; 'I' for Inactive)
REMARK    1  A    between atoms: O_5  and  C_32
REMARK    2  A    between atoms: O_5  and  C_35
REMARK    3  A    between atoms: N_7  and  C_12
REMARK    4  A    between atoms: N_8  and  C_19
REMARK    5  A    between atoms: N_9  and  C_29
REMARK    6  A    between atoms: C_11  and  C_16
REMARK    7  A    between atoms: C_15  and  C_17
REMARK    8  A    between atoms: C_17  and  C_18
REMARK    9  A    between atoms: C_18  and  C_20
REMARK   10  A    between atoms: C_18  and  C_21
REMARK   11  A    between atoms: C_18  and  C_22
REMARK   12  A    between atoms: C_19  and  C_23
REMARK   13  A    between atoms: C_19  and  C_26
REMARK   14  A    between atoms: C_23  and  C_25
REMARK   15  A    between atoms: C_25  and  C_27
REMARK   16  A    between atoms: C_25  and  C_28
REMARK                            x       y       z     vdW  Elec       q    Type
REMARK                         _______ _______ _______ _____ _____    ______ ____
ROOT
ATOM      1  O   UNL     1      14.049   9.669  22.706  0.00  0.00    -0.276 OA
ATOM      6  N   UNL     1      13.682  10.244  20.494  0.00  0.00    -0.288 N 
ATOM     11  C   UNL     1      14.018   8.944  19.932  0.00  0.00    +0.164 C 
ATOM     12  C   UNL     1      13.548  10.490  18.135  0.00  0.00    +0.094 C 
ATOM     13  C   UNL     1      13.532   9.000  18.486  0.00  0.00    +0.055 C 
ATOM     14  C   UNL     1      13.217  11.169  19.460  0.00  0.00    +0.131 C 
ATOM     15  C   UNL     1      13.650  10.472  21.862  0.00  0.00    +0.217 C 
ENDROOT
BRANCH  12   7
ATOM      3  O   UNL     1      14.030  12.036  15.772  0.00  0.00    -0.253 OA
ATOM      7  N   UNL     1      14.830  10.907  17.624  0.00  0.00    -0.295 N 
ATOM      9  N   UNL     1      16.333  11.918  16.209  0.00  0.00    -0.269 N 
ATOM     24  C   UNL     1      14.980  11.665  16.457  0.00  0.00    +0.304 C 
ATOM     36  H   UNL     1      15.668  10.584  18.099  0.00  0.00    +0.151 HD
ATOM     38  H   UNL     1      16.997  11.538  16.879  0.00  0.00    +0.156 HD
BRANCH   9  29
ATOM     29  C   UNL     1      16.897  12.645  15.136  0.00  0.00    +0.038 A 
ATOM     30  C   UNL     1      17.694  11.995  14.194  0.00  0.00    +0.069 A 
ATOM     31  C   UNL     1      16.658  14.015  15.020  0.00  0.00    +0.023 A 
ATOM     32  C   UNL     1      18.251  12.713  13.137  0.00  0.00    +0.122 A 
ATOM     33  C   UNL     1      17.215  14.734  13.962  0.00  0.00    +0.005 A 
ATOM     34  C   UNL     1      18.012  14.082  13.020  0.00  0.00    +0.046 A 
BRANCH  32   5
ATOM      5  O   UNL     1      19.028  12.077  12.216  0.00  0.00    -0.495 OA
ATOM     35  C   UNL     1      20.426  12.003  12.488  0.00  0.00    +0.277 C 
ENDBRANCH  32   5
ENDBRANCH   9  29
ENDBRANCH  12   7
BRANCH  11  16
ATOM      2  O   UNL     1      16.274   9.710  20.071  0.00  0.00    -0.274 OA
ATOM      8  N   UNL     1      15.865   7.421  19.972  0.00  0.00    -0.302 N 
ATOM     16  C   UNL     1      15.503   8.757  20.007  0.00  0.00    +0.234 C 
ATOM     37  H   UNL     1      15.139   6.715  19.888  0.00  0.00    +0.150 HD
BRANCH   8  19
ATOM     19  C   UNL     1      17.238   6.973  20.008  0.00  0.00    +0.159 C 
BRANCH  19  26
ATOM      4  O   UNL     1      16.559   5.664  18.074  0.00  0.00    -0.274 OA
ATOM     10  N   UNL     1      18.530   5.129  19.125  0.00  0.00    -0.328 N 
ATOM     26  C   UNL     1      17.372   5.862  18.975  0.00  0.00    +0.231 C 
ATOM     39  H   UNL     1      18.749   4.367  18.491  0.00  0.00    +0.145 HD
ATOM     40  H   UNL     1      19.195   5.304  19.872  0.00  0.00    +0.145 HD
ENDBRANCH  19  26
BRANCH  19  23
ATOM     23  C   UNL     1      17.647   6.460  21.395  0.00  0.00    +0.034 C 
BRANCH  23  25
ATOM     25  C   UNL     1      18.851   7.189  22.024  0.00  0.00    -0.015 C 
ATOM     27  C   UNL     1      19.122   8.490  21.263  0.00  0.00    +0.007 C 
ATOM     28  C   UNL     1      20.115   6.327  22.034  0.00  0.00    +0.007 C 
ENDBRANCH  23  25
ENDBRANCH  19  23
ENDBRANCH   8  19
ENDBRANCH  11  16
BRANCH  15  17
ATOM     17  C   UNL     1      13.093  11.808  22.286  0.00  0.00    +0.102 C 
BRANCH  17  18
ATOM     18  C   UNL     1      11.660  11.709  22.840  0.00  0.00    -0.029 C 
ATOM     20  C   UNL     1      10.813  12.919  22.408  0.00  0.00    +0.011 C 
ATOM     21  C   UNL     1      10.973  10.413  22.377  0.00  0.00    +0.011 C 
ATOM     22  C   UNL     1      11.749  11.696  24.377  0.00  0.00    +0.011 C 
ENDBRANCH  17  18
ENDBRANCH  15  17
TORSDOF 10
ENDMDL
