MODEL 1
REMARK VINA RESULT:      -7.1      0.000      0.000
REMARK  Name = 7143032
REMARK  9 active torsions:
REMARK  status: ('A' for Active; 'I' for Inactive)
REMARK    1  A    between atoms: O_4  and  C_29
REMARK    2  A    between atoms: O_4  and  C_33
REMARK    3  A    between atoms: O_5  and  C_34
REMARK    4  A    between atoms: O_5  and  C_37
REMARK    5  A    between atoms: O_6  and  C_35
REMARK    6  A    between atoms: O_6  and  C_38
REMARK    7  A    between atoms: N_9  and  C_21
REMARK    8  A    between atoms: N_10  and  C_30
REMARK    9  A    between atoms: C_20  and  C_23
REMARK                            x       y       z     vdW  Elec       q    Type
REMARK                         _______ _______ _______ _____ _____    ______ ____
ROOT
ATOM      1  O   UNL     1     -10.785  -9.265  18.276  0.00  0.00    -0.266 OA
ATOM      2  O   UNL     1      -6.411 -10.921  20.483  0.00  0.00    -0.270 OA
ATOM      7  N   UNL     1      -7.300 -12.698  19.249  0.00  0.00    -0.297 N 
ATOM      8  N   UNL     1      -9.833 -11.363  17.887  0.00  0.00    -0.310 N 
ATOM     11  C   UNL     1      -9.701 -13.179  19.689  0.00  0.00    +0.027 C 
ATOM     12  C   UNL     1      -8.759 -13.600  17.454  0.00  0.00    +0.054 C 
ATOM     13  C   UNL     1      -9.716 -14.148  18.512  0.00  0.00    +0.018 C 
ATOM     14  C   UNL     1      -8.281 -13.061  20.270  0.00  0.00    +0.113 C 
ATOM     15  C   UNL     1     -10.247 -11.824  19.220  0.00  0.00    +0.130 C 
ATOM     16  C   UNL     1      -7.333 -13.528  18.034  0.00  0.00    +0.117 C 
ATOM     17  C   UNL     1      -9.192 -12.222  16.990  0.00  0.00    +0.027 A 
ATOM     18  C   UNL     1      -8.927 -11.816  15.736  0.00  0.00    +0.024 A 
ATOM     19  C   UNL     1     -10.205 -10.052  17.527  0.00  0.00    +0.273 A 
ATOM     20  C   UNL     1      -6.443 -11.617  19.470  0.00  0.00    +0.247 C 
ATOM     21  C   UNL     1      -9.868  -9.628  16.130  0.00  0.00    +0.100 A 
ATOM     22  C   UNL     1      -9.272 -10.492  15.301  0.00  0.00    +0.030 A 
ENDROOT
BRANCH  21   9
ATOM      3  O   UNL     1     -12.225  -8.852  14.742  0.00  0.00    -0.252 OA
ATOM      9  N   UNL     1     -10.195  -8.361  15.750  0.00  0.00    -0.265 N 
ATOM     10  N   UNL     1     -11.412  -6.652  14.819  0.00  0.00    -0.269 N 
ATOM     26  C   UNL     1     -11.371  -8.028  15.065  0.00  0.00    +0.308 C 
ATOM     39  H   UNL     1      -9.445  -7.674  15.744  0.00  0.00    +0.157 HD
ATOM     40  H   UNL     1     -10.623  -6.106  15.158  0.00  0.00    +0.156 HD
BRANCH  10  30
ATOM     30  C   UNL     1     -12.424  -5.916  14.158  0.00  0.00    +0.042 A 
ATOM     31  C   UNL     1     -13.767  -6.215  14.388  0.00  0.00    +0.069 A 
ATOM     32  C   UNL     1     -12.078  -4.893  13.276  0.00  0.00    +0.069 A 
ATOM     34  C   UNL     1     -13.075  -4.169  12.623  0.00  0.00    +0.125 A 
ATOM     35  C   UNL     1     -14.763  -5.490  13.736  0.00  0.00    +0.125 A 
ATOM     36  C   UNL     1     -14.418  -4.467  12.853  0.00  0.00    +0.091 A 
BRANCH  34   5
ATOM      5  O   UNL     1     -12.737  -3.172  11.761  0.00  0.00    -0.495 OA
ATOM     37  C   UNL     1     -11.965  -3.535  10.617  0.00  0.00    +0.277 C 
ENDBRANCH  34   5
BRANCH  35   6
ATOM      6  O   UNL     1     -16.074  -5.781  13.960  0.00  0.00    -0.495 OA
ATOM     38  C   UNL     1     -16.632  -6.869  13.225  0.00  0.00    +0.277 C 
ENDBRANCH  35   6
ENDBRANCH  10  30
ENDBRANCH  21   9
BRANCH  20  23
ATOM     23  C   UNL     1      -5.505 -11.253  18.404  0.00  0.00    +0.037 A 
ATOM     24  C   UNL     1      -4.196 -11.735  18.432  0.00  0.00    +0.016 A 
ATOM     25  C   UNL     1      -5.921 -10.425  17.362  0.00  0.00    +0.016 A 
ATOM     27  C   UNL     1      -3.303 -11.388  17.418  0.00  0.00    +0.046 A 
ATOM     28  C   UNL     1      -5.029 -10.078  16.347  0.00  0.00    +0.046 A 
ATOM     29  C   UNL     1      -3.721 -10.560  16.375  0.00  0.00    +0.120 A 
BRANCH  29   4
ATOM      4  O   UNL     1      -2.848 -10.220  15.386  0.00  0.00    -0.495 OA
ATOM     33  C   UNL     1      -1.464 -10.477  15.625  0.00  0.00    +0.277 C 
ENDBRANCH  29   4
ENDBRANCH  20  23
TORSDOF 6
ENDMDL
MODEL 2
REMARK VINA RESULT:      -6.8      8.180     12.673
REMARK  Name = 7143032
REMARK  9 active torsions:
REMARK  status: ('A' for Active; 'I' for Inactive)
REMARK    1  A    between atoms: O_4  and  C_29
REMARK    2  A    between atoms: O_4  and  C_33
REMARK    3  A    between atoms: O_5  and  C_34
REMARK    4  A    between atoms: O_5  and  C_37
REMARK    5  A    between atoms: O_6  and  C_35
REMARK    6  A    between atoms: O_6  and  C_38
REMARK    7  A    between atoms: N_9  and  C_21
REMARK    8  A    between atoms: N_10  and  C_30
REMARK    9  A    between atoms: C_20  and  C_23
REMARK                            x       y       z     vdW  Elec       q    Type
REMARK                         _______ _______ _______ _____ _____    ______ ____
ROOT
ATOM      1  O   UNL     1     -12.496  -7.549   9.178  0.00  0.00    -0.266 OA
ATOM      2  O   UNL     1     -16.590  -4.886  10.879  0.00  0.00    -0.270 OA
ATOM      7  N   UNL     1     -14.724  -4.171  12.095  0.00  0.00    -0.297 N 
ATOM      8  N   UNL     1     -12.375  -5.815  10.739  0.00  0.00    -0.310 N 
ATOM     11  C   UNL     1     -13.366  -6.000  13.095  0.00  0.00    +0.027 C 
ATOM     12  C   UNL     1     -12.272  -3.911  12.387  0.00  0.00    +0.054 C 
ATOM     13  C   UNL     1     -12.291  -4.987  13.472  0.00  0.00    +0.018 C 
ATOM     14  C   UNL     1     -14.741  -5.316  13.004  0.00  0.00    +0.113 C 
ATOM     15  C   UNL     1     -12.968  -6.673  11.775  0.00  0.00    +0.130 C 
ATOM     16  C   UNL     1     -13.641  -3.204  12.336  0.00  0.00    +0.117 C 
ATOM     17  C   UNL     1     -11.957  -4.513  11.030  0.00  0.00    +0.027 A 
ATOM     18  C   UNL     1     -11.313  -3.785  10.101  0.00  0.00    +0.024 A 
ATOM     19  C   UNL     1     -12.161  -6.402   9.476  0.00  0.00    +0.273 A 
ATOM     20  C   UNL     1     -15.683  -4.081  11.083  0.00  0.00    +0.247 C 
ATOM     21  C   UNL     1     -11.464  -5.550   8.460  0.00  0.00    +0.100 A 
ATOM     22  C   UNL     1     -11.064  -4.317   8.791  0.00  0.00    +0.030 A 
ENDROOT
BRANCH  21   9
ATOM      3  O   UNL     1      -9.261  -7.168   7.678  0.00  0.00    -0.252 OA
ATOM      9  N   UNL     1     -11.254  -6.075   7.220  0.00  0.00    -0.265 N 
ATOM     10  N   UNL     1     -10.223  -7.251   5.539  0.00  0.00    -0.269 N 
ATOM     26  C   UNL     1     -10.149  -6.869   6.883  0.00  0.00    +0.308 C 
ATOM     39  H   UNL     1     -11.787  -5.674   6.453  0.00  0.00    +0.157 HD
ATOM     40  H   UNL     1     -11.031  -6.920   5.017  0.00  0.00    +0.156 HD
BRANCH  10  30
ATOM     30  C   UNL     1      -9.311  -8.050   4.811  0.00  0.00    +0.042 A 
ATOM     31  C   UNL     1      -8.743  -9.177   5.405  0.00  0.00    +0.069 A 
ATOM     32  C   UNL     1      -8.979  -7.710   3.500  0.00  0.00    +0.069 A 
ATOM     34  C   UNL     1      -8.079  -8.498   2.782  0.00  0.00    +0.125 A 
ATOM     35  C   UNL     1      -7.843  -9.964   4.688  0.00  0.00    +0.125 A 
ATOM     36  C   UNL     1      -7.511  -9.625   3.376  0.00  0.00    +0.091 A 
BRANCH  34   5
ATOM      5  O   UNL     1      -7.754  -8.165   1.504  0.00  0.00    -0.495 OA
ATOM     37  C   UNL     1      -8.612  -8.645   0.469  0.00  0.00    +0.277 C 
ENDBRANCH  34   5
BRANCH  35   6
ATOM      6  O   UNL     1      -7.288 -11.064   5.267  0.00  0.00    -0.495 OA
ATOM     38  C   UNL     1      -5.927 -10.961   5.683  0.00  0.00    +0.277 C 
ENDBRANCH  35   6
ENDBRANCH  10  30
ENDBRANCH  21   9
BRANCH  20  23
ATOM     23  C   UNL     1     -15.606  -2.943  10.162  0.00  0.00    +0.037 A 
ATOM     24  C   UNL     1     -14.844  -3.039   8.998  0.00  0.00    +0.016 A 
ATOM     25  C   UNL     1     -16.296  -1.766  10.450  0.00  0.00    +0.016 A 
ATOM     27  C   UNL     1     -14.772  -1.955   8.121  0.00  0.00    +0.046 A 
ATOM     28  C   UNL     1     -16.223  -0.683   9.574  0.00  0.00    +0.046 A 
ATOM     29  C   UNL     1     -15.462  -0.778   8.410  0.00  0.00    +0.120 A 
BRANCH  29   4
ATOM      4  O   UNL     1     -15.389   0.280   7.555  0.00  0.00    -0.495 OA
ATOM     33  C   UNL     1     -15.171   1.567   8.133  0.00  0.00    +0.277 C 
ENDBRANCH  29   4
ENDBRANCH  20  23
TORSDOF 6
ENDMDL
MODEL 3
REMARK VINA RESULT:      -6.8      8.207     12.799
REMARK  Name = 7143032
REMARK  9 active torsions:
REMARK  status: ('A' for Active; 'I' for Inactive)
REMARK    1  A    between atoms: O_4  and  C_29
REMARK    2  A    between atoms: O_4  and  C_33
REMARK    3  A    between atoms: O_5  and  C_34
REMARK    4  A    between atoms: O_5  and  C_37
REMARK    5  A    between atoms: O_6  and  C_35
REMARK    6  A    between atoms: O_6  and  C_38
REMARK    7  A    between atoms: N_9  and  C_21
REMARK    8  A    between atoms: N_10  and  C_30
REMARK    9  A    between atoms: C_20  and  C_23
REMARK                            x       y       z     vdW  Elec       q    Type
REMARK                         _______ _______ _______ _____ _____    ______ ____
ROOT
ATOM      1  O   UNL     1     -12.528  -7.561   9.183  0.00  0.00    -0.266 OA
ATOM      2  O   UNL     1     -16.598  -4.855  10.874  0.00  0.00    -0.270 OA
ATOM      7  N   UNL     1     -14.724  -4.146  12.081  0.00  0.00    -0.297 N 
ATOM      8  N   UNL     1     -12.391  -5.816  10.732  0.00  0.00    -0.310 N 
ATOM     11  C   UNL     1     -13.377  -5.978  13.091  0.00  0.00    +0.027 C 
ATOM     12  C   UNL     1     -12.269  -3.902  12.366  0.00  0.00    +0.054 C 
ATOM     13  C   UNL     1     -12.294  -4.969  13.459  0.00  0.00    +0.018 C 
ATOM     14  C   UNL     1     -14.747  -5.284  12.999  0.00  0.00    +0.113 C 
ATOM     15  C   UNL     1     -12.987  -6.663  11.775  0.00  0.00    +0.130 C 
ATOM     16  C   UNL     1     -13.633  -3.185  12.312  0.00  0.00    +0.117 C 
ATOM     17  C   UNL     1     -11.962  -4.515  11.012  0.00  0.00    +0.027 A 
ATOM     18  C   UNL     1     -11.314  -3.800  10.076  0.00  0.00    +0.024 A 
ATOM     19  C   UNL     1     -12.183  -6.414   9.473  0.00  0.00    +0.273 A 
ATOM     20  C   UNL     1     -15.685  -4.056  11.071  0.00  0.00    +0.247 C 
ATOM     21  C   UNL     1     -11.483  -5.575   8.449  0.00  0.00    +0.100 A 
ATOM     22  C   UNL     1     -11.073  -4.343   8.770  0.00  0.00    +0.030 A 
ENDROOT
BRANCH  21   9
ATOM      3  O   UNL     1      -9.264  -7.167   7.658  0.00  0.00    -0.252 OA
ATOM      9  N   UNL     1     -11.280  -6.111   7.212  0.00  0.00    -0.265 N 
ATOM     10  N   UNL     1     -10.251  -7.289   5.532  0.00  0.00    -0.269 N 
ATOM     26  C   UNL     1     -10.166  -6.891   6.870  0.00  0.00    +0.308 C 
ATOM     39  H   UNL     1     -11.828  -5.726   6.447  0.00  0.00    +0.157 HD
ATOM     40  H   UNL     1     -11.070  -6.976   5.016  0.00  0.00    +0.156 HD
BRANCH  10  30
ATOM     30  C   UNL     1      -9.335  -8.082   4.802  0.00  0.00    +0.042 A 
ATOM     31  C   UNL     1      -8.980  -7.720   3.502  0.00  0.00    +0.069 A 
ATOM     32  C   UNL     1      -8.787  -9.226   5.381  0.00  0.00    +0.069 A 
ATOM     34  C   UNL     1      -7.885 -10.008   4.660  0.00  0.00    +0.125 A 
ATOM     35  C   UNL     1      -8.078  -8.502   2.782  0.00  0.00    +0.125 A 
ATOM     36  C   UNL     1      -7.530  -9.646   3.361  0.00  0.00    +0.091 A 
BRANCH  34   5
ATOM      5  O   UNL     1      -7.352 -11.125   5.225  0.00  0.00    -0.495 OA
ATOM     37  C   UNL     1      -5.928 -11.221   5.261  0.00  0.00    +0.277 C 
ENDBRANCH  34   5
BRANCH  35   6
ATOM      6  O   UNL     1      -7.733  -8.149   1.513  0.00  0.00    -0.495 OA
ATOM     38  C   UNL     1      -8.579  -8.607   0.460  0.00  0.00    +0.277 C 
ENDBRANCH  35   6
ENDBRANCH  10  30
ENDBRANCH  21   9
BRANCH  20  23
ATOM     23  C   UNL     1     -15.602  -2.925  10.141  0.00  0.00    +0.037 A 
ATOM     24  C   UNL     1     -16.294  -1.746  10.414  0.00  0.00    +0.016 A 
ATOM     25  C   UNL     1     -14.830  -3.029   8.984  0.00  0.00    +0.016 A 
ATOM     27  C   UNL     1     -16.215  -0.670   9.529  0.00  0.00    +0.046 A 
ATOM     28  C   UNL     1     -14.750  -1.954   8.099  0.00  0.00    +0.046 A 
ATOM     29  C   UNL     1     -15.442  -0.775   8.372  0.00  0.00    +0.120 A 
BRANCH  29   4
ATOM      4  O   UNL     1     -15.367   0.275   7.507  0.00  0.00    -0.495 OA
ATOM     33  C   UNL     1     -16.228   1.385   7.758  0.00  0.00    +0.277 C 
ENDBRANCH  29   4
ENDBRANCH  20  23
TORSDOF 6
ENDMDL
MODEL 4
REMARK VINA RESULT:      -6.7      2.328      9.909
REMARK  Name = 7143032
REMARK  9 active torsions:
REMARK  status: ('A' for Active; 'I' for Inactive)
REMARK    1  A    between atoms: O_4  and  C_29
REMARK    2  A    between atoms: O_4  and  C_33
REMARK    3  A    between atoms: O_5  and  C_34
REMARK    4  A    between atoms: O_5  and  C_37
REMARK    5  A    between atoms: O_6  and  C_35
REMARK    6  A    between atoms: O_6  and  C_38
REMARK    7  A    between atoms: N_9  and  C_21
REMARK    8  A    between atoms: N_10  and  C_30
REMARK    9  A    between atoms: C_20  and  C_23
REMARK                            x       y       z     vdW  Elec       q    Type
REMARK                         _______ _______ _______ _____ _____    ______ ____
ROOT
ATOM      1  O   UNL     1     -11.564 -10.294  15.121  0.00  0.00    -0.266 OA
ATOM      2  O   UNL     1     -15.108  -8.542  11.787  0.00  0.00    -0.270 OA
ATOM      7  N   UNL     1     -15.442  -7.438  13.822  0.00  0.00    -0.297 N 
ATOM      8  N   UNL     1     -13.058  -8.560  15.587  0.00  0.00    -0.310 N 
ATOM     11  C   UNL     1     -15.584  -8.930  15.808  0.00  0.00    +0.027 C 
ATOM     12  C   UNL     1     -14.652  -6.663  16.045  0.00  0.00    +0.054 C 
ATOM     13  C   UNL     1     -15.539  -7.708  16.720  0.00  0.00    +0.018 C 
ATOM     14  C   UNL     1     -16.164  -8.553  14.434  0.00  0.00    +0.113 C 
ATOM     15  C   UNL     1     -14.170  -9.515  15.698  0.00  0.00    +0.130 C 
ATOM     16  C   UNL     1     -15.267  -6.262  14.689  0.00  0.00    +0.117 C 
ATOM     17  C   UNL     1     -13.248  -7.196  15.832  0.00  0.00    +0.027 A 
ATOM     18  C   UNL     1     -12.197  -6.357  15.839  0.00  0.00    +0.024 A 
ATOM     19  C   UNL     1     -11.783  -9.100  15.325  0.00  0.00    +0.273 A 
ATOM     20  C   UNL     1     -14.963  -7.562  12.515  0.00  0.00    +0.247 C 
ATOM     21  C   UNL     1     -10.643  -8.129  15.316  0.00  0.00    +0.100 A 
ATOM     22  C   UNL     1     -10.870  -6.837  15.575  0.00  0.00    +0.030 A 
ENDROOT
BRANCH  21   9
ATOM      3  O   UNL     1      -8.778  -9.106  17.227  0.00  0.00    -0.252 OA
ATOM      9  N   UNL     1      -9.395  -8.609  15.048  0.00  0.00    -0.265 N 
ATOM     10  N   UNL     1      -7.317  -9.503  15.435  0.00  0.00    -0.269 N 
ATOM     26  C   UNL     1      -8.511  -9.080  16.028  0.00  0.00    +0.308 C 
ATOM     39  H   UNL     1      -9.002  -8.388  14.137  0.00  0.00    +0.157 HD
ATOM     40  H   UNL     1      -7.257  -9.418  14.423  0.00  0.00    +0.156 HD
BRANCH  10  30
ATOM     30  C   UNL     1      -6.174 -10.042  16.070  0.00  0.00    +0.042 A 
ATOM     31  C   UNL     1      -6.234 -10.420  17.411  0.00  0.00    +0.069 A 
ATOM     32  C   UNL     1      -4.986 -10.194  15.355  0.00  0.00    +0.069 A 
ATOM     34  C   UNL     1      -3.859 -10.725  15.982  0.00  0.00    +0.125 A 
ATOM     35  C   UNL     1      -5.107 -10.951  18.037  0.00  0.00    +0.125 A 
ATOM     36  C   UNL     1      -3.919 -11.104  17.323  0.00  0.00    +0.091 A 
BRANCH  34   5
ATOM      5  O   UNL     1      -2.699 -10.872  15.285  0.00  0.00    -0.495 OA
ATOM     37  C   UNL     1      -1.484 -10.580  15.974  0.00  0.00    +0.277 C 
ENDBRANCH  34   5
BRANCH  35   6
ATOM      6  O   UNL     1      -5.166 -11.320  19.346  0.00  0.00    -0.495 OA
ATOM     38  C   UNL     1      -6.429 -11.758  19.842  0.00  0.00    +0.277 C 
ENDBRANCH  35   6
ENDBRANCH  10  30
ENDBRANCH  21   9
BRANCH  20  23
ATOM     23  C   UNL     1     -14.204  -6.442  11.952  0.00  0.00    +0.037 A 
ATOM     24  C   UNL     1     -12.830  -6.348  12.175  0.00  0.00    +0.016 A 
ATOM     25  C   UNL     1     -14.855  -5.470  11.191  0.00  0.00    +0.016 A 
ATOM     27  C   UNL     1     -12.108  -5.282  11.639  0.00  0.00    +0.046 A 
ATOM     28  C   UNL     1     -14.133  -4.405  10.655  0.00  0.00    +0.046 A 
ATOM     29  C   UNL     1     -12.759  -4.311  10.879  0.00  0.00    +0.120 A 
BRANCH  29   4
ATOM      4  O   UNL     1     -12.054  -3.269  10.357  0.00  0.00    -0.495 OA
ATOM     33  C   UNL     1     -11.156  -3.565   9.287  0.00  0.00    +0.277 C 
ENDBRANCH  29   4
ENDBRANCH  20  23
TORSDOF 6
ENDMDL
MODEL 5
REMARK VINA RESULT:      -6.7      3.857     11.584
REMARK  Name = 7143032
REMARK  9 active torsions:
REMARK  status: ('A' for Active; 'I' for Inactive)
REMARK    1  A    between atoms: O_4  and  C_29
REMARK    2  A    between atoms: O_4  and  C_33
REMARK    3  A    between atoms: O_5  and  C_34
REMARK    4  A    between atoms: O_5  and  C_37
REMARK    5  A    between atoms: O_6  and  C_35
REMARK    6  A    between atoms: O_6  and  C_38
REMARK    7  A    between atoms: N_9  and  C_21
REMARK    8  A    between atoms: N_10  and  C_30
REMARK    9  A    between atoms: C_20  and  C_23
REMARK                            x       y       z     vdW  Elec       q    Type
REMARK                         _______ _______ _______ _____ _____    ______ ____
ROOT
ATOM      1  O   UNL     1     -14.495  -3.005  13.192  0.00  0.00    -0.266 OA
ATOM      2  O   UNL     1     -17.747  -5.720  10.226  0.00  0.00    -0.270 OA
ATOM      7  N   UNL     1     -16.556  -4.269   8.829  0.00  0.00    -0.297 N 
ATOM      8  N   UNL     1     -14.550  -2.886  10.860  0.00  0.00    -0.310 N 
ATOM     11  C   UNL     1     -16.529  -1.894   9.570  0.00  0.00    +0.027 C 
ATOM     12  C   UNL     1     -14.604  -2.814   8.342  0.00  0.00    +0.054 C 
ATOM     13  C   UNL     1     -15.490  -1.579   8.499  0.00  0.00    +0.018 C 
ATOM     14  C   UNL     1     -17.380  -3.106   9.152  0.00  0.00    +0.113 C 
ATOM     15  C   UNL     1     -15.809  -2.127  10.904  0.00  0.00    +0.130 C 
ATOM     16  C   UNL     1     -15.461  -4.010   7.881  0.00  0.00    +0.117 C 
ATOM     17  C   UNL     1     -13.909  -3.156   9.647  0.00  0.00    +0.027 A 
ATOM     18  C   UNL     1     -12.703  -3.749   9.636  0.00  0.00    +0.024 A 
ATOM     19  C   UNL     1     -13.978  -3.235  12.099  0.00  0.00    +0.273 A 
ATOM     20  C   UNL     1     -16.833  -5.498   9.434  0.00  0.00    +0.247 C 
ATOM     21  C   UNL     1     -12.646  -3.919  12.044  0.00  0.00    +0.100 A 
ATOM     22  C   UNL     1     -12.062  -4.138  10.861  0.00  0.00    +0.030 A 
ENDROOT
BRANCH  21   9
ATOM      3  O   UNL     1     -12.612  -6.542  13.141  0.00  0.00    -0.252 OA
ATOM      9  N   UNL     1     -12.067  -4.289  13.221  0.00  0.00    -0.265 N 
ATOM     10  N   UNL     1     -11.402  -5.651  14.944  0.00  0.00    -0.269 N 
ATOM     26  C   UNL     1     -12.078  -5.599  13.721  0.00  0.00    +0.308 C 
ATOM     39  H   UNL     1     -11.836  -3.546  13.875  0.00  0.00    +0.157 HD
ATOM     40  H   UNL     1     -11.012  -4.777  15.286  0.00  0.00    +0.156 HD
BRANCH  10  30
ATOM     30  C   UNL     1     -11.188  -6.779  15.771  0.00  0.00    +0.042 A 
ATOM     31  C   UNL     1      -9.891  -7.233  16.010  0.00  0.00    +0.069 A 
ATOM     32  C   UNL     1     -12.275  -7.438  16.346  0.00  0.00    +0.069 A 
ATOM     34  C   UNL     1     -12.063  -8.551  17.161  0.00  0.00    +0.125 A 
ATOM     35  C   UNL     1      -9.680  -8.345  16.824  0.00  0.00    +0.125 A 
ATOM     36  C   UNL     1     -10.766  -9.005  17.399  0.00  0.00    +0.091 A 
BRANCH  34   5
ATOM      5  O   UNL     1     -13.124  -9.194  17.721  0.00  0.00    -0.495 OA
ATOM     37  C   UNL     1     -14.389  -9.045  17.078  0.00  0.00    +0.277 C 
ENDBRANCH  34   5
BRANCH  35   6
ATOM      6  O   UNL     1      -8.415  -8.789  17.056  0.00  0.00    -0.495 OA
ATOM     38  C   UNL     1      -8.276  -9.983  17.823  0.00  0.00    +0.277 C 
ENDBRANCH  35   6
ENDBRANCH  10  30
ENDBRANCH  21   9
BRANCH  20  23
ATOM     23  C   UNL     1     -15.956  -6.631   9.122  0.00  0.00    +0.037 A 
ATOM     24  C   UNL     1     -14.793  -6.838   9.865  0.00  0.00    +0.016 A 
ATOM     25  C   UNL     1     -16.284  -7.502   8.084  0.00  0.00    +0.016 A 
ATOM     27  C   UNL     1     -13.959  -7.916   9.568  0.00  0.00    +0.046 A 
ATOM     28  C   UNL     1     -15.451  -8.580   7.787  0.00  0.00    +0.046 A 
ATOM     29  C   UNL     1     -14.289  -8.787   8.529  0.00  0.00    +0.120 A 
BRANCH  29   4
ATOM      4  O   UNL     1     -13.473  -9.838   8.238  0.00  0.00    -0.495 OA
ATOM     33  C   UNL     1     -12.086  -9.686   8.542  0.00  0.00    +0.277 C 
ENDBRANCH  29   4
ENDBRANCH  20  23
TORSDOF 6
ENDMDL
MODEL 6
REMARK VINA RESULT:      -6.7      4.483      7.322
REMARK  Name = 7143032
REMARK  9 active torsions:
REMARK  status: ('A' for Active; 'I' for Inactive)
REMARK    1  A    between atoms: O_4  and  C_29
REMARK    2  A    between atoms: O_4  and  C_33
REMARK    3  A    between atoms: O_5  and  C_34
REMARK    4  A    between atoms: O_5  and  C_37
REMARK    5  A    between atoms: O_6  and  C_35
REMARK    6  A    between atoms: O_6  and  C_38
REMARK    7  A    between atoms: N_9  and  C_21
REMARK    8  A    between atoms: N_10  and  C_30
REMARK    9  A    between atoms: C_20  and  C_23
REMARK                            x       y       z     vdW  Elec       q    Type
REMARK                         _______ _______ _______ _____ _____    ______ ____
ROOT
ATOM      1  O   UNL     1      -6.086 -12.853  15.038  0.00  0.00    -0.266 OA
ATOM      2  O   UNL     1     -11.051 -12.151  16.304  0.00  0.00    -0.270 OA
ATOM      7  N   UNL     1      -9.761 -11.659  18.193  0.00  0.00    -0.297 N 
ATOM      8  N   UNL     1      -6.807 -11.996  17.088  0.00  0.00    -0.310 N 
ATOM     11  C   UNL     1      -8.094 -13.403  18.801  0.00  0.00    +0.027 C 
ATOM     12  C   UNL     1      -7.614 -11.034  19.273  0.00  0.00    +0.054 C 
ATOM     13  C   UNL     1      -7.484 -12.452  19.826  0.00  0.00    +0.018 C 
ATOM     14  C   UNL     1      -9.575 -13.061  18.566  0.00  0.00    +0.113 C 
ATOM     15  C   UNL     1      -7.271 -13.327  17.508  0.00  0.00    +0.130 C 
ATOM     16  C   UNL     1      -9.105 -10.688  19.082  0.00  0.00    +0.117 C 
ATOM     17  C   UNL     1      -6.885 -10.897  17.949  0.00  0.00    +0.027 A 
ATOM     18  C   UNL     1      -6.351  -9.717  17.590  0.00  0.00    +0.024 A 
ATOM     19  C   UNL     1      -6.193 -11.910  15.823  0.00  0.00    +0.273 A 
ATOM     20  C   UNL     1     -10.500 -11.343  17.050  0.00  0.00    +0.247 C 
ATOM     21  C   UNL     1      -5.634 -10.572  15.449  0.00  0.00    +0.100 A 
ATOM     22  C   UNL     1      -5.714  -9.555  16.314  0.00  0.00    +0.030 A 
ENDROOT
BRANCH  21   9
ATOM      3  O   UNL     1      -6.983 -10.145  12.982  0.00  0.00    -0.252 OA
ATOM      9  N   UNL     1      -5.048 -10.443  14.225  0.00  0.00    -0.265 N 
ATOM     10  N   UNL     1      -4.873 -10.144  11.956  0.00  0.00    -0.269 N 
ATOM     26  C   UNL     1      -5.758 -10.233  13.035  0.00  0.00    +0.308 C 
ATOM     39  H   UNL     1      -4.084 -10.755  14.140  0.00  0.00    +0.157 HD
ATOM     40  H   UNL     1      -3.883 -10.235  12.172  0.00  0.00    +0.156 HD
BRANCH  10  30
ATOM     30  C   UNL     1      -5.183  -9.936  10.592  0.00  0.00    +0.042 A 
ATOM     31  C   UNL     1      -6.015  -8.880  10.218  0.00  0.00    +0.069 A 
ATOM     32  C   UNL     1      -4.659 -10.789   9.620  0.00  0.00    +0.069 A 
ATOM     34  C   UNL     1      -4.966 -10.584   8.275  0.00  0.00    +0.125 A 
ATOM     35  C   UNL     1      -6.321  -8.676   8.873  0.00  0.00    +0.125 A 
ATOM     36  C   UNL     1      -5.797  -9.528   7.901  0.00  0.00    +0.091 A 
BRANCH  34   5
ATOM      5  O   UNL     1      -4.456 -11.417   7.327  0.00  0.00    -0.495 OA
ATOM     37  C   UNL     1      -5.099 -11.425   6.053  0.00  0.00    +0.277 C 
ENDBRANCH  34   5
BRANCH  35   6
ATOM      6  O   UNL     1      -7.133  -7.646   8.508  0.00  0.00    -0.495 OA
ATOM     38  C   UNL     1      -8.496  -7.718   8.919  0.00  0.00    +0.277 C 
ENDBRANCH  35   6
ENDBRANCH  10  30
ENDBRANCH  21   9
BRANCH  20  23
ATOM     23  C   UNL     1     -10.626  -9.930  16.681  0.00  0.00    +0.037 A 
ATOM     24  C   UNL     1      -9.616  -9.308  15.947  0.00  0.00    +0.016 A 
ATOM     25  C   UNL     1     -11.756  -9.207  17.064  0.00  0.00    +0.016 A 
ATOM     27  C   UNL     1      -9.736  -7.963  15.596  0.00  0.00    +0.046 A 
ATOM     28  C   UNL     1     -11.876  -7.863  16.713  0.00  0.00    +0.046 A 
ATOM     29  C   UNL     1     -10.866  -7.241  15.979  0.00  0.00    +0.120 A 
BRANCH  29   4
ATOM      4  O   UNL     1     -10.982  -5.928  15.638  0.00  0.00    -0.495 OA
ATOM     33  C   UNL     1     -11.955  -5.598  14.648  0.00  0.00    +0.277 C 
ENDBRANCH  29   4
ENDBRANCH  20  23
TORSDOF 6
ENDMDL
MODEL 7
REMARK VINA RESULT:      -6.7     27.343     32.238
REMARK  Name = 7143032
REMARK  9 active torsions:
REMARK  status: ('A' for Active; 'I' for Inactive)
REMARK    1  A    between atoms: O_4  and  C_29
REMARK    2  A    between atoms: O_4  and  C_33
REMARK    3  A    between atoms: O_5  and  C_34
REMARK    4  A    between atoms: O_5  and  C_37
REMARK    5  A    between atoms: O_6  and  C_35
REMARK    6  A    between atoms: O_6  and  C_38
REMARK    7  A    between atoms: N_9  and  C_21
REMARK    8  A    between atoms: N_10  and  C_30
REMARK    9  A    between atoms: C_20  and  C_23
REMARK                            x       y       z     vdW  Elec       q    Type
REMARK                         _______ _______ _______ _____ _____    ______ ____
ROOT
ATOM      1  O   UNL     1      12.536   8.266   3.382  0.00  0.00    -0.266 OA
ATOM      2  O   UNL     1       8.722  10.613   5.968  0.00  0.00    -0.270 OA
ATOM      7  N   UNL     1       8.907   8.435   6.800  0.00  0.00    -0.297 N 
ATOM      8  N   UNL     1      11.395   7.314   5.185  0.00  0.00    -0.310 N 
ATOM     11  C   UNL     1       8.923   6.651   5.065  0.00  0.00    +0.027 C 
ATOM     12  C   UNL     1      10.177   6.332   7.160  0.00  0.00    +0.054 C 
ATOM     13  C   UNL     1       9.293   5.627   6.132  0.00  0.00    +0.018 C 
ATOM     14  C   UNL     1       8.163   7.832   5.696  0.00  0.00    +0.113 C 
ATOM     15  C   UNL     1      10.202   7.104   4.351  0.00  0.00    +0.130 C 
ATOM     16  C   UNL     1       9.390   7.484   7.815  0.00  0.00    +0.117 C 
ATOM     17  C   UNL     1      11.436   6.876   6.512  0.00  0.00    +0.027 A 
ATOM     18  C   UNL     1      12.575   6.973   7.222  0.00  0.00    +0.024 A 
ATOM     19  C   UNL     1      12.519   7.881   4.552  0.00  0.00    +0.273 A 
ATOM     20  C   UNL     1       9.124   9.815   6.812  0.00  0.00    +0.247 C 
ATOM     21  C   UNL     1      13.759   7.996   5.384  0.00  0.00    +0.100 A 
ATOM     22  C   UNL     1      13.757   7.545   6.643  0.00  0.00    +0.030 A 
ENDROOT
BRANCH  21   9
ATOM      3  O   UNL     1      15.830   6.604   4.020  0.00  0.00    -0.252 OA
ATOM      9  N   UNL     1      14.863   8.557   4.813  0.00  0.00    -0.265 N 
ATOM     10  N   UNL     1      16.854   8.688   3.679  0.00  0.00    -0.269 N 
ATOM     26  C   UNL     1      15.859   7.826   4.151  0.00  0.00    +0.308 C 
ATOM     39  H   UNL     1      15.094   9.507   5.093  0.00  0.00    +0.157 HD
ATOM     40  H   UNL     1      16.724   9.679   3.868  0.00  0.00    +0.156 HD
BRANCH  10  30
ATOM     30  C   UNL     1      18.026   8.352   2.961  0.00  0.00    +0.042 A 
ATOM     31  C   UNL     1      17.998   8.298   1.567  0.00  0.00    +0.069 A 
ATOM     32  C   UNL     1      19.208   8.075   3.647  0.00  0.00    +0.069 A 
ATOM     34  C   UNL     1      20.363   7.743   2.939  0.00  0.00    +0.125 A 
ATOM     35  C   UNL     1      19.153   7.966   0.860  0.00  0.00    +0.125 A 
ATOM     36  C   UNL     1      20.336   7.688   1.545  0.00  0.00    +0.091 A 
BRANCH  34   5
ATOM      5  O   UNL     1      21.516   7.471   3.609  0.00  0.00    -0.495 OA
ATOM     37  C   UNL     1      21.436   6.545   4.692  0.00  0.00    +0.277 C 
ENDBRANCH  34   5
BRANCH  35   6
ATOM      6  O   UNL     1      19.127   7.912  -0.500  0.00  0.00    -0.495 OA
ATOM     38  C   UNL     1      18.201   7.006  -1.096  0.00  0.00    +0.277 C 
ENDBRANCH  35   6
ENDBRANCH  10  30
ENDBRANCH  21   9
BRANCH  20  23
ATOM     23  C   UNL     1       9.914  10.378   7.912  0.00  0.00    +0.037 A 
ATOM     24  C   UNL     1       9.281  10.804   9.079  0.00  0.00    +0.016 A 
ATOM     25  C   UNL     1      11.299  10.486   7.790  0.00  0.00    +0.016 A 
ATOM     27  C   UNL     1      10.034  11.340  10.125  0.00  0.00    +0.046 A 
ATOM     28  C   UNL     1      12.052  11.021   8.835  0.00  0.00    +0.046 A 
ATOM     29  C   UNL     1      11.419  11.447  10.002  0.00  0.00    +0.120 A 
BRANCH  29   4
ATOM      4  O   UNL     1      12.153  11.972  11.023  0.00  0.00    -0.495 OA
ATOM     33  C   UNL     1      11.465  12.246  12.243  0.00  0.00    +0.277 C 
ENDBRANCH  29   4
ENDBRANCH  20  23
TORSDOF 6
ENDMDL
MODEL 8
REMARK VINA RESULT:      -6.7     27.280     32.164
REMARK  Name = 7143032
REMARK  9 active torsions:
REMARK  status: ('A' for Active; 'I' for Inactive)
REMARK    1  A    between atoms: O_4  and  C_29
REMARK    2  A    between atoms: O_4  and  C_33
REMARK    3  A    between atoms: O_5  and  C_34
REMARK    4  A    between atoms: O_5  and  C_37
REMARK    5  A    between atoms: O_6  and  C_35
REMARK    6  A    between atoms: O_6  and  C_38
REMARK    7  A    between atoms: N_9  and  C_21
REMARK    8  A    between atoms: N_10  and  C_30
REMARK    9  A    between atoms: C_20  and  C_23
REMARK                            x       y       z     vdW  Elec       q    Type
REMARK                         _______ _______ _______ _____ _____    ______ ____
ROOT
ATOM      1  O   UNL     1      12.550   8.144   3.437  0.00  0.00    -0.266 OA
ATOM      2  O   UNL     1       8.636  10.455   5.902  0.00  0.00    -0.270 OA
ATOM      7  N   UNL     1       8.861   8.302   6.790  0.00  0.00    -0.297 N 
ATOM      8  N   UNL     1      11.403   7.206   5.243  0.00  0.00    -0.310 N 
ATOM     11  C   UNL     1       8.950   6.479   5.099  0.00  0.00    +0.027 C 
ATOM     12  C   UNL     1      10.176   6.241   7.221  0.00  0.00    +0.054 C 
ATOM     13  C   UNL     1       9.327   5.490   6.196  0.00  0.00    +0.018 C 
ATOM     14  C   UNL     1       8.151   7.655   5.688  0.00  0.00    +0.113 C 
ATOM     15  C   UNL     1      10.230   6.947   4.395  0.00  0.00    +0.130 C 
ATOM     16  C   UNL     1       9.350   7.388   7.835  0.00  0.00    +0.117 C 
ATOM     17  C   UNL     1      11.432   6.801   6.581  0.00  0.00    +0.027 A 
ATOM     18  C   UNL     1      12.556   6.943   7.306  0.00  0.00    +0.024 A 
ATOM     19  C   UNL     1      12.522   7.786   4.615  0.00  0.00    +0.273 A 
ATOM     20  C   UNL     1       9.043   9.687   6.772  0.00  0.00    +0.247 C 
ATOM     21  C   UNL     1      13.745   7.952   5.464  0.00  0.00    +0.100 A 
ATOM     22  C   UNL     1      13.733   7.532   6.733  0.00  0.00    +0.030 A 
ENDROOT
BRANCH  21   9
ATOM      3  O   UNL     1      15.798   6.596   4.037  0.00  0.00    -0.252 OA
ATOM      9  N   UNL     1      14.844   8.527   4.898  0.00  0.00    -0.265 N 
ATOM     10  N   UNL     1      16.823   8.687   3.746  0.00  0.00    -0.269 N 
ATOM     26  C   UNL     1      15.831   7.814   4.204  0.00  0.00    +0.308 C 
ATOM     39  H   UNL     1      15.081   9.468   5.203  0.00  0.00    +0.157 HD
ATOM     40  H   UNL     1      16.699   9.672   3.966  0.00  0.00    +0.156 HD
BRANCH  10  30
ATOM     30  C   UNL     1      17.986   8.369   3.006  0.00  0.00    +0.042 A 
ATOM     31  C   UNL     1      19.175   8.065   3.671  0.00  0.00    +0.069 A 
ATOM     32  C   UNL     1      17.945   8.362   1.612  0.00  0.00    +0.069 A 
ATOM     34  C   UNL     1      19.092   8.050   0.883  0.00  0.00    +0.125 A 
ATOM     35  C   UNL     1      20.321   7.753   2.941  0.00  0.00    +0.125 A 
ATOM     36  C   UNL     1      20.281   7.746   1.547  0.00  0.00    +0.091 A 
BRANCH  34   5
ATOM      5  O   UNL     1      19.052   8.045  -0.478  0.00  0.00    -0.495 OA
ATOM     37  C   UNL     1      18.256   7.037  -1.101  0.00  0.00    +0.277 C 
ENDBRANCH  34   5
BRANCH  35   6
ATOM      6  O   UNL     1      21.481   7.457   3.589  0.00  0.00    -0.495 OA
ATOM     38  C   UNL     1      21.393   6.580   4.710  0.00  0.00    +0.277 C 
ENDBRANCH  35   6
ENDBRANCH  10  30
ENDBRANCH  21   9
BRANCH  20  23
ATOM     23  C   UNL     1       9.800  10.296   7.870  0.00  0.00    +0.037 A 
ATOM     24  C   UNL     1      11.184  10.434   7.770  0.00  0.00    +0.016 A 
ATOM     25  C   UNL     1       9.136  10.736   9.015  0.00  0.00    +0.016 A 
ATOM     27  C   UNL     1      11.905  11.013   8.816  0.00  0.00    +0.046 A 
ATOM     28  C   UNL     1       9.856  11.315  10.060  0.00  0.00    +0.046 A 
ATOM     29  C   UNL     1      11.240  11.453   9.960  0.00  0.00    +0.120 A 
BRANCH  29   4
ATOM      4  O   UNL     1      11.944  12.016  10.981  0.00  0.00    -0.495 OA
ATOM     33  C   UNL     1      11.234  12.279  12.191  0.00  0.00    +0.277 C 
ENDBRANCH  29   4
ENDBRANCH  20  23
TORSDOF 6
ENDMDL
MODEL 9
REMARK VINA RESULT:      -6.7     27.268     32.096
REMARK  Name = 7143032
REMARK  9 active torsions:
REMARK  status: ('A' for Active; 'I' for Inactive)
REMARK    1  A    between atoms: O_4  and  C_29
REMARK    2  A    between atoms: O_4  and  C_33
REMARK    3  A    between atoms: O_5  and  C_34
REMARK    4  A    between atoms: O_5  and  C_37
REMARK    5  A    between atoms: O_6  and  C_35
REMARK    6  A    between atoms: O_6  and  C_38
REMARK    7  A    between atoms: N_9  and  C_21
REMARK    8  A    between atoms: N_10  and  C_30
REMARK    9  A    between atoms: C_20  and  C_23
REMARK                            x       y       z     vdW  Elec       q    Type
REMARK                         _______ _______ _______ _____ _____    ______ ____
ROOT
ATOM      1  O   UNL     1      12.727   7.441   3.655  0.00  0.00    -0.266 OA
ATOM      2  O   UNL     1       9.326  11.020   5.196  0.00  0.00    -0.270 OA
ATOM      7  N   UNL     1       8.648   8.966   6.089  0.00  0.00    -0.297 N 
ATOM      8  N   UNL     1      10.975   7.029   5.145  0.00  0.00    -0.310 N 
ATOM     11  C   UNL     1       8.512   7.106   4.443  0.00  0.00    +0.027 C 
ATOM     12  C   UNL     1       9.104   6.627   6.784  0.00  0.00    +0.054 C 
ATOM     13  C   UNL     1       8.303   6.119   5.586  0.00  0.00    +0.018 C 
ATOM     14  C   UNL     1       8.025   8.508   4.848  0.00  0.00    +0.113 C 
ATOM     15  C   UNL     1       9.995   7.100   4.051  0.00  0.00    +0.130 C 
ATOM     16  C   UNL     1       8.578   8.013   7.207  0.00  0.00    +0.117 C 
ATOM     17  C   UNL     1      10.582   6.721   6.451  0.00  0.00    +0.027 A 
ATOM     18  C   UNL     1      11.505   6.547   7.413  0.00  0.00    +0.024 A 
ATOM     19  C   UNL     1      12.330   7.186   4.793  0.00  0.00    +0.273 A 
ATOM     20  C   UNL     1       9.266  10.219   6.127  0.00  0.00    +0.247 C 
ATOM     21  C   UNL     1      13.326   7.011   5.898  0.00  0.00    +0.100 A 
ATOM     22  C   UNL     1      12.903   6.696   7.127  0.00  0.00    +0.030 A 
ENDROOT
BRANCH  21   9
ATOM      3  O   UNL     1      14.931   9.260   6.571  0.00  0.00    -0.252 OA
ATOM      9  N   UNL     1      14.647   7.173   5.601  0.00  0.00    -0.265 N 
ATOM     10  N   UNL     1      16.714   8.166   5.508  0.00  0.00    -0.269 N 
ATOM     26  C   UNL     1      15.396   8.303   5.955  0.00  0.00    +0.308 C 
ATOM     39  H   UNL     1      15.036   6.565   4.885  0.00  0.00    +0.157 HD
ATOM     40  H   UNL     1      16.939   7.305   5.015  0.00  0.00    +0.156 HD
BRANCH  10  30
ATOM     30  C   UNL     1      17.784   9.079   5.662  0.00  0.00    +0.042 A 
ATOM     31  C   UNL     1      17.588  10.434   5.397  0.00  0.00    +0.069 A 
ATOM     32  C   UNL     1      19.035   8.623   6.078  0.00  0.00    +0.069 A 
ATOM     34  C   UNL     1      20.089   9.523   6.228  0.00  0.00    +0.125 A 
ATOM     35  C   UNL     1      18.642  11.334   5.548  0.00  0.00    +0.125 A 
ATOM     36  C   UNL     1      19.893  10.879   5.963  0.00  0.00    +0.091 A 
BRANCH  34   5
ATOM      5  O   UNL     1      21.310   9.078   6.632  0.00  0.00    -0.495 OA
ATOM     37  C   UNL     1      22.195   8.598   5.621  0.00  0.00    +0.277 C 
ENDBRANCH  34   5
BRANCH  35   6
ATOM      6  O   UNL     1      18.451  12.656   5.288  0.00  0.00    -0.495 OA
ATOM     38  C   UNL     1      19.380  13.571   5.866  0.00  0.00    +0.277 C 
ENDBRANCH  35   6
ENDBRANCH  10  30
ENDBRANCH  21   9
BRANCH  20  23
ATOM     23  C   UNL     1       9.921  10.626   7.375  0.00  0.00    +0.037 A 
ATOM     24  C   UNL     1      11.295  10.450   7.530  0.00  0.00    +0.016 A 
ATOM     25  C   UNL     1       9.168  11.188   8.406  0.00  0.00    +0.016 A 
ATOM     27  C   UNL     1      11.918  10.837   8.717  0.00  0.00    +0.046 A 
ATOM     28  C   UNL     1       9.790  11.575   9.593  0.00  0.00    +0.046 A 
ATOM     29  C   UNL     1      11.165  11.399   9.748  0.00  0.00    +0.120 A 
BRANCH  29   4
ATOM      4  O   UNL     1      11.773  11.774  10.907  0.00  0.00    -0.495 OA
ATOM     33  C   UNL     1      10.925  12.127  12.000  0.00  0.00    +0.277 C 
ENDBRANCH  29   4
ENDBRANCH  20  23
TORSDOF 6
ENDMDL
MODEL 10
REMARK VINA RESULT:      -6.7      2.516      3.349
REMARK  Name = 7143032
REMARK  9 active torsions:
REMARK  status: ('A' for Active; 'I' for Inactive)
REMARK    1  A    between atoms: O_4  and  C_29
REMARK    2  A    between atoms: O_4  and  C_33
REMARK    3  A    between atoms: O_5  and  C_34
REMARK    4  A    between atoms: O_5  and  C_37
REMARK    5  A    between atoms: O_6  and  C_35
REMARK    6  A    between atoms: O_6  and  C_38
REMARK    7  A    between atoms: N_9  and  C_21
REMARK    8  A    between atoms: N_10  and  C_30
REMARK    9  A    between atoms: C_20  and  C_23
REMARK                            x       y       z     vdW  Elec       q    Type
REMARK                         _______ _______ _______ _____ _____    ______ ____
ROOT
ATOM      1  O   UNL     1      -7.979  -9.173  17.627  0.00  0.00    -0.266 OA
ATOM      2  O   UNL     1      -3.132 -10.380  16.291  0.00  0.00    -0.270 OA
ATOM      7  N   UNL     1      -4.451 -12.286  15.971  0.00  0.00    -0.297 N 
ATOM      8  N   UNL     1      -7.350 -11.216  16.686  0.00  0.00    -0.310 N 
ATOM     11  C   UNL     1      -5.872 -12.911  17.916  0.00  0.00    +0.027 C 
ATOM     12  C   UNL     1      -6.647 -13.393  15.629  0.00  0.00    +0.054 C 
ATOM     13  C   UNL     1      -6.586 -13.945  17.052  0.00  0.00    +0.018 C 
ATOM     14  C   UNL     1      -4.450 -12.658  17.385  0.00  0.00    +0.113 C 
ATOM     15  C   UNL     1      -6.713 -11.628  17.946  0.00  0.00    +0.130 C 
ATOM     16  C   UNL     1      -5.216 -13.185  15.093  0.00  0.00    +0.117 C 
ATOM     17  C   UNL     1      -7.404 -12.079  15.587  0.00  0.00    +0.027 A 
ATOM     18  C   UNL     1      -8.091 -11.728  14.485  0.00  0.00    +0.024 A 
ATOM     19  C   UNL     1      -7.985  -9.959  16.679  0.00  0.00    +0.273 A 
ATOM     20  C   UNL     1      -3.773 -11.135  15.562  0.00  0.00    +0.247 C 
ATOM     21  C   UNL     1      -8.717  -9.594  15.424  0.00  0.00    +0.100 A 
ATOM     22  C   UNL     1      -8.758 -10.460  14.406  0.00  0.00    +0.030 A 
ENDROOT
BRANCH  21   9
ATOM      3  O   UNL     1     -11.324  -9.074  14.416  0.00  0.00    -0.252 OA
ATOM      9  N   UNL     1      -9.330  -8.378  15.371  0.00  0.00    -0.265 N 
ATOM     10  N   UNL     1     -10.960  -6.818  14.948  0.00  0.00    -0.269 N 
ATOM     26  C   UNL     1     -10.620  -8.172  14.863  0.00  0.00    +0.308 C 
ATOM     39  H   UNL     1      -8.737  -7.558  15.475  0.00  0.00    +0.157 HD
ATOM     40  H   UNL     1     -10.261  -6.198  15.350  0.00  0.00    +0.156 HD
BRANCH  10  30
ATOM     30  C   UNL     1     -12.166  -6.198  14.545  0.00  0.00    +0.042 A 
ATOM     31  C   UNL     1     -13.391  -6.713  14.971  0.00  0.00    +0.069 A 
ATOM     32  C   UNL     1     -12.130  -5.073  13.722  0.00  0.00    +0.069 A 
ATOM     34  C   UNL     1     -13.320  -4.462  13.325  0.00  0.00    +0.125 A 
ATOM     35  C   UNL     1     -14.579  -6.102  14.573  0.00  0.00    +0.125 A 
ATOM     36  C   UNL     1     -14.545  -4.977  13.750  0.00  0.00    +0.091 A 
BRANCH  34   5
ATOM      5  O   UNL     1     -13.285  -3.365  12.521  0.00  0.00    -0.495 OA
ATOM     37  C   UNL     1     -12.340  -3.372  11.452  0.00  0.00    +0.277 C 
ENDBRANCH  34   5
BRANCH  35   6
ATOM      6  O   UNL     1     -15.775  -6.605  14.987  0.00  0.00    -0.495 OA
ATOM     38  C   UNL     1     -15.850  -7.078  16.331  0.00  0.00    +0.277 C 
ENDBRANCH  35   6
ENDBRANCH  10  30
ENDBRANCH  21   9
BRANCH  20  23
ATOM     23  C   UNL     1      -3.835 -10.767  14.144  0.00  0.00    +0.037 A 
ATOM     24  C   UNL     1      -2.726 -10.966  13.322  0.00  0.00    +0.016 A 
ATOM     25  C   UNL     1      -5.004 -10.219  13.617  0.00  0.00    +0.016 A 
ATOM     27  C   UNL     1      -2.786 -10.616  11.973  0.00  0.00    +0.046 A 
ATOM     28  C   UNL     1      -5.065  -9.869  12.268  0.00  0.00    +0.046 A 
ATOM     29  C   UNL     1      -3.955 -10.068  11.447  0.00  0.00    +0.120 A 
BRANCH  29   4
ATOM      4  O   UNL     1      -4.012  -9.724  10.130  0.00  0.00    -0.495 OA
ATOM     33  C   UNL     1      -4.863  -8.633   9.780  0.00  0.00    +0.277 C 
ENDBRANCH  29   4
ENDBRANCH  20  23
TORSDOF 6
ENDMDL
