MODEL 1
REMARK VINA RESULT:      -7.8      0.000      0.000
REMARK  Name = 40724278
REMARK  3 active torsions:
REMARK  status: ('A' for Active; 'I' for Inactive)
REMARK    1  A    between atoms: C_12  and  C_13
REMARK    2  A    between atoms: C_21  and  C_23
REMARK    3  A    between atoms: C_24  and  C_27
REMARK                            x       y       z     vdW  Elec       q    Type
REMARK                         _______ _______ _______ _____ _____    ______ ____
ROOT
ATOM      1  O   UNL     1      14.526   6.223  20.493  0.00  0.00    -0.275 OA
ATOM      2  O   UNL     1      10.939   9.883  22.030  0.00  0.00    -0.267 OA
ATOM      3  N   UNL     1      14.091   7.722  18.772  0.00  0.00    -0.300 N 
ATOM      4  N   UNL     1      12.070   9.875  19.990  0.00  0.00    -0.311 N 
ATOM      5  C   UNL     1      11.684   8.077  18.208  0.00  0.00    +0.027 C 
ATOM      6  C   UNL     1      13.311   9.875  17.798  0.00  0.00    +0.054 C 
ATOM      7  C   UNL     1      12.086   9.166  17.222  0.00  0.00    +0.018 C 
ATOM      8  C   UNL     1      12.833   7.071  18.401  0.00  0.00    +0.113 C 
ATOM      9  C   UNL     1      14.472   8.870  17.937  0.00  0.00    +0.117 C 
ATOM     10  C   UNL     1      11.266   8.735  19.528  0.00  0.00    +0.130 C 
ATOM     11  C   UNL     1      13.000  10.490  19.149  0.00  0.00    +0.027 A 
ATOM     13  C   UNL     1      14.864   7.188  19.804  0.00  0.00    +0.219 C 
ATOM     16  C   UNL     1      13.636  11.603  19.548  0.00  0.00    +0.022 A 
ATOM     19  C   UNL     1      11.776  10.377  21.273  0.00  0.00    +0.259 A 
ATOM     21  C   UNL     1      12.531  11.605  21.707  0.00  0.00    +0.047 A 
ATOM     22  C   UNL     1      13.399  12.163  20.849  0.00  0.00    +0.015 A 
ENDROOT
BRANCH  21  23
ATOM     23  C   UNL     1      12.336  12.188  23.046  0.00  0.00    -0.010 A 
ATOM     24  C   UNL     1      11.361  13.159  23.279  0.00  0.00    -0.043 A 
ATOM     25  C   UNL     1      13.149  11.749  24.091  0.00  0.00    +0.009 A 
ATOM     26  C   UNL     1      11.201  13.690  24.559  0.00  0.00    +0.004 A 
ATOM     27  C   UNL     1      10.473  13.652  22.183  0.00  0.00    +0.044 C 
ATOM     28  C   UNL     1      12.988  12.281  25.370  0.00  0.00    +0.001 A 
ATOM     29  C   UNL     1      12.014  13.252  25.605  0.00  0.00    +0.000 A 
ENDBRANCH  21  23
BRANCH  13  12
ATOM     12  C   UNL     1      16.180   7.853  20.069  0.00  0.00    +0.075 C 
ATOM     14  C   UNL     1      16.024   8.885  21.188  0.00  0.00    +0.013 C 
ATOM     15  C   UNL     1      17.219   6.790  20.427  0.00  0.00    +0.013 C 
ATOM     17  C   UNL     1      17.365   9.512  21.561  0.00  0.00    +0.001 C 
ATOM     18  C   UNL     1      18.558   7.419  20.805  0.00  0.00    +0.001 C 
ATOM     20  C   UNL     1      18.402   8.450  21.918  0.00  0.00    +0.000 C 
ENDBRANCH  13  12
TORSDOF 2
ENDMDL
MODEL 2
REMARK VINA RESULT:      -7.1     17.082     20.716
REMARK  Name = 40724278
REMARK  3 active torsions:
REMARK  status: ('A' for Active; 'I' for Inactive)
REMARK    1  A    between atoms: C_12  and  C_13
REMARK    2  A    between atoms: C_21  and  C_23
REMARK    3  A    between atoms: C_24  and  C_27
REMARK                            x       y       z     vdW  Elec       q    Type
REMARK                         _______ _______ _______ _____ _____    ______ ____
ROOT
ATOM      1  O   UNL     1      12.729   6.863  -1.789  0.00  0.00    -0.275 OA
ATOM      2  O   UNL     1      12.430   7.366   3.529  0.00  0.00    -0.267 OA
ATOM      3  N   UNL     1      13.380   4.895  -0.739  0.00  0.00    -0.300 N 
ATOM      4  N   UNL     1      12.955   5.401   2.386  0.00  0.00    -0.311 N 
ATOM      5  C   UNL     1      15.116   5.125   1.041  0.00  0.00    +0.027 C 
ATOM      6  C   UNL     1      13.497   3.277   1.147  0.00  0.00    +0.054 C 
ATOM      7  C   UNL     1      14.964   3.644   1.366  0.00  0.00    +0.018 C 
ATOM      8  C   UNL     1      14.716   5.402  -0.418  0.00  0.00    +0.113 C 
ATOM      9  C   UNL     1      13.122   3.507  -0.330  0.00  0.00    +0.117 C 
ATOM     10  C   UNL     1      14.276   5.937   2.034  0.00  0.00    +0.130 C 
ATOM     11  C   UNL     1      12.589   4.098   2.041  0.00  0.00    +0.027 A 
ATOM     13  C   UNL     1      12.493   5.699  -1.456  0.00  0.00    +0.219 C 
ATOM     16  C   UNL     1      11.426   3.588   2.477  0.00  0.00    +0.022 A 
ATOM     19  C   UNL     1      12.129   6.224   3.176  0.00  0.00    +0.259 A 
ATOM     21  C   UNL     1      10.815   5.637   3.619  0.00  0.00    +0.047 A 
ATOM     22  C   UNL     1      10.526   4.374   3.273  0.00  0.00    +0.015 A 
ENDROOT
BRANCH  21  23
ATOM     23  C   UNL     1       9.854   6.426   4.410  0.00  0.00    -0.010 A 
ATOM     24  C   UNL     1       9.009   7.357   3.805  0.00  0.00    -0.043 A 
ATOM     25  C   UNL     1       9.799   6.225   5.789  0.00  0.00    +0.009 A 
ATOM     26  C   UNL     1       8.110   8.087   4.581  0.00  0.00    +0.004 A 
ATOM     27  C   UNL     1       9.041   7.596   2.330  0.00  0.00    +0.044 C 
ATOM     28  C   UNL     1       8.899   6.957   6.564  0.00  0.00    +0.001 A 
ATOM     29  C   UNL     1       8.054   7.888   5.960  0.00  0.00    +0.000 A 
ENDBRANCH  21  23
BRANCH  13  12
ATOM     12  C   UNL     1      11.178   5.084  -1.824  0.00  0.00    +0.075 C 
ATOM     14  C   UNL     1      10.062   6.121  -1.691  0.00  0.00    +0.013 C 
ATOM     15  C   UNL     1      11.262   4.530  -3.247  0.00  0.00    +0.013 C 
ATOM     17  C   UNL     1       8.720   5.563  -2.157  0.00  0.00    +0.001 C 
ATOM     18  C   UNL     1       9.917   3.976  -3.714  0.00  0.00    +0.001 C 
ATOM     20  C   UNL     1       8.804   5.010  -3.577  0.00  0.00    +0.000 C 
ENDBRANCH  13  12
TORSDOF 2
ENDMDL
MODEL 3
REMARK VINA RESULT:      -7.0     24.908     27.837
REMARK  Name = 40724278
REMARK  3 active torsions:
REMARK  status: ('A' for Active; 'I' for Inactive)
REMARK    1  A    between atoms: C_12  and  C_13
REMARK    2  A    between atoms: C_21  and  C_23
REMARK    3  A    between atoms: C_24  and  C_27
REMARK                            x       y       z     vdW  Elec       q    Type
REMARK                         _______ _______ _______ _____ _____    ______ ____
ROOT
ATOM      1  O   UNL     1     -16.532   9.978  22.800  0.00  0.00    -0.275 OA
ATOM      2  O   UNL     1     -14.306   8.634  18.125  0.00  0.00    -0.267 OA
ATOM      3  N   UNL     1     -15.854   7.755  22.820  0.00  0.00    -0.300 N 
ATOM      4  N   UNL     1     -14.425   7.261  20.007  0.00  0.00    -0.311 N 
ATOM      5  C   UNL     1     -16.641   6.351  20.911  0.00  0.00    +0.027 C 
ATOM      6  C   UNL     1     -14.535   5.792  22.050  0.00  0.00    +0.054 C 
ATOM      7  C   UNL     1     -15.794   5.194  21.427  0.00  0.00    +0.018 C 
ATOM      8  C   UNL     1     -17.021   7.298  22.062  0.00  0.00    +0.113 C 
ATOM      9  C   UNL     1     -14.923   6.696  23.236  0.00  0.00    +0.117 C 
ATOM     10  C   UNL     1     -15.867   7.073  19.801  0.00  0.00    +0.130 C 
ATOM     11  C   UNL     1     -13.748   6.593  21.030  0.00  0.00    +0.027 A 
ATOM     13  C   UNL     1     -15.740   9.104  23.160  0.00  0.00    +0.219 C 
ATOM     16  C   UNL     1     -12.412   6.684  21.125  0.00  0.00    +0.022 A 
ATOM     19  C   UNL     1     -13.750   8.056  19.060  0.00  0.00    +0.259 A 
ATOM     21  C   UNL     1     -12.256   8.168  19.214  0.00  0.00    +0.047 A 
ATOM     22  C   UNL     1     -11.659   7.489  20.204  0.00  0.00    +0.015 A 
ENDROOT
BRANCH  21  23
ATOM     23  C   UNL     1     -11.456   9.010  18.307  0.00  0.00    -0.010 A 
ATOM     24  C   UNL     1     -11.139  10.329  18.634  0.00  0.00    -0.043 A 
ATOM     25  C   UNL     1     -11.014   8.464  17.103  0.00  0.00    +0.009 A 
ATOM     26  C   UNL     1     -10.380  11.101  17.755  0.00  0.00    +0.004 A 
ATOM     27  C   UNL     1     -11.596  10.947  19.916  0.00  0.00    +0.044 C 
ATOM     28  C   UNL     1     -10.254   9.236  16.224  0.00  0.00    +0.001 A 
ATOM     29  C   UNL     1      -9.937  10.555  16.550  0.00  0.00    +0.000 A 
ENDBRANCH  21  23
BRANCH  13  12
ATOM     12  C   UNL     1     -14.566   9.484  24.010  0.00  0.00    +0.075 C 
ATOM     14  C   UNL     1     -13.539  10.243  23.169  0.00  0.00    +0.013 C 
ATOM     15  C   UNL     1     -15.053  10.322  25.194  0.00  0.00    +0.013 C 
ATOM     17  C   UNL     1     -12.374  10.739  24.023  0.00  0.00    +0.001 C 
ATOM     18  C   UNL     1     -13.887  10.821  26.044  0.00  0.00    +0.001 C 
ATOM     20  C   UNL     1     -12.860  11.576  25.204  0.00  0.00    +0.000 C 
ENDBRANCH  13  12
TORSDOF 2
ENDMDL
MODEL 4
REMARK VINA RESULT:      -6.9      1.239      1.946
REMARK  Name = 40724278
REMARK  3 active torsions:
REMARK  status: ('A' for Active; 'I' for Inactive)
REMARK    1  A    between atoms: C_12  and  C_13
REMARK    2  A    between atoms: C_21  and  C_23
REMARK    3  A    between atoms: C_24  and  C_27
REMARK                            x       y       z     vdW  Elec       q    Type
REMARK                         _______ _______ _______ _____ _____    ______ ____
ROOT
ATOM      1  O   UNL     1      15.650   7.673  21.597  0.00  0.00    -0.275 OA
ATOM      2  O   UNL     1      11.031  10.114  22.751  0.00  0.00    -0.267 OA
ATOM      3  N   UNL     1      14.718   8.617  19.689  0.00  0.00    -0.300 N 
ATOM      4  N   UNL     1      12.087  10.136  20.671  0.00  0.00    -0.311 N 
ATOM      5  C   UNL     1      12.334   8.034  19.229  0.00  0.00    +0.027 C 
ATOM      6  C   UNL     1      13.242  10.176  18.433  0.00  0.00    +0.054 C 
ATOM      7  C   UNL     1      12.333   9.008  18.057  0.00  0.00    +0.018 C 
ATOM      8  C   UNL     1      13.759   7.525  19.507  0.00  0.00    +0.113 C 
ATOM      9  C   UNL     1      14.678   9.663  18.657  0.00  0.00    +0.117 C 
ATOM     10  C   UNL     1      11.721   8.730  20.450  0.00  0.00    +0.130 C 
ATOM     11  C   UNL     1      12.745  10.874  19.685  0.00  0.00    +0.027 A 
ATOM     13  C   UNL     1      15.634   8.561  20.741  0.00  0.00    +0.219 C 
ATOM     16  C   UNL     1      12.962  12.187  19.859  0.00  0.00    +0.022 A 
ATOM     19  C   UNL     1      11.644  10.723  21.873  0.00  0.00    +0.259 A 
ATOM     21  C   UNL     1      11.933  12.189  22.055  0.00  0.00    +0.047 A 
ATOM     22  C   UNL     1      12.552  12.850  21.066  0.00  0.00    +0.015 A 
ENDROOT
BRANCH  21  23
ATOM     23  C   UNL     1      11.556  12.893  23.293  0.00  0.00    -0.010 A 
ATOM     24  C   UNL     1      12.384  12.878  24.416  0.00  0.00    -0.043 A 
ATOM     25  C   UNL     1      10.346  13.586  23.327  0.00  0.00    +0.009 A 
ATOM     26  C   UNL     1      11.999  13.555  25.573  0.00  0.00    +0.004 A 
ATOM     27  C   UNL     1      13.687  12.147  24.415  0.00  0.00    +0.044 C 
ATOM     28  C   UNL     1       9.962  14.263  24.485  0.00  0.00    +0.001 A 
ATOM     29  C   UNL     1      10.788  14.248  25.608  0.00  0.00    +0.000 A 
ENDBRANCH  21  23
BRANCH  13  12
ATOM     12  C   UNL     1      16.641   9.667  20.813  0.00  0.00    +0.075 C 
ATOM     14  C   UNL     1      16.162  10.746  21.785  0.00  0.00    +0.013 C 
ATOM     15  C   UNL     1      17.993   9.090  21.237  0.00  0.00    +0.013 C 
ATOM     17  C   UNL     1      17.209  11.842  21.965  0.00  0.00    +0.001 C 
ATOM     18  C   UNL     1      19.038  10.188  21.422  0.00  0.00    +0.001 C 
ATOM     20  C   UNL     1      18.558  11.266  22.389  0.00  0.00    +0.000 C 
ENDBRANCH  13  12
TORSDOF 2
ENDMDL
MODEL 5
REMARK VINA RESULT:      -6.8     28.706     31.354
REMARK  Name = 40724278
REMARK  3 active torsions:
REMARK  status: ('A' for Active; 'I' for Inactive)
REMARK    1  A    between atoms: C_12  and  C_13
REMARK    2  A    between atoms: C_21  and  C_23
REMARK    3  A    between atoms: C_24  and  C_27
REMARK                            x       y       z     vdW  Elec       q    Type
REMARK                         _______ _______ _______ _____ _____    ______ ____
ROOT
ATOM      1  O   UNL     1      -6.744 -11.413  20.436  0.00  0.00    -0.275 OA
ATOM      2  O   UNL     1     -11.709  -9.785  19.286  0.00  0.00    -0.267 OA
ATOM      3  N   UNL     1      -7.939 -13.100  19.375  0.00  0.00    -0.300 N 
ATOM      4  N   UNL     1     -10.779 -11.830  18.656  0.00  0.00    -0.311 N 
ATOM      5  C   UNL     1     -10.170 -13.648  20.354  0.00  0.00    +0.027 C 
ATOM      6  C   UNL     1      -9.762 -14.026  17.958  0.00  0.00    +0.054 C 
ATOM      7  C   UNL     1     -10.427 -14.612  19.202  0.00  0.00    +0.018 C 
ATOM      8  C   UNL     1      -8.659 -13.481  20.592  0.00  0.00    +0.113 C 
ATOM      9  C   UNL     1      -8.242 -13.913  18.188  0.00  0.00    +0.117 C 
ATOM     10  C   UNL     1     -10.856 -12.312  20.042  0.00  0.00    +0.130 C 
ATOM     11  C   UNL     1     -10.334 -12.661  17.626  0.00  0.00    +0.027 A 
ATOM     13  C   UNL     1      -6.984 -12.084  19.429  0.00  0.00    +0.219 C 
ATOM     16  C   UNL     1     -10.386 -12.241  16.352  0.00  0.00    +0.022 A 
ATOM     19  C   UNL     1     -11.277 -10.535  18.409  0.00  0.00    +0.259 A 
ATOM     21  C   UNL     1     -11.289 -10.079  16.974  0.00  0.00    +0.047 A 
ATOM     22  C   UNL     1     -10.866 -10.927  16.026  0.00  0.00    +0.015 A 
ENDROOT
BRANCH  21  23
ATOM     23  C   UNL     1     -11.745  -8.727  16.608  0.00  0.00    -0.010 A 
ATOM     24  C   UNL     1     -10.869  -7.640  16.611  0.00  0.00    -0.043 A 
ATOM     25  C   UNL     1     -13.081  -8.545  16.251  0.00  0.00    +0.009 A 
ATOM     26  C   UNL     1     -11.332  -6.373  16.257  0.00  0.00    +0.004 A 
ATOM     27  C   UNL     1      -9.431  -7.798  16.986  0.00  0.00    +0.044 C 
ATOM     28  C   UNL     1     -13.543  -7.277  15.899  0.00  0.00    +0.001 A 
ATOM     29  C   UNL     1     -12.668  -6.190  15.902  0.00  0.00    +0.000 A 
ENDBRANCH  21  23
BRANCH  13  12
ATOM     12  C   UNL     1      -6.224 -11.809  18.168  0.00  0.00    +0.075 C 
ATOM     14  C   UNL     1      -6.787 -10.564  17.482  0.00  0.00    +0.013 C 
ATOM     15  C   UNL     1      -4.740 -11.645  18.500  0.00  0.00    +0.013 C 
ATOM     17  C   UNL     1      -5.973 -10.189  16.246  0.00  0.00    +0.001 C 
ATOM     18  C   UNL     1      -3.928 -11.266  17.263  0.00  0.00    +0.001 C 
ATOM     20  C   UNL     1      -4.492 -10.025  16.578  0.00  0.00    +0.000 C 
ENDBRANCH  13  12
TORSDOF 2
ENDMDL
MODEL 6
REMARK VINA RESULT:      -6.7      2.561      5.933
REMARK  Name = 40724278
REMARK  3 active torsions:
REMARK  status: ('A' for Active; 'I' for Inactive)
REMARK    1  A    between atoms: C_12  and  C_13
REMARK    2  A    between atoms: C_21  and  C_23
REMARK    3  A    between atoms: C_24  and  C_27
REMARK                            x       y       z     vdW  Elec       q    Type
REMARK                         _______ _______ _______ _____ _____    ______ ____
ROOT
ATOM      1  O   UNL     1      10.602   8.794  21.012  0.00  0.00    -0.275 OA
ATOM      2  O   UNL     1      13.641   9.856  16.739  0.00  0.00    -0.267 OA
ATOM      3  N   UNL     1      12.780   8.057  21.347  0.00  0.00    -0.300 N 
ATOM      4  N   UNL     1      14.406   8.952  18.749  0.00  0.00    -0.311 N 
ATOM      5  C   UNL     1      13.739   6.613  19.550  0.00  0.00    +0.027 C 
ATOM      6  C   UNL     1      15.231   7.998  20.928  0.00  0.00    +0.054 C 
ATOM      7  C   UNL     1      15.082   6.629  20.269  0.00  0.00    +0.018 C 
ATOM      8  C   UNL     1      12.590   6.846  20.547  0.00  0.00    +0.113 C 
ATOM      9  C   UNL     1      14.107   8.199  21.964  0.00  0.00    +0.117 C 
ATOM     10  C   UNL     1      13.761   7.669  18.438  0.00  0.00    +0.130 C 
ATOM     11  C   UNL     1      15.184   9.110  19.898  0.00  0.00    +0.027 A 
ATOM     13  C   UNL     1      11.708   8.931  21.539  0.00  0.00    +0.219 C 
ATOM     16  C   UNL     1      15.862  10.250  20.100  0.00  0.00    +0.022 A 
ATOM     19  C   UNL     1      14.290   9.969  17.780  0.00  0.00    +0.259 A 
ATOM     21  C   UNL     1      15.033  11.249  18.053  0.00  0.00    +0.047 A 
ATOM     22  C   UNL     1      15.779  11.336  19.164  0.00  0.00    +0.015 A 
ENDROOT
BRANCH  21  23
ATOM     23  C   UNL     1      14.944  12.395  17.130  0.00  0.00    -0.010 A 
ATOM     24  C   UNL     1      14.078  13.460  17.379  0.00  0.00    -0.043 A 
ATOM     25  C   UNL     1      15.749  12.400  15.992  0.00  0.00    +0.009 A 
ATOM     26  C   UNL     1      14.018  14.530  16.487  0.00  0.00    +0.004 A 
ATOM     27  C   UNL     1      13.202  13.487  18.589  0.00  0.00    +0.044 C 
ATOM     28  C   UNL     1      15.688  13.471  15.099  0.00  0.00    +0.001 A 
ATOM     29  C   UNL     1      14.822  14.536  15.347  0.00  0.00    +0.000 A 
ENDBRANCH  21  23
BRANCH  13  12
ATOM     12  C   UNL     1      11.951  10.102  22.441  0.00  0.00    +0.075 C 
ATOM     14  C   UNL     1      12.155  11.368  21.607  0.00  0.00    +0.013 C 
ATOM     15  C   UNL     1      10.772  10.248  23.404  0.00  0.00    +0.013 C 
ATOM     17  C   UNL     1      12.302  12.603  22.492  0.00  0.00    +0.001 C 
ATOM     18  C   UNL     1      10.918  11.487  24.285  0.00  0.00    +0.001 C 
ATOM     20  C   UNL     1      11.125  12.749  23.453  0.00  0.00    +0.000 C 
ENDBRANCH  13  12
TORSDOF 2
ENDMDL
MODEL 7
REMARK VINA RESULT:      -6.6     27.048     29.452
REMARK  Name = 40724278
REMARK  3 active torsions:
REMARK  status: ('A' for Active; 'I' for Inactive)
REMARK    1  A    between atoms: C_12  and  C_13
REMARK    2  A    between atoms: C_21  and  C_23
REMARK    3  A    between atoms: C_24  and  C_27
REMARK                            x       y       z     vdW  Elec       q    Type
REMARK                         _______ _______ _______ _____ _____    ______ ____
ROOT
ATOM      1  O   UNL     1      -3.924 -14.614  12.439  0.00  0.00    -0.275 OA
ATOM      2  O   UNL     1      -6.722 -10.296  13.905  0.00  0.00    -0.267 OA
ATOM      3  N   UNL     1      -2.505 -12.913  13.140  0.00  0.00    -0.300 N 
ATOM      4  N   UNL     1      -4.410 -10.539  14.106  0.00  0.00    -0.311 N 
ATOM      5  C   UNL     1      -2.858 -10.682  12.075  0.00  0.00    +0.027 C 
ATOM      6  C   UNL     1      -1.918 -10.816  14.343  0.00  0.00    +0.054 C 
ATOM      7  C   UNL     1      -1.812 -10.083  13.007  0.00  0.00    +0.018 C 
ATOM      8  C   UNL     1      -2.603 -12.186  11.872  0.00  0.00    +0.113 C 
ATOM      9  C   UNL     1      -1.608 -12.312  14.138  0.00  0.00    +0.117 C 
ATOM     10  C   UNL     1      -4.252 -10.405  12.652  0.00  0.00    +0.130 C 
ATOM     11  C   UNL     1      -3.301 -10.656  14.946  0.00  0.00    +0.027 A 
ATOM     13  C   UNL     1      -3.176 -14.128  13.290  0.00  0.00    +0.219 C 
ATOM     16  C   UNL     1      -3.462 -10.656  16.279  0.00  0.00    +0.022 A 
ATOM     19  C   UNL     1      -5.721 -10.434  14.611  0.00  0.00    +0.259 A 
ATOM     21  C   UNL     1      -5.873 -10.472  16.109  0.00  0.00    +0.047 A 
ATOM     22  C   UNL     1      -4.770 -10.567  16.865  0.00  0.00    +0.015 A 
ENDROOT
BRANCH  21  23
ATOM     23  C   UNL     1      -7.202 -10.416  16.742  0.00  0.00    -0.010 A 
ATOM     24  C   UNL     1      -7.868 -11.578  17.134  0.00  0.00    -0.043 A 
ATOM     25  C   UNL     1      -7.793  -9.170  16.949  0.00  0.00    +0.009 A 
ATOM     26  C   UNL     1      -9.125 -11.492  17.733  0.00  0.00    +0.004 A 
ATOM     27  C   UNL     1      -7.265 -12.930  16.929  0.00  0.00    +0.044 C 
ATOM     28  C   UNL     1      -9.051  -9.085  17.547  0.00  0.00    +0.001 A 
ATOM     29  C   UNL     1      -9.717 -10.246  17.939  0.00  0.00    +0.000 A 
ENDBRANCH  21  23
BRANCH  13  12
ATOM     12  C   UNL     1      -2.958 -14.858  14.580  0.00  0.00    +0.075 C 
ATOM     14  C   UNL     1      -4.303 -15.147  15.248  0.00  0.00    +0.013 C 
ATOM     15  C   UNL     1      -2.180 -16.146  14.304  0.00  0.00    +0.013 C 
ATOM     17  C   UNL     1      -4.132 -15.982  16.514  0.00  0.00    +0.001 C 
ATOM     18  C   UNL     1      -2.014 -16.982  15.570  0.00  0.00    +0.001 C 
ATOM     20  C   UNL     1      -3.356 -17.268  16.238  0.00  0.00    +0.000 C 
ENDBRANCH  13  12
TORSDOF 2
ENDMDL
MODEL 8
REMARK VINA RESULT:      -6.5     21.909     25.431
REMARK  Name = 40724278
REMARK  3 active torsions:
REMARK  status: ('A' for Active; 'I' for Inactive)
REMARK    1  A    between atoms: C_12  and  C_13
REMARK    2  A    between atoms: C_21  and  C_23
REMARK    3  A    between atoms: C_24  and  C_27
REMARK                            x       y       z     vdW  Elec       q    Type
REMARK                         _______ _______ _______ _____ _____    ______ ____
ROOT
ATOM      1  O   UNL     1      -3.000  12.250   2.774  0.00  0.00    -0.275 OA
ATOM      2  O   UNL     1      -6.671  10.018   5.962  0.00  0.00    -0.267 OA
ATOM      3  N   UNL     1      -2.021  10.688   4.189  0.00  0.00    -0.300 N 
ATOM      4  N   UNL     1      -4.424   9.399   5.850  0.00  0.00    -0.311 N 
ATOM      5  C   UNL     1      -2.531  10.940   6.621  0.00  0.00    +0.027 C 
ATOM      6  C   UNL     1      -2.004   8.718   5.708  0.00  0.00    +0.054 C 
ATOM      7  C   UNL     1      -1.779   9.645   6.902  0.00  0.00    +0.018 C 
ATOM      8  C   UNL     1      -2.006  11.601   5.335  0.00  0.00    +0.113 C 
ATOM      9  C   UNL     1      -1.426   9.367   4.435  0.00  0.00    +0.117 C 
ATOM     10  C   UNL     1      -4.031  10.634   6.542  0.00  0.00    +0.130 C 
ATOM     11  C   UNL     1      -3.479   8.428   5.512  0.00  0.00    +0.027 A 
ATOM     13  C   UNL     1      -2.504  11.136   2.959  0.00  0.00    +0.219 C 
ATOM     16  C   UNL     1      -3.875   7.255   4.991  0.00  0.00    +0.022 A 
ATOM     19  C   UNL     1      -5.805   9.200   5.647  0.00  0.00    +0.259 A 
ATOM     21  C   UNL     1      -6.214   7.890   5.028  0.00  0.00    +0.047 A 
ATOM     22  C   UNL     1      -5.264   6.989   4.742  0.00  0.00    +0.015 A 
ENDROOT
BRANCH  21  23
ATOM     23  C   UNL     1      -7.627   7.596   4.729  0.00  0.00    -0.010 A 
ATOM     24  C   UNL     1      -8.245   8.099   3.583  0.00  0.00    -0.043 A 
ATOM     25  C   UNL     1      -8.346   6.798   5.617  0.00  0.00    +0.009 A 
ATOM     26  C   UNL     1      -9.584   7.802   3.328  0.00  0.00    +0.004 A 
ATOM     27  C   UNL     1      -7.504   8.957   2.609  0.00  0.00    +0.044 C 
ATOM     28  C   UNL     1      -9.686   6.502   5.361  0.00  0.00    +0.001 A 
ATOM     29  C   UNL     1     -10.304   7.004   4.216  0.00  0.00    +0.000 A 
ENDBRANCH  21  23
BRANCH  13  12
ATOM     12  C   UNL     1      -2.407  10.177   1.812  0.00  0.00    +0.075 C 
ATOM     14  C   UNL     1      -3.585  10.384   0.859  0.00  0.00    +0.013 C 
ATOM     15  C   UNL     1      -1.068  10.378   1.100  0.00  0.00    +0.013 C 
ATOM     17  C   UNL     1      -3.467   9.497  -0.378  0.00  0.00    +0.001 C 
ATOM     18  C   UNL     1      -0.954   9.493  -0.139  0.00  0.00    +0.001 C 
ATOM     20  C   UNL     1      -2.131   9.698  -1.088  0.00  0.00    +0.000 C 
ENDBRANCH  13  12
TORSDOF 2
ENDMDL
MODEL 9
REMARK VINA RESULT:      -6.5     22.595     24.320
REMARK  Name = 40724278
REMARK  3 active torsions:
REMARK  status: ('A' for Active; 'I' for Inactive)
REMARK    1  A    between atoms: C_12  and  C_13
REMARK    2  A    between atoms: C_21  and  C_23
REMARK    3  A    between atoms: C_24  and  C_27
REMARK                            x       y       z     vdW  Elec       q    Type
REMARK                         _______ _______ _______ _____ _____    ______ ____
ROOT
ATOM      1  O   UNL     1       8.827  -7.649  37.726  0.00  0.00    -0.275 OA
ATOM      2  O   UNL     1       9.372  -9.443  32.716  0.00  0.00    -0.267 OA
ATOM      3  N   UNL     1       8.438  -5.945  36.195  0.00  0.00    -0.300 N 
ATOM      4  N   UNL     1       8.659  -7.304  33.313  0.00  0.00    -0.311 N 
ATOM      5  C   UNL     1      10.199  -5.608  34.457  0.00  0.00    +0.027 C 
ATOM      6  C   UNL     1       7.867  -5.003  33.964  0.00  0.00    +0.054 C 
ATOM      7  C   UNL     1       9.319  -4.563  33.782  0.00  0.00    +0.018 C 
ATOM      8  C   UNL     1       9.863  -5.711  35.955  0.00  0.00    +0.113 C 
ATOM      9  C   UNL     1       7.526  -5.051  35.466  0.00  0.00    +0.117 C 
ATOM     10  C   UNL     1      10.021  -6.947  33.732  0.00  0.00    +0.130 C 
ATOM     11  C   UNL     1       7.627  -6.364  33.339  0.00  0.00    +0.027 A 
ATOM     13  C   UNL     1       8.045  -6.908  37.125  0.00  0.00    +0.219 C 
ATOM     16  C   UNL     1       6.420  -6.675  32.839  0.00  0.00    +0.022 A 
ATOM     19  C   UNL     1       8.478  -8.598  32.786  0.00  0.00    +0.259 A 
ATOM     21  C   UNL     1       7.105  -8.929  32.266  0.00  0.00    +0.047 A 
ATOM     22  C   UNL     1       6.158  -7.980  32.300  0.00  0.00    +0.015 A 
ENDROOT
BRANCH  21  23
ATOM     23  C   UNL     1       6.793 -10.268  31.735  0.00  0.00    -0.010 A 
ATOM     24  C   UNL     1       6.338 -11.290  32.570  0.00  0.00    -0.043 A 
ATOM     25  C   UNL     1       6.959 -10.502  30.371  0.00  0.00    +0.009 A 
ATOM     26  C   UNL     1       6.049 -12.546  32.037  0.00  0.00    +0.004 A 
ATOM     27  C   UNL     1       6.148 -11.074  34.036  0.00  0.00    +0.044 C 
ATOM     28  C   UNL     1       6.670 -11.760  29.839  0.00  0.00    +0.001 A 
ATOM     29  C   UNL     1       6.216 -12.782  30.672  0.00  0.00    +0.000 A 
ENDBRANCH  21  23
BRANCH  13  12
ATOM     12  C   UNL     1       6.574  -7.031  37.383  0.00  0.00    +0.075 C 
ATOM     14  C   UNL     1       6.018  -8.255  36.653  0.00  0.00    +0.013 C 
ATOM     15  C   UNL     1       6.333  -7.120  38.891  0.00  0.00    +0.013 C 
ATOM     17  C   UNL     1       4.543  -8.475  36.974  0.00  0.00    +0.001 C 
ATOM     18  C   UNL     1       4.857  -7.345  39.210  0.00  0.00    +0.001 C 
ATOM     20  C   UNL     1       4.302  -8.564  38.479  0.00  0.00    +0.000 C 
ENDBRANCH  13  12
TORSDOF 2
ENDMDL
MODEL 10
REMARK VINA RESULT:      -6.4     27.805     29.800
REMARK  Name = 40724278
REMARK  3 active torsions:
REMARK  status: ('A' for Active; 'I' for Inactive)
REMARK    1  A    between atoms: C_12  and  C_13
REMARK    2  A    between atoms: C_21  and  C_23
REMARK    3  A    between atoms: C_24  and  C_27
REMARK                            x       y       z     vdW  Elec       q    Type
REMARK                         _______ _______ _______ _____ _____    ______ ____
ROOT
ATOM      1  O   UNL     1      -6.642 -13.037   9.690  0.00  0.00    -0.275 OA
ATOM      2  O   UNL     1      -6.656 -10.420  14.356  0.00  0.00    -0.267 OA
ATOM      3  N   UNL     1      -5.155 -11.253   9.637  0.00  0.00    -0.300 N 
ATOM      4  N   UNL     1      -5.232  -9.975  12.563  0.00  0.00    -0.311 N 
ATOM      5  C   UNL     1      -6.074  -9.038  10.334  0.00  0.00    +0.027 C 
ATOM      6  C   UNL     1      -3.681  -9.514  10.633  0.00  0.00    +0.054 C 
ATOM      7  C   UNL     1      -4.679  -8.435  10.220  0.00  0.00    +0.018 C 
ATOM      8  C   UNL     1      -6.211 -10.262   9.412  0.00  0.00    +0.113 C 
ATOM      9  C   UNL     1      -3.788 -10.713   9.671  0.00  0.00    +0.117 C 
ATOM     10  C   UNL     1      -6.343  -9.388  11.802  0.00  0.00    +0.130 C 
ATOM     11  C   UNL     1      -3.930  -9.974  12.056  0.00  0.00    +0.027 A 
ATOM     13  C   UNL     1      -5.487 -12.606   9.720  0.00  0.00    +0.219 C 
ATOM     16  C   UNL     1      -2.912 -10.405  12.817  0.00  0.00    +0.022 A 
ATOM     19  C   UNL     1      -5.527 -10.433  13.862  0.00  0.00    +0.259 A 
ATOM     21  C   UNL     1      -4.369 -10.944  14.677  0.00  0.00    +0.047 A 
ATOM     22  C   UNL     1      -3.140 -10.902  14.145  0.00  0.00    +0.015 A 
ENDROOT
BRANCH  21  23
ATOM     23  C   UNL     1      -4.572 -11.490  16.031  0.00  0.00    -0.010 A 
ATOM     24  C   UNL     1      -4.835 -12.846  16.234  0.00  0.00    -0.043 A 
ATOM     25  C   UNL     1      -4.494 -10.623  17.120  0.00  0.00    +0.009 A 
ATOM     26  C   UNL     1      -5.021 -13.332  17.528  0.00  0.00    +0.004 A 
ATOM     27  C   UNL     1      -4.925 -13.803  15.089  0.00  0.00    +0.044 C 
ATOM     28  C   UNL     1      -4.680 -11.111  18.414  0.00  0.00    +0.001 A 
ATOM     29  C   UNL     1      -4.944 -12.465  18.618  0.00  0.00    +0.000 A 
ENDBRANCH  21  23
BRANCH  13  12
ATOM     12  C   UNL     1      -4.348 -13.568   9.862  0.00  0.00    +0.075 C 
ATOM     14  C   UNL     1      -3.995 -13.742  11.340  0.00  0.00    +0.013 C 
ATOM     15  C   UNL     1      -4.732 -14.900   9.216  0.00  0.00    +0.013 C 
ATOM     17  C   UNL     1      -2.907 -14.795  11.535  0.00  0.00    +0.001 C 
ATOM     18  C   UNL     1      -3.645 -15.954   9.416  0.00  0.00    +0.001 C 
ATOM     20  C   UNL     1      -3.290 -16.125  10.890  0.00  0.00    +0.000 C 
ENDBRANCH  13  12
TORSDOF 2
ENDMDL
