MODEL 1
REMARK VINA RESULT:      -7.6      0.000      0.000
REMARK  Name = 26744570
REMARK  5 active torsions:
REMARK  status: ('A' for Active; 'I' for Inactive)
REMARK    1  A    between atoms: O_3  and  C_14
REMARK    2  A    between atoms: N_5  and  C_8
REMARK    3  A    between atoms: C_9  and  C_18
REMARK    4  A    between atoms: C_19  and  C_20
REMARK    5  A    between atoms: C_20  and  C_21
REMARK                            x       y       z     vdW  Elec       q    Type
REMARK                         _______ _______ _______ _____ _____    ______ ____
ROOT
ATOM      4  O   UNL     1      14.833   6.369  20.252  0.00  0.00    -0.336 OA
ATOM      6  N   UNL     1      15.969   8.249  19.815  0.00  0.00    -0.194 NA
ATOM      7  N   UNL     1      15.966   6.339  21.075  0.00  0.00    -0.061 NA
ATOM     18  C   UNL     1      14.912   7.525  19.544  0.00  0.00    +0.245 A 
ATOM     19  C   UNL     1      16.585   7.482  20.759  0.00  0.00    +0.176 A 
ENDROOT
BRANCH  18   9
ATOM      5  N   UNL     1      13.312   9.197  18.623  0.00  0.00    -0.286 NA
ATOM      9  C   UNL     1      13.787   7.798  18.567  0.00  0.00    +0.149 C 
ATOM     10  C   UNL     1      12.820   9.519  17.285  0.00  0.00    +0.116 C 
ATOM     13  C   UNL     1      14.204   7.582  17.101  0.00  0.00    +0.061 C 
ATOM     14  C   UNL     1      13.885   8.898  16.402  0.00  0.00    +0.130 C 
BRANCH   5   8
ATOM      8  C   UNL     1      12.298   9.420  19.652  0.00  0.00    +0.058 C 
ATOM     11  C   UNL     1      11.656   8.088  20.049  0.00  0.00    +0.019 C 
ATOM     12  C   UNL     1      12.932  10.112  20.864  0.00  0.00    +0.019 C 
ATOM     15  C   UNL     1      10.643   8.273  21.179  0.00  0.00    +0.002 C 
ATOM     16  C   UNL     1      11.918  10.295  21.993  0.00  0.00    +0.002 C 
ATOM     17  C   UNL     1      11.267   8.972  22.384  0.00  0.00    +0.000 C 
ENDBRANCH   5   8
BRANCH  14   3
ATOM      3  O   UNL     1      13.409   8.665  15.090  0.00  0.00    -0.390 OA
ATOM     27  H   UNL     1      13.612   9.456  14.562  0.00  0.00    +0.210 HD
ENDBRANCH  14   3
ENDBRANCH  18   9
BRANCH  19  20
ATOM     20  C   UNL     1      17.846   7.881  21.392  0.00  0.00    +0.116 C 
BRANCH  20  21
ATOM      1 CL   UNL     1      20.048   7.891  23.572  0.00  0.00    -0.083 Cl
ATOM      2  F   UNL     1      21.937   4.002  20.950  0.00  0.00    -0.205 F 
ATOM     21  C   UNL     1      18.964   6.846  21.300  0.00  0.00    -0.021 A 
ATOM     22  C   UNL     1      19.989   6.790  22.243  0.00  0.00    +0.047 A 
ATOM     23  C   UNL     1      18.941   5.942  20.239  0.00  0.00    +0.008 A 
ATOM     24  C   UNL     1      20.993   5.829  22.126  0.00  0.00    +0.058 A 
ATOM     25  C   UNL     1      19.946   4.981  20.121  0.00  0.00    +0.039 A 
ATOM     26  C   UNL     1      20.972   4.924  21.064  0.00  0.00    +0.125 A 
ENDBRANCH  20  21
ENDBRANCH  19  20
TORSDOF 5
ENDMDL
MODEL 2
REMARK VINA RESULT:      -7.6     15.967     19.369
REMARK  Name = 26744570
REMARK  5 active torsions:
REMARK  status: ('A' for Active; 'I' for Inactive)
REMARK    1  A    between atoms: O_3  and  C_14
REMARK    2  A    between atoms: N_5  and  C_8
REMARK    3  A    between atoms: C_9  and  C_18
REMARK    4  A    between atoms: C_19  and  C_20
REMARK    5  A    between atoms: C_20  and  C_21
REMARK                            x       y       z     vdW  Elec       q    Type
REMARK                         _______ _______ _______ _____ _____    ______ ____
ROOT
ATOM      4  O   UNL     1      12.611   5.747   2.830  0.00  0.00    -0.336 OA
ATOM      6  N   UNL     1      10.841   4.376   2.803  0.00  0.00    -0.194 NA
ATOM      7  N   UNL     1      11.638   6.352   3.636  0.00  0.00    -0.061 NA
ATOM     18  C   UNL     1      12.062   4.589   2.379  0.00  0.00    +0.245 A 
ATOM     19  C   UNL     1      10.625   5.482   3.570  0.00  0.00    +0.176 A 
ENDROOT
BRANCH  18   9
ATOM      5  N   UNL     1      12.972   4.245   0.087  0.00  0.00    -0.286 NA
ATOM      9  C   UNL     1      12.927   3.737   1.475  0.00  0.00    +0.149 C 
ATOM     10  C   UNL     1      14.272   3.853  -0.454  0.00  0.00    +0.116 C 
ATOM     13  C   UNL     1      14.398   3.692   1.926  0.00  0.00    +0.061 C 
ATOM     14  C   UNL     1      15.197   4.149   0.711  0.00  0.00    +0.130 C 
BRANCH   5   8
ATOM      8  C   UNL     1      11.864   3.766  -0.738  0.00  0.00    +0.058 C 
ATOM     11  C   UNL     1      11.251   4.935  -1.515  0.00  0.00    +0.019 C 
ATOM     12  C   UNL     1      12.359   2.669  -1.686  0.00  0.00    +0.019 C 
ATOM     15  C   UNL     1      10.138   4.459  -2.448  0.00  0.00    +0.002 C 
ATOM     16  C   UNL     1      11.245   2.196  -2.618  0.00  0.00    +0.002 C 
ATOM     17  C   UNL     1      10.622   3.358  -3.387  0.00  0.00    +0.000 C 
ENDBRANCH   5   8
BRANCH  14   3
ATOM      3  O   UNL     1      16.412   3.431   0.612  0.00  0.00    -0.390 OA
ATOM     27  H   UNL     1      17.080   3.916   1.124  0.00  0.00    +0.210 HD
ENDBRANCH  14   3
ENDBRANCH  18   9
BRANCH  19  20
ATOM     20  C   UNL     1       9.361   5.708   4.280  0.00  0.00    +0.116 C 
BRANCH  20  21
ATOM      1 CL   UNL     1       8.680   8.193   6.000  0.00  0.00    -0.083 Cl
ATOM      2  F   UNL     1       9.730   5.146   9.895  0.00  0.00    -0.205 F 
ATOM     21  C   UNL     1       9.452   5.587   5.799  0.00  0.00    -0.021 A 
ATOM     22  C   UNL     1       9.162   6.663   6.637  0.00  0.00    +0.047 A 
ATOM     23  C   UNL     1       9.836   4.362   6.343  0.00  0.00    +0.008 A 
ATOM     24  C   UNL     1       9.255   6.514   8.021  0.00  0.00    +0.058 A 
ATOM     25  C   UNL     1       9.930   4.213   7.727  0.00  0.00    +0.039 A 
ATOM     26  C   UNL     1       9.639   5.289   8.566  0.00  0.00    +0.125 A 
ENDBRANCH  20  21
ENDBRANCH  19  20
TORSDOF 5
ENDMDL
MODEL 3
REMARK VINA RESULT:      -7.1     27.145     29.103
REMARK  Name = 26744570
REMARK  5 active torsions:
REMARK  status: ('A' for Active; 'I' for Inactive)
REMARK    1  A    between atoms: O_3  and  C_14
REMARK    2  A    between atoms: N_5  and  C_8
REMARK    3  A    between atoms: C_9  and  C_18
REMARK    4  A    between atoms: C_19  and  C_20
REMARK    5  A    between atoms: C_20  and  C_21
REMARK                            x       y       z     vdW  Elec       q    Type
REMARK                         _______ _______ _______ _____ _____    ______ ____
ROOT
ATOM      4  O   UNL     1     -14.866  10.071  22.345  0.00  0.00    -0.336 OA
ATOM      6  N   UNL     1     -12.743   9.833  23.017  0.00  0.00    -0.194 NA
ATOM      7  N   UNL     1     -14.609  11.143  23.209  0.00  0.00    -0.061 NA
ATOM     18  C   UNL     1     -13.717   9.349  22.287  0.00  0.00    +0.245 A 
ATOM     19  C   UNL     1     -13.337  10.932  23.563  0.00  0.00    +0.176 A 
ENDROOT
BRANCH  18   9
ATOM      5  N   UNL     1     -12.389   7.746  20.920  0.00  0.00    -0.286 NA
ATOM      9  C   UNL     1     -13.735   8.119  21.403  0.00  0.00    +0.149 C 
ATOM     10  C   UNL     1     -12.404   6.297  20.734  0.00  0.00    +0.116 C 
ATOM     13  C   UNL     1     -14.251   6.867  22.135  0.00  0.00    +0.061 C 
ATOM     14  C   UNL     1     -13.147   5.830  21.971  0.00  0.00    +0.130 C 
BRANCH   5   8
ATOM      8  C   UNL     1     -11.997   8.455  19.703  0.00  0.00    +0.058 C 
ATOM     11  C   UNL     1     -10.881   9.456  20.019  0.00  0.00    +0.019 C 
ATOM     12  C   UNL     1     -11.552   7.449  18.636  0.00  0.00    +0.019 C 
ATOM     15  C   UNL     1     -10.393  10.162  18.755  0.00  0.00    +0.002 C 
ATOM     16  C   UNL     1     -11.062   8.157  17.374  0.00  0.00    +0.002 C 
ATOM     17  C   UNL     1      -9.959   9.164  17.685  0.00  0.00    +0.000 C 
ENDBRANCH   5   8
BRANCH  14   3
ATOM      3  O   UNL     1     -13.694   4.538  21.798  0.00  0.00    -0.390 OA
ATOM     27  H   UNL     1     -13.391   4.206  20.936  0.00  0.00    +0.210 HD
ENDBRANCH  14   3
ENDBRANCH  18   9
BRANCH  19  20
ATOM     20  C   UNL     1     -12.628  11.830  24.480  0.00  0.00    +0.116 C 
BRANCH  20  21
ATOM      1 CL   UNL     1     -14.781  11.975  26.704  0.00  0.00    -0.083 Cl
ATOM      2  F   UNL     1     -11.324   9.560  29.492  0.00  0.00    -0.205 F 
ATOM     21  C   UNL     1     -12.305  11.226  25.844  0.00  0.00    -0.021 A 
ATOM     22  C   UNL     1     -13.224  11.255  26.893  0.00  0.00    +0.047 A 
ATOM     23  C   UNL     1     -11.056  10.635  26.027  0.00  0.00    +0.008 A 
ATOM     24  C   UNL     1     -12.893  10.691  28.126  0.00  0.00    +0.058 A 
ATOM     25  C   UNL     1     -10.724  10.072  27.259  0.00  0.00    +0.039 A 
ATOM     26  C   UNL     1     -11.643  10.100  28.309  0.00  0.00    +0.125 A 
ENDBRANCH  20  21
ENDBRANCH  19  20
TORSDOF 5
ENDMDL
MODEL 4
REMARK VINA RESULT:      -7.0     27.146     28.839
REMARK  Name = 26744570
REMARK  5 active torsions:
REMARK  status: ('A' for Active; 'I' for Inactive)
REMARK    1  A    between atoms: O_3  and  C_14
REMARK    2  A    between atoms: N_5  and  C_8
REMARK    3  A    between atoms: C_9  and  C_18
REMARK    4  A    between atoms: C_19  and  C_20
REMARK    5  A    between atoms: C_20  and  C_21
REMARK                            x       y       z     vdW  Elec       q    Type
REMARK                         _______ _______ _______ _____ _____    ______ ____
ROOT
ATOM      4  O   UNL     1      -3.038 -10.380  16.489  0.00  0.00    -0.336 OA
ATOM      6  N   UNL     1      -4.568 -11.316  15.150  0.00  0.00    -0.194 NA
ATOM      7  N   UNL     1      -2.343 -10.830  15.360  0.00  0.00    -0.061 NA
ATOM     18  C   UNL     1      -4.341 -10.705  16.286  0.00  0.00    +0.245 A 
ATOM     19  C   UNL     1      -3.314 -11.370  14.617  0.00  0.00    +0.176 A 
ENDROOT
BRANCH  18   9
ATOM      5  N   UNL     1      -6.700 -10.736  17.081  0.00  0.00    -0.286 NA
ATOM      9  C   UNL     1      -5.314 -10.319  17.379  0.00  0.00    +0.149 C 
ATOM     10  C   UNL     1      -7.346 -10.973  18.369  0.00  0.00    +0.116 C 
ATOM     13  C   UNL     1      -4.986 -10.982  18.730  0.00  0.00    +0.061 C 
ATOM     14  C   UNL     1      -6.262 -11.711  19.132  0.00  0.00    +0.130 C 
BRANCH   5   8
ATOM      8  C   UNL     1      -7.430  -9.765  16.268  0.00  0.00    +0.058 C 
ATOM     11  C   UNL     1      -8.037 -10.460  15.045  0.00  0.00    +0.019 C 
ATOM     12  C   UNL     1      -8.514  -9.088  17.115  0.00  0.00    +0.019 C 
ATOM     15  C   UNL     1      -8.874  -9.490  14.212  0.00  0.00    +0.002 C 
ATOM     16  C   UNL     1      -9.349  -8.120  16.279  0.00  0.00    +0.002 C 
ATOM     17  C   UNL     1      -9.947  -8.805  15.054  0.00  0.00    +0.000 C 
ENDBRANCH   5   8
BRANCH  14   3
ATOM      3  O   UNL     1      -6.462 -11.637  20.530  0.00  0.00    -0.390 OA
ATOM     27  H   UNL     1      -7.263 -11.109  20.683  0.00  0.00    +0.210 HD
ENDBRANCH  14   3
ENDBRANCH  18   9
BRANCH  19  20
ATOM     20  C   UNL     1      -3.043 -11.980  13.311  0.00  0.00    +0.116 C 
BRANCH  20  21
ATOM      1 CL   UNL     1      -5.796 -12.036  11.890  0.00  0.00    -0.083 Cl
ATOM      2  F   UNL     1      -3.746  -8.515   8.897  0.00  0.00    -0.205 F 
ATOM     21  C   UNL     1      -3.263 -11.056  12.116  0.00  0.00    -0.021 A 
ATOM     22  C   UNL     1      -4.475 -11.027  11.426  0.00  0.00    +0.047 A 
ATOM     23  C   UNL     1      -2.215 -10.227  11.720  0.00  0.00    +0.008 A 
ATOM     24  C   UNL     1      -4.638 -10.169  10.339  0.00  0.00    +0.058 A 
ATOM     25  C   UNL     1      -2.378  -9.368  10.632  0.00  0.00    +0.039 A 
ATOM     26  C   UNL     1      -3.590  -9.339   9.942  0.00  0.00    +0.125 A 
ENDBRANCH  20  21
ENDBRANCH  19  20
TORSDOF 5
ENDMDL
MODEL 5
REMARK VINA RESULT:      -7.0      2.612      4.316
REMARK  Name = 26744570
REMARK  5 active torsions:
REMARK  status: ('A' for Active; 'I' for Inactive)
REMARK    1  A    between atoms: O_3  and  C_14
REMARK    2  A    between atoms: N_5  and  C_8
REMARK    3  A    between atoms: C_9  and  C_18
REMARK    4  A    between atoms: C_19  and  C_20
REMARK    5  A    between atoms: C_20  and  C_21
REMARK                            x       y       z     vdW  Elec       q    Type
REMARK                         _______ _______ _______ _____ _____    ______ ____
ROOT
ATOM      4  O   UNL     1      14.718  11.533  20.601  0.00  0.00    -0.336 OA
ATOM      6  N   UNL     1      14.981   9.871  22.078  0.00  0.00    -0.194 NA
ATOM      7  N   UNL     1      16.095  11.285  20.666  0.00  0.00    -0.061 NA
ATOM     18  C   UNL     1      14.136  10.658  21.461  0.00  0.00    +0.245 A 
ATOM     19  C   UNL     1      16.169  10.291  21.558  0.00  0.00    +0.176 A 
ENDROOT
BRANCH  18   9
ATOM      5  N   UNL     1      12.030   9.432  21.973  0.00  0.00    -0.286 NA
ATOM      9  C   UNL     1      12.627  10.724  21.575  0.00  0.00    +0.149 C 
ATOM     10  C   UNL     1      10.808   9.751  22.709  0.00  0.00    +0.116 C 
ATOM     13  C   UNL     1      12.153  11.724  22.646  0.00  0.00    +0.061 C 
ATOM     14  C   UNL     1      11.260  10.912  23.576  0.00  0.00    +0.130 C 
BRANCH   5   8
ATOM      8  C   UNL     1      11.776   8.543  20.842  0.00  0.00    +0.058 C 
ATOM     11  C   UNL     1      11.690   9.357  19.547  0.00  0.00    +0.019 C 
ATOM     12  C   UNL     1      12.878   7.482  20.756  0.00  0.00    +0.019 C 
ATOM     15  C   UNL     1      11.501   8.451  18.331  0.00  0.00    +0.002 C 
ATOM     16  C   UNL     1      12.687   6.578  19.539  0.00  0.00    +0.002 C 
ATOM     17  C   UNL     1      12.590   7.386  18.248  0.00  0.00    +0.000 C 
ENDBRANCH   5   8
BRANCH  14   3
ATOM      3  O   UNL     1      10.166  11.688  24.024  0.00  0.00    -0.390 OA
ATOM     27  H   UNL     1       9.827  11.275  24.836  0.00  0.00    +0.210 HD
ENDBRANCH  14   3
ENDBRANCH  18   9
BRANCH  19  20
ATOM     20  C   UNL     1      17.451   9.694  21.949  0.00  0.00    +0.116 C 
BRANCH  20  21
ATOM      1 CL   UNL     1      20.236   8.425  22.432  0.00  0.00    -0.083 Cl
ATOM      2  F   UNL     1      18.542   4.789  19.356  0.00  0.00    -0.205 F 
ATOM     21  C   UNL     1      17.775   8.370  21.262  0.00  0.00    -0.021 A 
ATOM     22  C   UNL     1      19.007   7.740  21.431  0.00  0.00    +0.047 A 
ATOM     23  C   UNL     1      16.801   7.791  20.450  0.00  0.00    +0.008 A 
ATOM     24  C   UNL     1      19.267   6.530  20.788  0.00  0.00    +0.058 A 
ATOM     25  C   UNL     1      17.060   6.581  19.805  0.00  0.00    +0.039 A 
ATOM     26  C   UNL     1      18.293   5.950  19.975  0.00  0.00    +0.125 A 
ENDBRANCH  20  21
ENDBRANCH  19  20
TORSDOF 5
ENDMDL
MODEL 6
REMARK VINA RESULT:      -7.0     14.678     17.738
REMARK  Name = 26744570
REMARK  5 active torsions:
REMARK  status: ('A' for Active; 'I' for Inactive)
REMARK    1  A    between atoms: O_3  and  C_14
REMARK    2  A    between atoms: N_5  and  C_8
REMARK    3  A    between atoms: C_9  and  C_18
REMARK    4  A    between atoms: C_19  and  C_20
REMARK    5  A    between atoms: C_20  and  C_21
REMARK                            x       y       z     vdW  Elec       q    Type
REMARK                         _______ _______ _______ _____ _____    ______ ____
ROOT
ATOM      4  O   UNL     1      11.745   6.846   4.419  0.00  0.00    -0.336 OA
ATOM      6  N   UNL     1      10.598   4.934   4.635  0.00  0.00    -0.194 NA
ATOM      7  N   UNL     1      11.898   6.161   3.207  0.00  0.00    -0.061 NA
ATOM     18  C   UNL     1      10.967   6.056   5.203  0.00  0.00    +0.245 A 
ATOM     19  C   UNL     1      11.193   5.044   3.413  0.00  0.00    +0.176 A 
ENDROOT
BRANCH  18   9
ATOM      5  N   UNL     1       9.196   6.614   6.863  0.00  0.00    -0.286 NA
ATOM      9  C   UNL     1      10.648   6.580   6.587  0.00  0.00    +0.149 C 
ATOM     10  C   UNL     1       9.045   6.430   8.305  0.00  0.00    +0.116 C 
ATOM     13  C   UNL     1      11.241   5.706   7.707  0.00  0.00    +0.061 C 
ATOM     14  C   UNL     1      10.054   5.333   8.587  0.00  0.00    +0.130 C 
BRANCH   5   8
ATOM      8  C   UNL     1       8.549   7.837   6.392  0.00  0.00    +0.058 C 
ATOM     11  C   UNL     1       9.463   9.041   6.645  0.00  0.00    +0.019 C 
ATOM     12  C   UNL     1       8.207   7.705   4.904  0.00  0.00    +0.019 C 
ATOM     15  C   UNL     1       8.851  10.329   6.095  0.00  0.00    +0.002 C 
ATOM     16  C   UNL     1       7.597   8.994   4.357  0.00  0.00    +0.002 C 
ATOM     17  C   UNL     1       8.498  10.198   4.617  0.00  0.00    +0.000 C 
ENDBRANCH   5   8
BRANCH  14   3
ATOM      3  O   UNL     1      10.430   5.305   9.950  0.00  0.00    -0.390 OA
ATOM     27  H   UNL     1      11.280   5.770  10.028  0.00  0.00    +0.210 HD
ENDBRANCH  14   3
ENDBRANCH  18   9
BRANCH  19  20
ATOM     20  C   UNL     1      11.069   4.004   2.386  0.00  0.00    +0.116 C 
BRANCH  20  21
ATOM      1 CL   UNL     1      10.424   4.914  -0.504  0.00  0.00    -0.083 Cl
ATOM      2  F   UNL     1      15.304   3.910  -1.360  0.00  0.00    -0.205 F 
ATOM     21  C   UNL     1      12.192   3.989   1.353  0.00  0.00    -0.021 A 
ATOM     22  C   UNL     1      11.976   4.384   0.032  0.00  0.00    +0.047 A 
ATOM     23  C   UNL     1      13.458   3.568   1.757  0.00  0.00    +0.008 A 
ATOM     24  C   UNL     1      13.027   4.357  -0.884  0.00  0.00    +0.058 A 
ATOM     25  C   UNL     1      14.509   3.541   0.841  0.00  0.00    +0.039 A 
ATOM     26  C   UNL     1      14.294   3.936  -0.480  0.00  0.00    +0.125 A 
ENDBRANCH  20  21
ENDBRANCH  19  20
TORSDOF 5
ENDMDL
MODEL 7
REMARK VINA RESULT:      -6.9     27.419     29.151
REMARK  Name = 26744570
REMARK  5 active torsions:
REMARK  status: ('A' for Active; 'I' for Inactive)
REMARK    1  A    between atoms: O_3  and  C_14
REMARK    2  A    between atoms: N_5  and  C_8
REMARK    3  A    between atoms: C_9  and  C_18
REMARK    4  A    between atoms: C_19  and  C_20
REMARK    5  A    between atoms: C_20  and  C_21
REMARK                            x       y       z     vdW  Elec       q    Type
REMARK                         _______ _______ _______ _____ _____    ______ ____
ROOT
ATOM      4  O   UNL     1      -8.223  -9.436  13.346  0.00  0.00    -0.336 OA
ATOM      6  N   UNL     1      -6.801 -11.156  13.529  0.00  0.00    -0.194 NA
ATOM      7  N   UNL     1      -7.661  -9.613  12.075  0.00  0.00    -0.061 NA
ATOM     18  C   UNL     1      -7.663 -10.383  14.142  0.00  0.00    +0.245 A 
ATOM     19  C   UNL     1      -6.834 -10.646  12.265  0.00  0.00    +0.176 A 
ENDROOT
BRANCH  18   9
ATOM      5  N   UNL     1      -7.092  -9.858  16.508  0.00  0.00    -0.286 NA
ATOM      9  C   UNL     1      -8.112 -10.404  15.588  0.00  0.00    +0.149 C 
ATOM     10  C   UNL     1      -7.821  -9.283  17.637  0.00  0.00    +0.116 C 
ATOM     13  C   UNL     1      -9.366  -9.545  15.835  0.00  0.00    +0.061 C 
ATOM     14  C   UNL     1      -8.968  -8.575  16.941  0.00  0.00    +0.130 C 
BRANCH   5   8
ATOM      8  C   UNL     1      -6.110 -10.853  16.935  0.00  0.00    +0.058 C 
ATOM     11  C   UNL     1      -4.696 -10.280  16.801  0.00  0.00    +0.019 C 
ATOM     12  C   UNL     1      -6.400 -11.283  18.377  0.00  0.00    +0.019 C 
ATOM     15  C   UNL     1      -3.646 -11.266  17.311  0.00  0.00    +0.002 C 
ATOM     16  C   UNL     1      -5.347 -12.268  18.885  0.00  0.00    +0.002 C 
ATOM     17  C   UNL     1      -3.936 -11.707  18.743  0.00  0.00    +0.000 C 
ENDBRANCH   5   8
BRANCH  14   3
ATOM      3  O   UNL     1     -10.052  -8.345  17.819  0.00  0.00    -0.390 OA
ATOM     27  H   UNL     1      -9.790  -7.633  18.427  0.00  0.00    +0.210 HD
ENDBRANCH  14   3
ENDBRANCH  18   9
BRANCH  19  20
ATOM     20  C   UNL     1      -6.015 -11.194  11.178  0.00  0.00    +0.116 C 
BRANCH  20  21
ATOM      1 CL   UNL     1      -5.684  -8.912   9.109  0.00  0.00    -0.083 Cl
ATOM      2  F   UNL     1      -0.883  -8.869  10.692  0.00  0.00    -0.205 F 
ATOM     21  C   UNL     1      -4.641 -10.547  11.024  0.00  0.00    -0.021 A 
ATOM     22  C   UNL     1      -4.416  -9.516  10.113  0.00  0.00    +0.047 A 
ATOM     23  C   UNL     1      -3.598 -11.012  11.824  0.00  0.00    +0.008 A 
ATOM     24  C   UNL     1      -3.147  -8.949  10.001  0.00  0.00    +0.058 A 
ATOM     25  C   UNL     1      -2.328 -10.445  11.712  0.00  0.00    +0.039 A 
ATOM     26  C   UNL     1      -2.102  -9.413  10.800  0.00  0.00    +0.125 A 
ENDBRANCH  20  21
ENDBRANCH  19  20
TORSDOF 5
ENDMDL
MODEL 8
REMARK VINA RESULT:      -6.8     15.098     17.985
REMARK  Name = 26744570
REMARK  5 active torsions:
REMARK  status: ('A' for Active; 'I' for Inactive)
REMARK    1  A    between atoms: O_3  and  C_14
REMARK    2  A    between atoms: N_5  and  C_8
REMARK    3  A    between atoms: C_9  and  C_18
REMARK    4  A    between atoms: C_19  and  C_20
REMARK    5  A    between atoms: C_20  and  C_21
REMARK                            x       y       z     vdW  Elec       q    Type
REMARK                         _______ _______ _______ _____ _____    ______ ____
ROOT
ATOM      4  O   UNL     1      11.338   6.697   3.459  0.00  0.00    -0.336 OA
ATOM      6  N   UNL     1      10.193   4.796   3.158  0.00  0.00    -0.194 NA
ATOM      7  N   UNL     1      12.233   5.792   2.873  0.00  0.00    -0.061 NA
ATOM     18  C   UNL     1      10.161   6.031   3.592  0.00  0.00    +0.245 A 
ATOM     19  C   UNL     1      11.483   4.695   2.726  0.00  0.00    +0.176 A 
ENDROOT
BRANCH  18   9
ATOM      5  N   UNL     1       9.333   7.318   5.556  0.00  0.00    -0.286 NA
ATOM      9  C   UNL     1       9.014   6.802   4.208  0.00  0.00    +0.149 C 
ATOM     10  C   UNL     1       8.550   8.539   5.727  0.00  0.00    +0.116 C 
ATOM     13  C   UNL     1       8.626   8.049   3.391  0.00  0.00    +0.061 C 
ATOM     14  C   UNL     1       8.714   9.208   4.376  0.00  0.00    +0.130 C 
BRANCH   5   8
ATOM      8  C   UNL     1       9.081   6.347   6.619  0.00  0.00    +0.058 C 
ATOM     11  C   UNL     1      10.193   5.294   6.638  0.00  0.00    +0.019 C 
ATOM     12  C   UNL     1       8.978   7.068   7.967  0.00  0.00    +0.019 C 
ATOM     15  C   UNL     1      10.003   4.305   7.787  0.00  0.00    +0.002 C 
ATOM     16  C   UNL     1       8.789   6.077   9.115  0.00  0.00    +0.002 C 
ATOM     17  C   UNL     1       9.888   5.018   9.131  0.00  0.00    +0.000 C 
ENDBRANCH   5   8
BRANCH  14   3
ATOM      3  O   UNL     1       7.690  10.153   4.130  0.00  0.00    -0.390 OA
ATOM     27  H   UNL     1       8.055  10.830   3.536  0.00  0.00    +0.210 HD
ENDBRANCH  14   3
ENDBRANCH  18   9
BRANCH  19  20
ATOM     20  C   UNL     1      12.018   3.463   2.137  0.00  0.00    +0.116 C 
BRANCH  20  21
ATOM      1 CL   UNL     1      11.246   4.026  -0.811  0.00  0.00    -0.083 Cl
ATOM      2  F   UNL     1      16.244   4.230  -1.541  0.00  0.00    -0.205 F 
ATOM     21  C   UNL     1      13.137   3.674   1.121  0.00  0.00    -0.021 A 
ATOM     22  C   UNL     1      12.866   3.930  -0.223  0.00  0.00    +0.047 A 
ATOM     23  C   UNL     1      14.456   3.606   1.566  0.00  0.00    +0.008 A 
ATOM     24  C   UNL     1      13.916   4.119  -1.122  0.00  0.00    +0.058 A 
ATOM     25  C   UNL     1      15.506   3.793   0.667  0.00  0.00    +0.039 A 
ATOM     26  C   UNL     1      15.236   4.050  -0.678  0.00  0.00    +0.125 A 
ENDBRANCH  20  21
ENDBRANCH  19  20
TORSDOF 5
ENDMDL
MODEL 9
REMARK VINA RESULT:      -6.8     31.965     33.264
REMARK  Name = 26744570
REMARK  5 active torsions:
REMARK  status: ('A' for Active; 'I' for Inactive)
REMARK    1  A    between atoms: O_3  and  C_14
REMARK    2  A    between atoms: N_5  and  C_8
REMARK    3  A    between atoms: C_9  and  C_18
REMARK    4  A    between atoms: C_19  and  C_20
REMARK    5  A    between atoms: C_20  and  C_21
REMARK                            x       y       z     vdW  Elec       q    Type
REMARK                         _______ _______ _______ _____ _____    ______ ____
ROOT
ATOM      4  O   UNL     1     -13.477   2.988  31.822  0.00  0.00    -0.336 OA
ATOM      6  N   UNL     1     -15.322   3.520  32.973  0.00  0.00    -0.194 NA
ATOM      7  N   UNL     1     -13.113   4.036  32.676  0.00  0.00    -0.061 NA
ATOM     18  C   UNL     1     -14.792   2.746  32.060  0.00  0.00    +0.245 A 
ATOM     19  C   UNL     1     -14.255   4.294  33.322  0.00  0.00    +0.176 A 
ENDROOT
BRANCH  18   9
ATOM      5  N   UNL     1     -15.430   1.920  29.799  0.00  0.00    -0.286 NA
ATOM      9  C   UNL     1     -15.433   1.639  31.250  0.00  0.00    +0.149 C 
ATOM     10  C   UNL     1     -15.380   0.623  29.127  0.00  0.00    +0.116 C 
ATOM     13  C   UNL     1     -14.698   0.293  31.392  0.00  0.00    +0.061 C 
ATOM     14  C   UNL     1     -14.360  -0.124  29.966  0.00  0.00    +0.130 C 
BRANCH   5   8
ATOM      8  C   UNL     1     -16.573   2.721  29.365  0.00  0.00    +0.058 C 
ATOM     11  C   UNL     1     -16.082   3.982  28.646  0.00  0.00    +0.019 C 
ATOM     12  C   UNL     1     -17.481   1.884  28.458  0.00  0.00    +0.019 C 
ATOM     15  C   UNL     1     -17.251   4.807  28.110  0.00  0.00    +0.002 C 
ATOM     16  C   UNL     1     -18.648   2.712  27.923  0.00  0.00    +0.002 C 
ATOM     17  C   UNL     1     -18.165   3.975  27.215  0.00  0.00    +0.000 C 
ENDBRANCH   5   8
BRANCH  14   3
ATOM      3  O   UNL     1     -14.480  -1.525  29.813  0.00  0.00    -0.390 OA
ATOM     27  H   UNL     1     -14.482  -1.715  28.859  0.00  0.00    +0.210 HD
ENDBRANCH  14   3
ENDBRANCH  18   9
BRANCH  19  20
ATOM     20  C   UNL     1     -14.349   5.343  34.343  0.00  0.00    +0.116 C 
BRANCH  20  21
ATOM      1 CL   UNL     1     -12.695   7.091  36.294  0.00  0.00    -0.083 Cl
ATOM      2  F   UNL     1     -12.756  10.453  32.518  0.00  0.00    -0.205 F 
ATOM     21  C   UNL     1     -13.905   6.728  33.879  0.00  0.00    -0.021 A 
ATOM     22  C   UNL     1     -13.159   7.571  34.702  0.00  0.00    +0.047 A 
ATOM     23  C   UNL     1     -14.263   7.142  32.596  0.00  0.00    +0.008 A 
ATOM     24  C   UNL     1     -12.771   8.829  34.242  0.00  0.00    +0.058 A 
ATOM     25  C   UNL     1     -13.874   8.401  32.137  0.00  0.00    +0.039 A 
ATOM     26  C   UNL     1     -13.128   9.245  32.960  0.00  0.00    +0.125 A 
ENDBRANCH  20  21
ENDBRANCH  19  20
TORSDOF 5
ENDMDL
MODEL 10
REMARK VINA RESULT:      -6.6     32.240     33.382
REMARK  Name = 26744570
REMARK  5 active torsions:
REMARK  status: ('A' for Active; 'I' for Inactive)
REMARK    1  A    between atoms: O_3  and  C_14
REMARK    2  A    between atoms: N_5  and  C_8
REMARK    3  A    between atoms: C_9  and  C_18
REMARK    4  A    between atoms: C_19  and  C_20
REMARK    5  A    between atoms: C_20  and  C_21
REMARK                            x       y       z     vdW  Elec       q    Type
REMARK                         _______ _______ _______ _____ _____    ______ ____
ROOT
ATOM      4  O   UNL     1     -13.749   2.367  32.383  0.00  0.00    -0.336 OA
ATOM      6  N   UNL     1     -15.815   3.209  32.576  0.00  0.00    -0.194 NA
ATOM      7  N   UNL     1     -13.669   3.375  33.351  0.00  0.00    -0.061 NA
ATOM     18  C   UNL     1     -15.045   2.334  31.978  0.00  0.00    +0.245 A 
ATOM     19  C   UNL     1     -14.928   3.824  33.408  0.00  0.00    +0.176 A 
ENDROOT
BRANCH  18   9
ATOM      5  N   UNL     1     -14.961   1.717  29.567  0.00  0.00    -0.286 NA
ATOM      9  C   UNL     1     -15.398   1.311  30.919  0.00  0.00    +0.149 C 
ATOM     10  C   UNL     1     -14.693   0.483  28.831  0.00  0.00    +0.116 C 
ATOM     13  C   UNL     1     -14.722  -0.052  31.158  0.00  0.00    +0.061 C 
ATOM     14  C   UNL     1     -13.964  -0.348  29.870  0.00  0.00    +0.130 C 
BRANCH   5   8
ATOM      8  C   UNL     1     -15.929   2.569  28.880  0.00  0.00    +0.058 C 
ATOM     11  C   UNL     1     -17.353   2.157  29.268  0.00  0.00    +0.019 C 
ATOM     12  C   UNL     1     -15.665   4.039  29.225  0.00  0.00    +0.019 C 
ATOM     15  C   UNL     1     -18.392   3.077  28.628  0.00  0.00    +0.002 C 
ATOM     16  C   UNL     1     -16.706   4.956  28.585  0.00  0.00    +0.002 C 
ATOM     17  C   UNL     1     -18.126   4.542  28.959  0.00  0.00    +0.000 C 
ENDBRANCH   5   8
BRANCH  14   3
ATOM      3  O   UNL     1     -14.014  -1.729  29.566  0.00  0.00    -0.390 OA
ATOM     27  H   UNL     1     -13.242  -2.147  29.982  0.00  0.00    +0.210 HD
ENDBRANCH  14   3
ENDBRANCH  18   9
BRANCH  19  20
ATOM     20  C   UNL     1     -15.324   4.908  34.312  0.00  0.00    +0.116 C 
BRANCH  20  21
ATOM      1 CL   UNL     1     -15.222   6.690  31.780  0.00  0.00    -0.083 Cl
ATOM      2  F   UNL     1     -11.830   9.353  34.417  0.00  0.00    -0.205 F 
ATOM     21  C   UNL     1     -14.390   6.115  34.311  0.00  0.00    -0.021 A 
ATOM     22  C   UNL     1     -14.290   6.962  33.207  0.00  0.00    +0.047 A 
ATOM     23  C   UNL     1     -13.627   6.362  35.451  0.00  0.00    +0.008 A 
ATOM     24  C   UNL     1     -13.426   8.056  33.243  0.00  0.00    +0.058 A 
ATOM     25  C   UNL     1     -12.761   7.456  35.487  0.00  0.00    +0.039 A 
ATOM     26  C   UNL     1     -12.661   8.303  34.383  0.00  0.00    +0.125 A 
ENDBRANCH  20  21
ENDBRANCH  19  20
TORSDOF 5
ENDMDL
