MODEL 1
REMARK VINA RESULT:      -6.1      0.000      0.000
REMARK  Name = 7114630
REMARK  12 active torsions:
REMARK  status: ('A' for Active; 'I' for Inactive)
REMARK    1  A    between atoms: O_4  and  C_21
REMARK    2  A    between atoms: O_4  and  C_27
REMARK    3  A    between atoms: O_6  and  C_23
REMARK    4  A    between atoms: O_6  and  C_30
REMARK    5  A    between atoms: N_9  and  C_12
REMARK    6  A    between atoms: N_10  and  C_19
REMARK    7  A    between atoms: C_13  and  C_17
REMARK    8  A    between atoms: C_18  and  C_21
REMARK    9  A    between atoms: C_19  and  C_22
REMARK   10  A    between atoms: C_19  and  C_24
REMARK   11  A    between atoms: C_20  and  C_23
REMARK   12  A    between atoms: C_22  and  C_25
REMARK                            x       y       z     vdW  Elec       q    Type
REMARK                         _______ _______ _______ _____ _____    ______ ____
ROOT
ATOM      3  O   UNL     1      12.013   6.575  18.921  0.00  0.00    -0.273 OA
ATOM      8  N   UNL     1      13.890   7.125  20.184  0.00  0.00    -0.288 N 
ATOM     12  C   UNL     1      16.795   7.083  20.466  0.00  0.00    +0.077 C 
ATOM     13  C   UNL     1      14.486   7.569  21.455  0.00  0.00    +0.164 C 
ATOM     14  C   UNL     1      15.885   6.998  21.695  0.00  0.00    +0.054 C 
ATOM     15  C   UNL     1      16.096   6.485  19.248  0.00  0.00    +0.041 C 
ATOM     16  C   UNL     1      14.756   7.167  19.001  0.00  0.00    +0.110 C 
ATOM     18  C   UNL     1      12.535   6.816  20.012  0.00  0.00    +0.242 C 
ENDROOT
BRANCH  13  17
ATOM      2  O   UNL     1      13.981   9.706  20.514  0.00  0.00    -0.274 OA
ATOM     10  N   UNL     1      15.120   9.609  22.542  0.00  0.00    -0.302 N 
ATOM     17  C   UNL     1      14.484   9.069  21.436  0.00  0.00    +0.234 C 
ATOM     32  H   UNL     1      15.490   8.991  23.257  0.00  0.00    +0.150 HD
BRANCH  10  19
ATOM     19  C   UNL     1      15.274  11.030  22.750  0.00  0.00    +0.163 C 
BRANCH  19  24
ATOM      7  O   UNL     1      17.239  12.322  23.363  0.00  0.00    -0.274 OA
ATOM     11  N   UNL     1      17.538  10.271  22.371  0.00  0.00    -0.328 N 
ATOM     24  C   UNL     1      16.767  11.307  22.857  0.00  0.00    +0.231 C 
ATOM     33  H   UNL     1      18.551  10.321  22.397  0.00  0.00    +0.145 HD
ATOM     34  H   UNL     1      17.135   9.436  21.958  0.00  0.00    +0.145 HD
ENDBRANCH  19  24
BRANCH  19  22
ATOM     22  C   UNL     1      14.547  11.515  24.010  0.00  0.00    +0.074 C 
BRANCH  22  25
ATOM      1  S   UNL     1      12.022  12.066  25.049  0.00  0.00    -0.102 S 
ATOM     25  C   UNL     1      13.108  11.883  23.737  0.00  0.00    -0.008 A 
ATOM     26  C   UNL     1      12.495  12.108  22.525  0.00  0.00    +0.011 A 
ATOM     28  C   UNL     1      11.117  12.435  22.673  0.00  0.00    +0.008 A 
ATOM     29  C   UNL     1      10.728  12.447  23.995  0.00  0.00    +0.045 A 
ENDBRANCH  22  25
ENDBRANCH  19  22
ENDBRANCH  10  19
ENDBRANCH  13  17
BRANCH  12   9
ATOM      5  O   UNL     1      19.264   8.276  21.402  0.00  0.00    -0.273 OA
ATOM      9  N   UNL     1      18.051   6.416  20.711  0.00  0.00    -0.310 N 
ATOM     20  C   UNL     1      19.185   7.075  21.161  0.00  0.00    +0.239 C 
ATOM     31  H   UNL     1      18.083   5.407  20.599  0.00  0.00    +0.149 HD
BRANCH  20  23
ATOM     23  C   UNL     1      20.355   6.127  21.329  0.00  0.00    +0.255 C 
BRANCH  23   6
ATOM      6  O   UNL     1      20.586   5.861  22.697  0.00  0.00    -0.374 OA
ATOM     30  C   UNL     1      21.870   5.282  22.913  0.00  0.00    +0.194 C 
ENDBRANCH  23   6
ENDBRANCH  20  23
ENDBRANCH  12   9
BRANCH  18  21
ATOM     21  C   UNL     1      11.684   6.772  21.258  0.00  0.00    +0.255 C 
BRANCH  21   4
ATOM      4  O   UNL     1      10.776   7.840  21.161  0.00  0.00    -0.374 OA
ATOM     27  C   UNL     1      10.776   8.653  22.335  0.00  0.00    +0.194 C 
ENDBRANCH  21   4
ENDBRANCH  18  21
TORSDOF 10
ENDMDL
MODEL 2
REMARK VINA RESULT:      -5.6      2.613      3.504
REMARK  Name = 7114630
REMARK  12 active torsions:
REMARK  status: ('A' for Active; 'I' for Inactive)
REMARK    1  A    between atoms: O_4  and  C_21
REMARK    2  A    between atoms: O_4  and  C_27
REMARK    3  A    between atoms: O_6  and  C_23
REMARK    4  A    between atoms: O_6  and  C_30
REMARK    5  A    between atoms: N_9  and  C_12
REMARK    6  A    between atoms: N_10  and  C_19
REMARK    7  A    between atoms: C_13  and  C_17
REMARK    8  A    between atoms: C_18  and  C_21
REMARK    9  A    between atoms: C_19  and  C_22
REMARK   10  A    between atoms: C_19  and  C_24
REMARK   11  A    between atoms: C_20  and  C_23
REMARK   12  A    between atoms: C_22  and  C_25
REMARK                            x       y       z     vdW  Elec       q    Type
REMARK                         _______ _______ _______ _____ _____    ______ ____
ROOT
ATOM      3  O   UNL     1      12.468   6.484  19.095  0.00  0.00    -0.273 OA
ATOM      8  N   UNL     1      14.522   7.000  20.063  0.00  0.00    -0.288 N 
ATOM     12  C   UNL     1      17.432   6.789  19.980  0.00  0.00    +0.077 C 
ATOM     13  C   UNL     1      15.303   7.495  21.209  0.00  0.00    +0.164 C 
ATOM     14  C   UNL     1      16.688   6.852  21.316  0.00  0.00    +0.054 C 
ATOM     15  C   UNL     1      16.548   6.151  18.911  0.00  0.00    +0.041 C 
ATOM     16  C   UNL     1      15.228   6.900  18.781  0.00  0.00    +0.110 C 
ATOM     18  C   UNL     1      13.141   6.769  20.089  0.00  0.00    +0.242 C 
ENDROOT
BRANCH  13  17
ATOM      2  O   UNL     1      16.457   9.574  20.976  0.00  0.00    -0.274 OA
ATOM     10  N   UNL     1      14.131   9.581  21.085  0.00  0.00    -0.302 N 
ATOM     17  C   UNL     1      15.382   8.986  21.070  0.00  0.00    +0.234 C 
ATOM     32  H   UNL     1      13.302   9.000  21.152  0.00  0.00    +0.150 HD
BRANCH  10  19
ATOM     19  C   UNL     1      13.933  11.009  20.990  0.00  0.00    +0.163 C 
BRANCH  19  24
ATOM      7  O   UNL     1      12.746  10.710  23.090  0.00  0.00    -0.274 OA
ATOM     11  N   UNL     1      13.518  12.806  22.552  0.00  0.00    -0.328 N 
ATOM     24  C   UNL     1      13.319  11.463  22.306  0.00  0.00    +0.231 C 
ATOM     33  H   UNL     1      13.172  13.236  23.404  0.00  0.00    +0.145 HD
ATOM     34  H   UNL     1      13.996  13.418  21.898  0.00  0.00    +0.145 HD
ENDBRANCH  19  24
BRANCH  19  22
ATOM     22  C   UNL     1      13.027  11.394  19.815  0.00  0.00    +0.074 C 
BRANCH  22  25
ATOM      1  S   UNL     1      12.985   9.780  17.545  0.00  0.00    -0.102 S 
ATOM     25  C   UNL     1      13.644  11.056  18.478  0.00  0.00    -0.008 A 
ATOM     26  C   UNL     1      14.719  11.650  17.856  0.00  0.00    +0.011 A 
ATOM     28  C   UNL     1      15.007  11.051  16.596  0.00  0.00    +0.008 A 
ATOM     29  C   UNL     1      14.139  10.021  16.303  0.00  0.00    +0.045 A 
ENDBRANCH  22  25
ENDBRANCH  19  22
ENDBRANCH  10  19
ENDBRANCH  13  17
BRANCH  12   9
ATOM      5  O   UNL     1      19.968   7.802  20.949  0.00  0.00    -0.273 OA
ATOM      9  N   UNL     1      18.670   6.060  20.117  0.00  0.00    -0.310 N 
ATOM     20  C   UNL     1      19.840   6.634  20.593  0.00  0.00    +0.239 C 
ATOM     31  H   UNL     1      18.664   5.066  19.905  0.00  0.00    +0.149 HD
BRANCH  20  23
ATOM     23  C   UNL     1      20.979   5.636  20.629  0.00  0.00    +0.255 C 
BRANCH  23   6
ATOM      6  O   UNL     1      20.494   4.321  20.463  0.00  0.00    -0.374 OA
ATOM     30  C   UNL     1      21.405   3.352  20.976  0.00  0.00    +0.194 C 
ENDBRANCH  23   6
ENDBRANCH  20  23
ENDBRANCH  12   9
BRANCH  18  21
ATOM     21  C   UNL     1      12.459   6.871  21.432  0.00  0.00    +0.255 C 
BRANCH  21   4
ATOM      4  O   UNL     1      11.088   6.662  21.201  0.00  0.00    -0.374 OA
ATOM     27  C   UNL     1      10.274   7.515  22.004  0.00  0.00    +0.194 C 
ENDBRANCH  21   4
ENDBRANCH  18  21
TORSDOF 10
ENDMDL
MODEL 3
REMARK VINA RESULT:      -5.4     15.588     18.501
REMARK  Name = 7114630
REMARK  12 active torsions:
REMARK  status: ('A' for Active; 'I' for Inactive)
REMARK    1  A    between atoms: O_4  and  C_21
REMARK    2  A    between atoms: O_4  and  C_27
REMARK    3  A    between atoms: O_6  and  C_23
REMARK    4  A    between atoms: O_6  and  C_30
REMARK    5  A    between atoms: N_9  and  C_12
REMARK    6  A    between atoms: N_10  and  C_19
REMARK    7  A    between atoms: C_13  and  C_17
REMARK    8  A    between atoms: C_18  and  C_21
REMARK    9  A    between atoms: C_19  and  C_22
REMARK   10  A    between atoms: C_19  and  C_24
REMARK   11  A    between atoms: C_20  and  C_23
REMARK   12  A    between atoms: C_22  and  C_25
REMARK                            x       y       z     vdW  Elec       q    Type
REMARK                         _______ _______ _______ _____ _____    ______ ____
ROOT
ATOM      3  O   UNL     1       8.348   7.781   7.397  0.00  0.00    -0.273 OA
ATOM      8  N   UNL     1       9.860   6.963   5.826  0.00  0.00    -0.288 N 
ATOM     12  C   UNL     1      10.441   6.313   3.041  0.00  0.00    +0.077 C 
ATOM     13  C   UNL     1      11.110   6.254   5.509  0.00  0.00    +0.164 C 
ATOM     14  C   UNL     1      11.051   5.494   4.182  0.00  0.00    +0.054 C 
ATOM     15  C   UNL     1       9.096   6.896   3.468  0.00  0.00    +0.041 C 
ATOM     16  C   UNL     1       9.242   7.726   4.736  0.00  0.00    +0.110 C 
ATOM     18  C   UNL     1       9.319   7.075   7.113  0.00  0.00    +0.242 C 
ENDROOT
BRANCH  13  17
ATOM      2  O   UNL     1      12.115   8.317   6.171  0.00  0.00    -0.274 OA
ATOM     10  N   UNL     1      13.280   6.909   4.730  0.00  0.00    -0.302 N 
ATOM     17  C   UNL     1      12.207   7.277   5.526  0.00  0.00    +0.234 C 
ATOM     32  H   UNL     1      13.262   6.016   4.248  0.00  0.00    +0.150 HD
BRANCH  10  19
ATOM     19  C   UNL     1      14.454   7.732   4.556  0.00  0.00    +0.163 C 
BRANCH  19  24
ATOM      7  O   UNL     1      16.069   7.818   2.742  0.00  0.00    -0.274 OA
ATOM     11  N   UNL     1      14.852   5.892   3.040  0.00  0.00    -0.328 N 
ATOM     24  C   UNL     1      15.206   7.189   3.350  0.00  0.00    +0.231 C 
ATOM     33  H   UNL     1      15.290   5.405   2.265  0.00  0.00    +0.145 HD
ATOM     34  H   UNL     1      14.139   5.382   3.552  0.00  0.00    +0.145 HD
ENDBRANCH  19  24
BRANCH  19  22
ATOM     22  C   UNL     1      15.356   7.728   5.797  0.00  0.00    +0.074 C 
BRANCH  22  25
ATOM      1  S   UNL     1      17.586   9.394   5.895  0.00  0.00    -0.102 S 
ATOM     25  C   UNL     1      15.913   9.097   6.107  0.00  0.00    -0.008 A 
ATOM     26  C   UNL     1      15.244  10.211   6.562  0.00  0.00    +0.011 A 
ATOM     28  C   UNL     1      16.116  11.324   6.738  0.00  0.00    +0.008 A 
ATOM     29  C   UNL     1      17.419  11.017   6.412  0.00  0.00    +0.045 A 
ENDBRANCH  22  25
ENDBRANCH  19  22
ENDBRANCH  10  19
ENDBRANCH  13  17
BRANCH  12   9
ATOM      5  O   UNL     1      12.459   5.744   1.040  0.00  0.00    -0.273 OA
ATOM      9  N   UNL     1      10.293   5.506   1.854  0.00  0.00    -0.310 N 
ATOM     20  C   UNL     1      11.322   5.290   0.949  0.00  0.00    +0.239 C 
ATOM     31  H   UNL     1       9.406   5.032   1.708  0.00  0.00    +0.149 HD
BRANCH  20  23
ATOM     23  C   UNL     1      10.882   4.406  -0.200  0.00  0.00    +0.255 C 
BRANCH  23   6
ATOM      6  O   UNL     1       9.546   4.686  -0.559  0.00  0.00    -0.374 OA
ATOM     30  C   UNL     1       9.470   5.465  -1.750  0.00  0.00    +0.194 C 
ENDBRANCH  23   6
ENDBRANCH  20  23
ENDBRANCH  12   9
BRANCH  18  21
ATOM     21  C   UNL     1       9.979   6.263   8.201  0.00  0.00    +0.255 C 
BRANCH  21   4
ATOM      4  O   UNL     1       9.327   5.018   8.223  0.00  0.00    -0.374 OA
ATOM     27  C   UNL     1       9.288   4.457   9.535  0.00  0.00    +0.194 C 
ENDBRANCH  21   4
ENDBRANCH  18  21
TORSDOF 10
ENDMDL
MODEL 4
REMARK VINA RESULT:      -5.3     28.769     31.605
REMARK  Name = 7114630
REMARK  12 active torsions:
REMARK  status: ('A' for Active; 'I' for Inactive)
REMARK    1  A    between atoms: O_4  and  C_21
REMARK    2  A    between atoms: O_4  and  C_27
REMARK    3  A    between atoms: O_6  and  C_23
REMARK    4  A    between atoms: O_6  and  C_30
REMARK    5  A    between atoms: N_9  and  C_12
REMARK    6  A    between atoms: N_10  and  C_19
REMARK    7  A    between atoms: C_13  and  C_17
REMARK    8  A    between atoms: C_18  and  C_21
REMARK    9  A    between atoms: C_19  and  C_22
REMARK   10  A    between atoms: C_19  and  C_24
REMARK   11  A    between atoms: C_20  and  C_23
REMARK   12  A    between atoms: C_22  and  C_25
REMARK                            x       y       z     vdW  Elec       q    Type
REMARK                         _______ _______ _______ _____ _____    ______ ____
ROOT
ATOM      3  O   UNL     1      -4.187  -9.893  17.037  0.00  0.00    -0.273 OA
ATOM      8  N   UNL     1      -6.239 -10.836  17.603  0.00  0.00    -0.288 N 
ATOM     12  C   UNL     1      -7.807 -12.444  19.468  0.00  0.00    +0.077 C 
ATOM     13  C   UNL     1      -7.615 -11.211  17.235  0.00  0.00    +0.164 C 
ATOM     14  C   UNL     1      -8.115 -12.457  17.968  0.00  0.00    +0.054 C 
ATOM     15  C   UNL     1      -6.325 -12.156  19.701  0.00  0.00    +0.041 C 
ATOM     16  C   UNL     1      -5.915 -10.849  19.033  0.00  0.00    +0.110 C 
ATOM     18  C   UNL     1      -5.291 -10.332  16.704  0.00  0.00    +0.242 C 
ENDROOT
BRANCH  13  17
ATOM      2  O   UNL     1      -8.061  -8.867  17.361  0.00  0.00    -0.274 OA
ATOM     10  N   UNL     1      -9.747 -10.367  17.931  0.00  0.00    -0.302 N 
ATOM     17  C   UNL     1      -8.479 -10.013  17.502  0.00  0.00    +0.234 C 
ATOM     32  H   UNL     1      -9.997 -11.348  17.999  0.00  0.00    +0.150 HD
BRANCH  10  19
ATOM     19  C   UNL     1     -10.763  -9.400  18.277  0.00  0.00    +0.163 C 
BRANCH  19  24
ATOM      7  O   UNL     1     -12.541  -9.897  19.857  0.00  0.00    -0.274 OA
ATOM     11  N   UNL     1     -10.362 -10.146  20.541  0.00  0.00    -0.328 N 
ATOM     24  C   UNL     1     -11.338  -9.817  19.623  0.00  0.00    +0.231 C 
ATOM     33  H   UNL     1     -10.610 -10.456  21.474  0.00  0.00    +0.145 HD
ATOM     34  H   UNL     1      -9.371 -10.079  20.334  0.00  0.00    +0.145 HD
ENDBRANCH  19  24
BRANCH  19  22
ATOM     22  C   UNL     1     -11.873  -9.319  17.222  0.00  0.00    +0.074 C 
BRANCH  22  25
ATOM      1  S   UNL     1     -13.351  -7.475  15.747  0.00  0.00    -0.102 S 
ATOM     25  C   UNL     1     -11.912  -7.977  16.530  0.00  0.00    -0.008 A 
ATOM     26  C   UNL     1     -10.912  -7.038  16.424  0.00  0.00    +0.011 A 
ATOM     28  C   UNL     1     -11.329  -5.890  15.691  0.00  0.00    +0.008 A 
ATOM     29  C   UNL     1     -12.635  -5.997  15.264  0.00  0.00    +0.045 A 
ENDBRANCH  22  25
ENDBRANCH  19  22
ENDBRANCH  10  19
ENDBRANCH  13  17
BRANCH  12   9
ATOM      5  O   UNL     1     -10.354 -13.109  20.677  0.00  0.00    -0.273 OA
ATOM      9  N   UNL     1      -8.184 -13.694  20.080  0.00  0.00    -0.310 N 
ATOM     20  C   UNL     1      -9.435 -13.921  20.636  0.00  0.00    +0.239 C 
ATOM     31  H   UNL     1      -7.516 -14.460  20.050  0.00  0.00    +0.149 HD
BRANCH  20  23
ATOM     23  C   UNL     1      -9.551 -15.319  21.205  0.00  0.00    +0.255 C 
BRANCH  23   6
ATOM      6  O   UNL     1      -8.600 -15.520  22.229  0.00  0.00    -0.374 OA
ATOM     30  C   UNL     1      -9.142 -15.241  23.517  0.00  0.00    +0.194 C 
ENDBRANCH  23   6
ENDBRANCH  20  23
ENDBRANCH  12   9
BRANCH  18  21
ATOM     21  C   UNL     1      -5.663 -10.348  15.242  0.00  0.00    +0.255 C 
BRANCH  21   4
ATOM      4  O   UNL     1      -4.626 -11.020  14.571  0.00  0.00    -0.374 OA
ATOM     27  C   UNL     1      -4.809 -12.435  14.581  0.00  0.00    +0.194 C 
ENDBRANCH  21   4
ENDBRANCH  18  21
TORSDOF 10
ENDMDL
MODEL 5
REMARK VINA RESULT:      -5.3      3.027      5.902
REMARK  Name = 7114630
REMARK  12 active torsions:
REMARK  status: ('A' for Active; 'I' for Inactive)
REMARK    1  A    between atoms: O_4  and  C_21
REMARK    2  A    between atoms: O_4  and  C_27
REMARK    3  A    between atoms: O_6  and  C_23
REMARK    4  A    between atoms: O_6  and  C_30
REMARK    5  A    between atoms: N_9  and  C_12
REMARK    6  A    between atoms: N_10  and  C_19
REMARK    7  A    between atoms: C_13  and  C_17
REMARK    8  A    between atoms: C_18  and  C_21
REMARK    9  A    between atoms: C_19  and  C_22
REMARK   10  A    between atoms: C_19  and  C_24
REMARK   11  A    between atoms: C_20  and  C_23
REMARK   12  A    between atoms: C_22  and  C_25
REMARK                            x       y       z     vdW  Elec       q    Type
REMARK                         _______ _______ _______ _____ _____    ______ ____
ROOT
ATOM      3  O   UNL     1      12.069  13.492  23.518  0.00  0.00    -0.273 OA
ATOM      8  N   UNL     1      13.136  11.854  22.253  0.00  0.00    -0.288 N 
ATOM     12  C   UNL     1      15.252   9.854  22.053  0.00  0.00    +0.077 C 
ATOM     13  C   UNL     1      13.368  11.192  20.958  0.00  0.00    +0.164 C 
ATOM     14  C   UNL     1      14.781  10.625  20.817  0.00  0.00    +0.054 C 
ATOM     15  C   UNL     1      15.060  10.700  23.310  0.00  0.00    +0.041 C 
ATOM     16  C   UNL     1      13.610  11.146  23.447  0.00  0.00    +0.110 C 
ATOM     18  C   UNL     1      12.374  13.017  22.421  0.00  0.00    +0.242 C 
ENDROOT
BRANCH  13  17
ATOM      2  O   UNL     1      11.193  10.263  21.295  0.00  0.00    -0.274 OA
ATOM     10  N   UNL     1      12.778   9.024  20.124  0.00  0.00    -0.302 N 
ATOM     17  C   UNL     1      12.316  10.131  20.817  0.00  0.00    +0.234 C 
ATOM     32  H   UNL     1      13.724   9.023  19.757  0.00  0.00    +0.150 HD
BRANCH  10  19
ATOM     19  C   UNL     1      11.969   7.854  19.874  0.00  0.00    +0.163 C 
BRANCH  19  24
ATOM      7  O   UNL     1      11.153   6.766  21.887  0.00  0.00    -0.274 OA
ATOM     11  N   UNL     1      13.312   6.359  21.216  0.00  0.00    -0.328 N 
ATOM     24  C   UNL     1      12.078   6.964  21.103  0.00  0.00    +0.231 C 
ATOM     33  H   UNL     1      13.513   5.727  21.984  0.00  0.00    +0.145 HD
ATOM     34  H   UNL     1      14.068   6.529  20.559  0.00  0.00    +0.145 HD
ENDBRANCH  19  24
BRANCH  19  22
ATOM     22  C   UNL     1      12.418   7.094  18.619  0.00  0.00    +0.074 C 
BRANCH  22  25
ATOM      1  S   UNL     1      11.422   8.826  16.679  0.00  0.00    -0.102 S 
ATOM     25  C   UNL     1      12.713   8.018  17.462  0.00  0.00    -0.008 A 
ATOM     26  C   UNL     1      13.932   8.332  16.905  0.00  0.00    +0.011 A 
ATOM     28  C   UNL     1      13.806   9.247  15.820  0.00  0.00    +0.008 A 
ATOM     29  C   UNL     1      12.494   9.598  15.590  0.00  0.00    +0.045 A 
ENDBRANCH  22  25
ENDBRANCH  19  22
ENDBRANCH  10  19
ENDBRANCH  13  17
BRANCH  12   9
ATOM      5  O   UNL     1      16.259   7.326  21.057  0.00  0.00    -0.273 OA
ATOM      9  N   UNL     1      16.632   9.456  21.914  0.00  0.00    -0.310 N 
ATOM     20  C   UNL     1      17.019   8.217  21.424  0.00  0.00    +0.239 C 
ATOM     31  H   UNL     1      17.350  10.140  22.135  0.00  0.00    +0.149 HD
BRANCH  20  23
ATOM     23  C   UNL     1      18.527   8.074  21.389  0.00  0.00    +0.255 C 
BRANCH  23   6
ATOM      6  O   UNL     1      18.911   6.764  21.751  0.00  0.00    -0.374 OA
ATOM     30  C   UNL     1      19.925   6.767  22.751  0.00  0.00    +0.194 C 
ENDBRANCH  23   6
ENDBRANCH  20  23
ENDBRANCH  12   9
BRANCH  18  21
ATOM     21  C   UNL     1      11.917  13.718  21.165  0.00  0.00    +0.255 C 
BRANCH  21   4
ATOM      4  O   UNL     1      12.405  15.035  21.242  0.00  0.00    -0.374 OA
ATOM     27  C   UNL     1      13.708  15.157  20.672  0.00  0.00    +0.194 C 
ENDBRANCH  21   4
ENDBRANCH  18  21
TORSDOF 10
ENDMDL
MODEL 6
REMARK VINA RESULT:      -5.0     27.550     30.162
REMARK  Name = 7114630
REMARK  12 active torsions:
REMARK  status: ('A' for Active; 'I' for Inactive)
REMARK    1  A    between atoms: O_4  and  C_21
REMARK    2  A    between atoms: O_4  and  C_27
REMARK    3  A    between atoms: O_6  and  C_23
REMARK    4  A    between atoms: O_6  and  C_30
REMARK    5  A    between atoms: N_9  and  C_12
REMARK    6  A    between atoms: N_10  and  C_19
REMARK    7  A    between atoms: C_13  and  C_17
REMARK    8  A    between atoms: C_18  and  C_21
REMARK    9  A    between atoms: C_19  and  C_22
REMARK   10  A    between atoms: C_19  and  C_24
REMARK   11  A    between atoms: C_20  and  C_23
REMARK   12  A    between atoms: C_22  and  C_25
REMARK                            x       y       z     vdW  Elec       q    Type
REMARK                         _______ _______ _______ _____ _____    ______ ____
ROOT
ATOM      3  O   UNL     1      -1.893 -12.176  12.360  0.00  0.00    -0.273 OA
ATOM      8  N   UNL     1      -3.819 -10.884  12.154  0.00  0.00    -0.288 N 
ATOM     12  C   UNL     1      -6.023  -9.958  10.479  0.00  0.00    +0.077 C 
ATOM     13  C   UNL     1      -4.710  -9.831  12.670  0.00  0.00    +0.164 C 
ATOM     14  C   UNL     1      -5.429  -9.056  11.565  0.00  0.00    +0.054 C 
ATOM     15  C   UNL     1      -4.962 -10.922   9.953  0.00  0.00    +0.041 C 
ATOM     16  C   UNL     1      -4.358 -11.737  11.089  0.00  0.00    +0.110 C 
ATOM     18  C   UNL     1      -2.575 -11.209  12.708  0.00  0.00    +0.242 C 
ENDROOT
BRANCH  13  17
ATOM      2  O   UNL     1      -5.805 -11.717  13.645  0.00  0.00    -0.274 OA
ATOM     10  N   UNL     1      -6.366  -9.582  14.383  0.00  0.00    -0.302 N 
ATOM     17  C   UNL     1      -5.670 -10.497  13.611  0.00  0.00    +0.234 C 
ATOM     32  H   UNL     1      -6.167  -8.592  14.287  0.00  0.00    +0.150 HD
BRANCH  10  19
ATOM     19  C   UNL     1      -7.368  -9.965  15.351  0.00  0.00    +0.163 C 
BRANCH  19  24
ATOM      7  O   UNL     1      -9.319 -10.217  13.924  0.00  0.00    -0.274 OA
ATOM     11  N   UNL     1      -9.228  -8.421  15.354  0.00  0.00    -0.328 N 
ATOM     24  C   UNL     1      -8.720  -9.566  14.777  0.00  0.00    +0.231 C 
ATOM     33  H   UNL     1     -10.131  -8.053  15.072  0.00  0.00    +0.145 HD
ATOM     34  H   UNL     1      -8.724  -7.894  16.060  0.00  0.00    +0.145 HD
ENDBRANCH  19  24
BRANCH  19  22
ATOM     22  C   UNL     1      -7.146  -9.296  16.713  0.00  0.00    +0.074 C 
BRANCH  22  25
ATOM      1  S   UNL     1      -7.678 -10.982  18.866  0.00  0.00    -0.102 S 
ATOM     25  C   UNL     1      -6.605 -10.258  17.744  0.00  0.00    -0.008 A 
ATOM     26  C   UNL     1      -5.305 -10.669  17.935  0.00  0.00    +0.011 A 
ATOM     28  C   UNL     1      -5.187 -11.590  19.015  0.00  0.00    +0.008 A 
ATOM     29  C   UNL     1      -6.403 -11.848  19.610  0.00  0.00    +0.045 A 
ENDBRANCH  22  25
ENDBRANCH  19  22
ENDBRANCH  10  19
ENDBRANCH  13  17
BRANCH  12   9
ATOM      5  O   UNL     1      -8.747  -9.007  10.214  0.00  0.00    -0.273 OA
ATOM      9  N   UNL     1      -6.573  -9.171   9.402  0.00  0.00    -0.310 N 
ATOM     20  C   UNL     1      -7.898  -8.760   9.362  0.00  0.00    +0.239 C 
ATOM     31  H   UNL     1      -5.942  -8.859   8.670  0.00  0.00    +0.149 HD
BRANCH  20  23
ATOM     23  C   UNL     1      -8.196  -7.949   8.119  0.00  0.00    +0.255 C 
BRANCH  23   6
ATOM      6  O   UNL     1      -7.877  -6.589   8.324  0.00  0.00    -0.374 OA
ATOM     30  C   UNL     1      -9.045  -5.775   8.391  0.00  0.00    +0.194 C 
ENDBRANCH  23   6
ENDBRANCH  20  23
ENDBRANCH  12   9
BRANCH  18  21
ATOM     21  C   UNL     1      -2.054 -10.297  13.792  0.00  0.00    +0.255 C 
BRANCH  21   4
ATOM      4  O   UNL     1      -1.512 -11.127  14.788  0.00  0.00    -0.374 OA
ATOM     27  C   UNL     1      -2.179 -10.968  16.040  0.00  0.00    +0.194 C 
ENDBRANCH  21   4
ENDBRANCH  18  21
TORSDOF 10
ENDMDL
MODEL 7
REMARK VINA RESULT:      -5.0     27.879     30.616
REMARK  Name = 7114630
REMARK  12 active torsions:
REMARK  status: ('A' for Active; 'I' for Inactive)
REMARK    1  A    between atoms: O_4  and  C_21
REMARK    2  A    between atoms: O_4  and  C_27
REMARK    3  A    between atoms: O_6  and  C_23
REMARK    4  A    between atoms: O_6  and  C_30
REMARK    5  A    between atoms: N_9  and  C_12
REMARK    6  A    between atoms: N_10  and  C_19
REMARK    7  A    between atoms: C_13  and  C_17
REMARK    8  A    between atoms: C_18  and  C_21
REMARK    9  A    between atoms: C_19  and  C_22
REMARK   10  A    between atoms: C_19  and  C_24
REMARK   11  A    between atoms: C_20  and  C_23
REMARK   12  A    between atoms: C_22  and  C_25
REMARK                            x       y       z     vdW  Elec       q    Type
REMARK                         _______ _______ _______ _____ _____    ______ ____
ROOT
ATOM      3  O   UNL     1      -1.863 -10.718  16.366  0.00  0.00    -0.273 OA
ATOM      8  N   UNL     1      -4.115 -11.305  16.438  0.00  0.00    -0.288 N 
ATOM     12  C   UNL     1      -6.432 -12.077  18.037  0.00  0.00    +0.077 C 
ATOM     13  C   UNL     1      -5.347 -11.723  15.748  0.00  0.00    +0.164 C 
ATOM     14  C   UNL     1      -6.250 -12.606  16.611  0.00  0.00    +0.054 C 
ATOM     15  C   UNL     1      -5.073 -11.793  18.673  0.00  0.00    +0.041 C 
ATOM     16  C   UNL     1      -4.265 -10.827  17.817  0.00  0.00    +0.110 C 
ATOM     18  C   UNL     1      -2.863 -11.196  15.823  0.00  0.00    +0.242 C 
ENDROOT
BRANCH  13  17
ATOM      2  O   UNL     1      -5.824  -9.384  15.829  0.00  0.00    -0.274 OA
ATOM     10  N   UNL     1      -6.936 -10.707  14.269  0.00  0.00    -0.302 N 
ATOM     17  C   UNL     1      -6.041 -10.471  15.300  0.00  0.00    +0.234 C 
ATOM     32  H   UNL     1      -7.029 -11.645  13.893  0.00  0.00    +0.150 HD
BRANCH  10  19
ATOM     19  C   UNL     1      -7.748  -9.672  13.674  0.00  0.00    +0.163 C 
BRANCH  19  24
ATOM      7  O   UNL     1     -10.004 -10.295  14.330  0.00  0.00    -0.274 OA
ATOM     11  N   UNL     1      -8.943  -8.621  15.494  0.00  0.00    -0.328 N 
ATOM     24  C   UNL     1      -9.023  -9.574  14.500  0.00  0.00    +0.231 C 
ATOM     33  H   UNL     1      -9.720  -8.464  16.127  0.00  0.00    +0.145 HD
ATOM     34  H   UNL     1      -8.126  -8.034  15.625  0.00  0.00    +0.145 HD
ENDBRANCH  19  24
BRANCH  19  22
ATOM     22  C   UNL     1      -8.081  -9.965  12.206  0.00  0.00    +0.074 C 
BRANCH  22  25
ATOM      1  S   UNL     1      -7.306  -9.515   9.569  0.00  0.00    -0.102 S 
ATOM     25  C   UNL     1      -7.050  -9.399  11.259  0.00  0.00    -0.008 A 
ATOM     26  C   UNL     1      -5.866  -8.766  11.560  0.00  0.00    +0.011 A 
ATOM     28  C   UNL     1      -5.157  -8.370  10.389  0.00  0.00    +0.008 A 
ATOM     29  C   UNL     1      -5.829  -8.716   9.237  0.00  0.00    +0.045 A 
ENDBRANCH  22  25
ENDBRANCH  19  22
ENDBRANCH  10  19
ENDBRANCH  13  17
BRANCH  12   9
ATOM      5  O   UNL     1      -8.484 -11.464  19.990  0.00  0.00    -0.273 OA
ATOM      9  N   UNL     1      -7.184 -13.012  18.839  0.00  0.00    -0.310 N 
ATOM     20  C   UNL     1      -8.152 -12.622  19.752  0.00  0.00    +0.239 C 
ATOM     31  H   UNL     1      -7.031 -14.004  18.682  0.00  0.00    +0.149 HD
BRANCH  20  23
ATOM     23  C   UNL     1      -8.777 -13.812  20.450  0.00  0.00    +0.255 C 
BRANCH  23   6
ATOM      6  O   UNL     1     -10.102 -13.519  20.843  0.00  0.00    -0.374 OA
ATOM     30  C   UNL     1     -10.609 -14.488  21.756  0.00  0.00    +0.194 C 
ENDBRANCH  23   6
ENDBRANCH  20  23
ENDBRANCH  12   9
BRANCH  18  21
ATOM     21  C   UNL     1      -2.752 -11.711  14.408  0.00  0.00    +0.255 C 
BRANCH  21   4
ATOM      4  O   UNL     1      -2.834 -10.589  13.565  0.00  0.00    -0.374 OA
ATOM     27  C   UNL     1      -2.168 -10.803  12.321  0.00  0.00    +0.194 C 
ENDBRANCH  21   4
ENDBRANCH  18  21
TORSDOF 10
ENDMDL
MODEL 8
REMARK VINA RESULT:      -4.9     28.187     31.708
REMARK  Name = 7114630
REMARK  12 active torsions:
REMARK  status: ('A' for Active; 'I' for Inactive)
REMARK    1  A    between atoms: O_4  and  C_21
REMARK    2  A    between atoms: O_4  and  C_27
REMARK    3  A    between atoms: O_6  and  C_23
REMARK    4  A    between atoms: O_6  and  C_30
REMARK    5  A    between atoms: N_9  and  C_12
REMARK    6  A    between atoms: N_10  and  C_19
REMARK    7  A    between atoms: C_13  and  C_17
REMARK    8  A    between atoms: C_18  and  C_21
REMARK    9  A    between atoms: C_19  and  C_22
REMARK   10  A    between atoms: C_19  and  C_24
REMARK   11  A    between atoms: C_20  and  C_23
REMARK   12  A    between atoms: C_22  and  C_25
REMARK                            x       y       z     vdW  Elec       q    Type
REMARK                         _______ _______ _______ _____ _____    ______ ____
ROOT
ATOM      3  O   UNL     1     -17.597   0.982  23.113  0.00  0.00    -0.273 OA
ATOM      8  N   UNL     1     -17.135   2.811  24.477  0.00  0.00    -0.288 N 
ATOM     12  C   UNL     1     -16.411   3.822  27.118  0.00  0.00    +0.077 C 
ATOM     13  C   UNL     1     -17.155   4.265  24.711  0.00  0.00    +0.164 C 
ATOM     14  C   UNL     1     -17.315   4.635  26.187  0.00  0.00    +0.054 C 
ATOM     15  C   UNL     1     -16.575   2.328  26.844  0.00  0.00    +0.041 C 
ATOM     16  C   UNL     1     -16.300   2.011  25.380  0.00  0.00    +0.110 C 
ATOM     18  C   UNL     1     -17.729   2.179  23.378  0.00  0.00    +0.242 C 
ENDROOT
BRANCH  13  17
ATOM      2  O   UNL     1     -14.819   4.220  24.210  0.00  0.00    -0.274 OA
ATOM     10  N   UNL     1     -16.085   6.048  23.521  0.00  0.00    -0.302 N 
ATOM     17  C   UNL     1     -15.889   4.817  24.124  0.00  0.00    +0.234 C 
ATOM     32  H   UNL     1     -17.016   6.449  23.492  0.00  0.00    +0.150 HD
BRANCH  10  19
ATOM     19  C   UNL     1     -15.020   6.803  22.901  0.00  0.00    +0.163 C 
BRANCH  19  24
ATOM      7  O   UNL     1     -16.190   8.892  22.485  0.00  0.00    -0.274 OA
ATOM     11  N   UNL     1     -14.587   8.839  24.131  0.00  0.00    -0.328 N 
ATOM     24  C   UNL     1     -15.333   8.277  23.116  0.00  0.00    +0.231 C 
ATOM     33  H   UNL     1     -14.709   9.813  24.387  0.00  0.00    +0.145 HD
ATOM     34  H   UNL     1     -13.884   8.318  24.646  0.00  0.00    +0.145 HD
ENDBRANCH  19  24
BRANCH  19  22
ATOM     22  C   UNL     1     -14.884   6.496  21.405  0.00  0.00    +0.074 C 
BRANCH  22  25
ATOM      1  S   UNL     1     -13.585   8.093  19.529  0.00  0.00    -0.102 S 
ATOM     25  C   UNL     1     -13.574   6.985  20.834  0.00  0.00    -0.008 A 
ATOM     26  C   UNL     1     -12.295   6.658  21.224  0.00  0.00    +0.011 A 
ATOM     28  C   UNL     1     -11.310   7.326  20.441  0.00  0.00    +0.008 A 
ATOM     29  C   UNL     1     -11.874   8.138  19.482  0.00  0.00    +0.045 A 
ENDBRANCH  22  25
ENDBRANCH  19  22
ENDBRANCH  10  19
ENDBRANCH  13  17
BRANCH  12   9
ATOM      5  O   UNL     1     -14.647   3.476  29.391  0.00  0.00    -0.273 OA
ATOM      9  N   UNL     1     -16.697   4.121  28.500  0.00  0.00    -0.310 N 
ATOM     20  C   UNL     1     -15.784   3.921  29.525  0.00  0.00    +0.239 C 
ATOM     31  H   UNL     1     -17.592   4.550  28.719  0.00  0.00    +0.149 HD
BRANCH  20  23
ATOM     23  C   UNL     1     -16.354   4.321  30.870  0.00  0.00    +0.255 C 
BRANCH  23   6
ATOM      6  O   UNL     1     -15.361   4.248  31.872  0.00  0.00    -0.374 OA
ATOM     30  C   UNL     1     -15.844   3.607  33.049  0.00  0.00    +0.194 C 
ENDBRANCH  23   6
ENDBRANCH  20  23
ENDBRANCH  12   9
BRANCH  18  21
ATOM     21  C   UNL     1     -18.589   3.038  22.483  0.00  0.00    +0.255 C 
BRANCH  21   4
ATOM      4  O   UNL     1     -17.946   3.084  21.233  0.00  0.00    -0.374 OA
ATOM     27  C   UNL     1     -17.850   4.415  20.728  0.00  0.00    +0.194 C 
ENDBRANCH  21   4
ENDBRANCH  18  21
TORSDOF 10
ENDMDL
MODEL 9
REMARK VINA RESULT:      -4.8     17.021     19.846
REMARK  Name = 7114630
REMARK  12 active torsions:
REMARK  status: ('A' for Active; 'I' for Inactive)
REMARK    1  A    between atoms: O_4  and  C_21
REMARK    2  A    between atoms: O_4  and  C_27
REMARK    3  A    between atoms: O_6  and  C_23
REMARK    4  A    between atoms: O_6  and  C_30
REMARK    5  A    between atoms: N_9  and  C_12
REMARK    6  A    between atoms: N_10  and  C_19
REMARK    7  A    between atoms: C_13  and  C_17
REMARK    8  A    between atoms: C_18  and  C_21
REMARK    9  A    between atoms: C_19  and  C_22
REMARK   10  A    between atoms: C_19  and  C_24
REMARK   11  A    between atoms: C_20  and  C_23
REMARK   12  A    between atoms: C_22  and  C_25
REMARK                            x       y       z     vdW  Elec       q    Type
REMARK                         _______ _______ _______ _____ _____    ______ ____
ROOT
ATOM      3  O   UNL     1       8.237   8.730   3.011  0.00  0.00    -0.273 OA
ATOM      8  N   UNL     1       9.591   6.907   2.499  0.00  0.00    -0.288 N 
ATOM     12  C   UNL     1      10.826   5.224   0.459  0.00  0.00    +0.077 C 
ATOM     13  C   UNL     1      10.294   5.682   2.918  0.00  0.00    +0.164 C 
ATOM     14  C   UNL     1      10.396   4.637   1.806  0.00  0.00    +0.054 C 
ATOM     15  C   UNL     1       9.942   6.414   0.094  0.00  0.00    +0.041 C 
ATOM     16  C   UNL     1       9.965   7.466   1.195  0.00  0.00    +0.110 C 
ATOM     18  C   UNL     1       8.718   7.636   3.315  0.00  0.00    +0.242 C 
ENDROOT
BRANCH  13  17
ATOM      2  O   UNL     1      12.659   5.974   2.745  0.00  0.00    -0.274 OA
ATOM     10  N   UNL     1      11.584   6.621   4.706  0.00  0.00    -0.302 N 
ATOM     17  C   UNL     1      11.642   6.106   3.422  0.00  0.00    +0.234 C 
ATOM     32  H   UNL     1      10.686   6.701   5.173  0.00  0.00    +0.150 HD
BRANCH  10  19
ATOM     19  C   UNL     1      12.748   7.079   5.428  0.00  0.00    +0.163 C 
BRANCH  19  24
ATOM      7  O   UNL     1      11.518   6.581   7.464  0.00  0.00    -0.274 OA
ATOM     11  N   UNL     1      13.780   6.185   7.422  0.00  0.00    -0.328 N 
ATOM     24  C   UNL     1      12.592   6.614   6.869  0.00  0.00    +0.231 C 
ATOM     33  H   UNL     1      13.814   5.835   8.374  0.00  0.00    +0.145 HD
ATOM     34  H   UNL     1      14.662   6.214   6.919  0.00  0.00    +0.145 HD
ENDBRANCH  19  24
BRANCH  19  22
ATOM     22  C   UNL     1      12.907   8.603   5.370  0.00  0.00    +0.074 C 
BRANCH  22  25
ATOM      1  S   UNL     1      14.677  10.478   6.423  0.00  0.00    -0.102 S 
ATOM     25  C   UNL     1      14.340   9.040   5.556  0.00  0.00    -0.008 A 
ATOM     26  C   UNL     1      15.488   8.424   5.110  0.00  0.00    +0.011 A 
ATOM     28  C   UNL     1      16.660   9.142   5.484  0.00  0.00    +0.008 A 
ATOM     29  C   UNL     1      16.363  10.280   6.202  0.00  0.00    +0.045 A 
ENDBRANCH  22  25
ENDBRANCH  19  22
ENDBRANCH  10  19
ENDBRANCH  13  17
BRANCH  12   9
ATOM      5  O   UNL     1      13.057   3.746  -0.655  0.00  0.00    -0.273 OA
ATOM      9  N   UNL     1      10.781   4.219  -0.576  0.00  0.00    -0.310 N 
ATOM     20  C   UNL     1      11.908   3.562  -1.047  0.00  0.00    +0.239 C 
ATOM     31  H   UNL     1       9.870   3.945  -0.934  0.00  0.00    +0.149 HD
BRANCH  20  23
ATOM     23  C   UNL     1      11.563   2.562  -2.131  0.00  0.00    +0.255 C 
BRANCH  23   6
ATOM      6  O   UNL     1      10.864   3.192  -3.184  0.00  0.00    -0.374 OA
ATOM     30  C   UNL     1       9.788   2.388  -3.660  0.00  0.00    +0.194 C 
ENDBRANCH  23   6
ENDBRANCH  20  23
ENDBRANCH  12   9
BRANCH  18  21
ATOM     21  C   UNL     1       8.351   7.017   4.642  0.00  0.00    +0.255 C 
BRANCH  21   4
ATOM      4  O   UNL     1       9.011   7.767   5.631  0.00  0.00    -0.374 OA
ATOM     27  C   UNL     1       8.299   7.768   6.868  0.00  0.00    +0.194 C 
ENDBRANCH  21   4
ENDBRANCH  18  21
TORSDOF 10
ENDMDL
MODEL 10
REMARK VINA RESULT:      -4.8     16.816     20.274
REMARK  Name = 7114630
REMARK  12 active torsions:
REMARK  status: ('A' for Active; 'I' for Inactive)
REMARK    1  A    between atoms: O_4  and  C_21
REMARK    2  A    between atoms: O_4  and  C_27
REMARK    3  A    between atoms: O_6  and  C_23
REMARK    4  A    between atoms: O_6  and  C_30
REMARK    5  A    between atoms: N_9  and  C_12
REMARK    6  A    between atoms: N_10  and  C_19
REMARK    7  A    between atoms: C_13  and  C_17
REMARK    8  A    between atoms: C_18  and  C_21
REMARK    9  A    between atoms: C_19  and  C_22
REMARK   10  A    between atoms: C_19  and  C_24
REMARK   11  A    between atoms: C_20  and  C_23
REMARK   12  A    between atoms: C_22  and  C_25
REMARK                            x       y       z     vdW  Elec       q    Type
REMARK                         _______ _______ _______ _____ _____    ______ ____
ROOT
ATOM      3  O   UNL     1      14.637  10.866   3.367  0.00  0.00    -0.273 OA
ATOM      8  N   UNL     1      13.526   8.930   4.029  0.00  0.00    -0.288 N 
ATOM     12  C   UNL     1      11.366   7.705   5.563  0.00  0.00    +0.077 C 
ATOM     13  C   UNL     1      13.477   7.462   4.140  0.00  0.00    +0.164 C 
ATOM     14  C   UNL     1      12.698   6.977   5.363  0.00  0.00    +0.054 C 
ATOM     15  C   UNL     1      11.580   9.217   5.539  0.00  0.00    +0.041 C 
ATOM     16  C   UNL     1      12.266   9.648   4.249  0.00  0.00    +0.110 C 
ATOM     18  C   UNL     1      14.641   9.652   3.587  0.00  0.00    +0.242 C 
ENDROOT
BRANCH  13  17
ATOM      2  O   UNL     1      12.586   7.700   1.936  0.00  0.00    -0.274 OA
ATOM     10  N   UNL     1      12.734   5.572   2.867  0.00  0.00    -0.302 N 
ATOM     17  C   UNL     1      12.892   6.948   2.857  0.00  0.00    +0.234 C 
ATOM     32  H   UNL     1      13.035   5.040   3.677  0.00  0.00    +0.150 HD
BRANCH  10  19
ATOM     19  C   UNL     1      12.170   4.833   1.762  0.00  0.00    +0.163 C 
BRANCH  19  24
ATOM      7  O   UNL     1       9.993   3.788   1.488  0.00  0.00    -0.274 OA
ATOM     11  N   UNL     1      10.723   4.265   3.614  0.00  0.00    -0.328 N 
ATOM     24  C   UNL     1      10.846   4.255   2.240  0.00  0.00    +0.231 C 
ATOM     33  H   UNL     1       9.894   3.895   4.065  0.00  0.00    +0.145 HD
ATOM     34  H   UNL     1      11.437   4.652   4.224  0.00  0.00    +0.145 HD
ENDBRANCH  19  24
BRANCH  19  22
ATOM     22  C   UNL     1      13.099   3.714   1.276  0.00  0.00    +0.074 C 
BRANCH  22  25
ATOM      1  S   UNL     1      14.586   4.626  -0.895  0.00  0.00    -0.102 S 
ATOM     25  C   UNL     1      13.288   3.734  -0.222  0.00  0.00    -0.008 A 
ATOM     26  C   UNL     1      12.535   3.108  -1.190  0.00  0.00    +0.011 A 
ATOM     28  C   UNL     1      13.028   3.364  -2.501  0.00  0.00    +0.008 A 
ATOM     29  C   UNL     1      14.141   4.176  -2.486  0.00  0.00    +0.045 A 
ENDBRANCH  22  25
ENDBRANCH  19  22
ENDBRANCH  10  19
ENDBRANCH  13  17
BRANCH  12   9
ATOM      5  O   UNL     1       9.718   5.364   6.009  0.00  0.00    -0.273 OA
ATOM      9  N   UNL     1      10.739   7.299   6.797  0.00  0.00    -0.310 N 
ATOM     20  C   UNL     1       9.963   6.155   6.915  0.00  0.00    +0.239 C 
ATOM     31  H   UNL     1      10.924   7.852   7.630  0.00  0.00    +0.149 HD
BRANCH  20  23
ATOM     23  C   UNL     1       9.434   5.978   8.323  0.00  0.00    +0.255 C 
BRANCH  23   6
ATOM      6  O   UNL     1      10.073   4.893   8.962  0.00  0.00    -0.374 OA
ATOM     30  C   UNL     1       9.422   4.536  10.178  0.00  0.00    +0.194 C 
ENDBRANCH  23   6
ENDBRANCH  20  23
ENDBRANCH  12   9
BRANCH  18  21
ATOM     21  C   UNL     1      15.919   8.875   3.385  0.00  0.00    +0.255 C 
BRANCH  21   4
ATOM      4  O   UNL     1      16.321   9.102   2.057  0.00  0.00    -0.374 OA
ATOM     27  C   UNL     1      16.065   7.975   1.219  0.00  0.00    +0.194 C 
ENDBRANCH  21   4
ENDBRANCH  18  21
TORSDOF 10
ENDMDL
