MODEL 1
REMARK VINA RESULT:      -6.6      0.000      0.000
REMARK  Name = 11879582
REMARK  9 active torsions:
REMARK  status: ('A' for Active; 'I' for Inactive)
REMARK    1  A    between atoms: S_1  and  N_8
REMARK    2  A    between atoms: S_1  and  C_21
REMARK    3  A    between atoms: O_5  and  C_20
REMARK    4  A    between atoms: O_5  and  C_23
REMARK    5  A    between atoms: N_8  and  C_16
REMARK    6  A    between atoms: N_9  and  C_17
REMARK    7  A    between atoms: N_13  and  C_28
REMARK    8  A    between atoms: N_13  and  C_31
REMARK    9  A    between atoms: N_13  and  C_32
REMARK                            x       y       z     vdW  Elec       q    Type
REMARK                         _______ _______ _______ _____ _____    ______ ____
ROOT
ATOM      3  O   UNL     1      -4.066  -9.926  16.824  0.00  0.00    -0.370 OA
ATOM      4  O   UNL     1      -4.522 -12.906  17.762  0.00  0.00    -0.370 OA
ATOM     14  C   UNL     1      -4.922 -12.138  16.617  0.00  0.00    +0.170 C 
ATOM     15  C   UNL     1      -5.229 -10.730  17.090  0.00  0.00    +0.175 C 
ATOM     16  C   UNL     1      -3.757 -11.970  15.670  0.00  0.00    +0.133 C 
ATOM     17  C   UNL     1      -5.432 -10.861  18.588  0.00  0.00    +0.171 C 
ATOM     18  C   UNL     1      -3.057 -10.740  16.210  0.00  0.00    +0.183 C 
ATOM     19  C   UNL     1      -4.604 -12.092  18.939  0.00  0.00    +0.190 C 
ENDROOT
BRANCH  17   9
ATOM      9  N   UNL     1      -6.847 -10.939  18.958  0.00  0.00    -0.187 N 
ATOM     10  N   UNL     1      -7.270 -11.818  19.871  0.00  0.00    -0.041 NA
ATOM     11  N   UNL     1      -8.979 -10.614  19.097  0.00  0.00    -0.071 NA
ATOM     12  N   UNL     1      -8.579 -11.615  19.954  0.00  0.00    -0.020 NA
ATOM     20  C   UNL     1      -7.887 -10.210  18.490  0.00  0.00    +0.342 A 
BRANCH  20   5
ATOM      5  O   UNL     1      -7.797  -9.260  17.578  0.00  0.00    -0.423 OA
BRANCH   5  23
ATOM     23  C   UNL     1      -8.643  -9.196  16.480  0.00  0.00    +0.134 A 
ATOM     26  C   UNL     1      -9.540  -8.150  16.384  0.00  0.00    +0.069 A 
ATOM     27  C   UNL     1      -8.566 -10.182  15.515  0.00  0.00    +0.046 A 
ATOM     28  C   UNL     1     -10.392  -8.085  15.281  0.00  0.00    +0.033 A 
ATOM     29  C   UNL     1      -9.417 -10.118  14.412  0.00  0.00    +0.005 A 
ATOM     30  C   UNL     1     -10.330  -9.071  14.295  0.00  0.00    +0.023 A 
BRANCH  28  13
ATOM     13  N   UNL     1     -11.315  -7.027  15.164  0.00  0.00    -0.336 N 
ATOM     31  C   UNL     1     -12.186  -6.936  14.009  0.00  0.00    +0.129 C 
ATOM     32  C   UNL     1     -11.416  -6.023  16.204  0.00  0.00    +0.129 C 
ENDBRANCH  28  13
ENDBRANCH   5  23
ENDBRANCH  20   5
ENDBRANCH  17   9
BRANCH  16   8
ATOM      8  N   UNL     1      -4.256 -11.698  14.300  0.00  0.00    -0.182 NA
ATOM     33  H   UNL     1      -5.272 -11.574  14.209  0.00  0.00    +0.149 HD
BRANCH   8   1
ATOM      1  S   UNL     1      -3.379 -12.255  12.958  0.00  0.00    +0.065 S 
ATOM      6  O   UNL     1      -4.063 -13.391  12.370  0.00  0.00    -0.153 OA
ATOM      7  O   UNL     1      -1.980 -12.356  13.323  0.00  0.00    -0.153 OA
BRANCH   1  21
ATOM      2  S   UNL     1      -5.114 -10.304  11.640  0.00  0.00    -0.077 S 
ATOM     21  C   UNL     1      -3.522 -10.894  11.838  0.00  0.00    +0.142 A 
ATOM     22  C   UNL     1      -2.607 -10.205  11.085  0.00  0.00    +0.036 A 
ATOM     24  C   UNL     1      -3.222  -9.168  10.326  0.00  0.00    +0.010 A 
ATOM     25  C   UNL     1      -4.582  -9.111  10.534  0.00  0.00    +0.047 A 
ENDBRANCH   1  21
ENDBRANCH   8   1
ENDBRANCH  16   8
TORSDOF 7
ENDMDL
MODEL 2
REMARK VINA RESULT:      -6.6      2.744      6.622
REMARK  Name = 11879582
REMARK  9 active torsions:
REMARK  status: ('A' for Active; 'I' for Inactive)
REMARK    1  A    between atoms: S_1  and  N_8
REMARK    2  A    between atoms: S_1  and  C_21
REMARK    3  A    between atoms: O_5  and  C_20
REMARK    4  A    between atoms: O_5  and  C_23
REMARK    5  A    between atoms: N_8  and  C_16
REMARK    6  A    between atoms: N_9  and  C_17
REMARK    7  A    between atoms: N_13  and  C_28
REMARK    8  A    between atoms: N_13  and  C_31
REMARK    9  A    between atoms: N_13  and  C_32
REMARK                            x       y       z     vdW  Elec       q    Type
REMARK                         _______ _______ _______ _____ _____    ______ ____
ROOT
ATOM      3  O   UNL     1      -6.371 -12.155  15.862  0.00  0.00    -0.370 OA
ATOM      4  O   UNL     1      -4.901 -10.629  18.204  0.00  0.00    -0.370 OA
ATOM     14  C   UNL     1      -5.718 -10.224  17.094  0.00  0.00    +0.170 C 
ATOM     15  C   UNL     1      -5.374 -11.119  15.918  0.00  0.00    +0.175 C 
ATOM     16  C   UNL     1      -7.170 -10.524  17.381  0.00  0.00    +0.133 C 
ATOM     17  C   UNL     1      -4.026 -11.719  16.270  0.00  0.00    +0.171 C 
ATOM     18  C   UNL     1      -7.316 -11.960  16.924  0.00  0.00    +0.183 C 
ATOM     19  C   UNL     1      -4.024 -11.687  17.795  0.00  0.00    +0.190 C 
ENDROOT
BRANCH  17   9
ATOM      9  N   UNL     1      -2.913 -11.012  15.633  0.00  0.00    -0.187 N 
ATOM     10  N   UNL     1      -1.992 -10.380  16.367  0.00  0.00    -0.041 NA
ATOM     11  N   UNL     1      -1.542 -10.163  14.194  0.00  0.00    -0.071 NA
ATOM     12  N   UNL     1      -1.151  -9.861  15.479  0.00  0.00    -0.020 NA
ATOM     20  C   UNL     1      -2.636 -10.878  14.315  0.00  0.00    +0.342 A 
BRANCH  20   5
ATOM      5  O   UNL     1      -3.359 -11.387  13.334  0.00  0.00    -0.423 OA
BRANCH   5  23
ATOM     23  C   UNL     1      -3.857 -10.614  12.294  0.00  0.00    +0.134 A 
ATOM     26  C   UNL     1      -5.208 -10.329  12.258  0.00  0.00    +0.069 A 
ATOM     27  C   UNL     1      -2.986 -10.153  11.325  0.00  0.00    +0.046 A 
ATOM     28  C   UNL     1      -5.709  -9.552  11.212  0.00  0.00    +0.033 A 
ATOM     29  C   UNL     1      -3.486  -9.376  10.280  0.00  0.00    +0.005 A 
ATOM     30  C   UNL     1      -4.847  -9.076  10.223  0.00  0.00    +0.023 A 
BRANCH  28  13
ATOM     13  N   UNL     1      -7.084  -9.249  11.155  0.00  0.00    -0.336 N 
ATOM     31  C   UNL     1      -7.662  -8.680   9.953  0.00  0.00    +0.129 C 
ATOM     32  C   UNL     1      -7.943  -9.517  12.292  0.00  0.00    +0.129 C 
ENDBRANCH  28  13
ENDBRANCH   5  23
ENDBRANCH  20   5
ENDBRANCH  17   9
BRANCH  16   8
ATOM      8  N   UNL     1      -8.038  -9.648  16.558  0.00  0.00    -0.182 NA
ATOM     33  H   UNL     1      -7.752  -8.663  16.496  0.00  0.00    +0.149 HD
BRANCH   8   1
ATOM      1  S   UNL     1      -9.678 -10.035  16.356  0.00  0.00    +0.065 S 
ATOM      6  O   UNL     1     -10.199 -10.591  17.590  0.00  0.00    -0.153 OA
ATOM      7  O   UNL     1      -9.838 -10.754  15.107  0.00  0.00    -0.153 OA
BRANCH   1  21
ATOM      2  S   UNL     1     -11.127  -8.200  14.598  0.00  0.00    -0.077 S 
ATOM     21  C   UNL     1     -10.405  -8.439  16.129  0.00  0.00    +0.142 A 
ATOM     22  C   UNL     1     -10.510  -7.338  16.938  0.00  0.00    +0.036 A 
ATOM     24  C   UNL     1     -11.197  -6.270  16.292  0.00  0.00    +0.010 A 
ATOM     25  C   UNL     1     -11.588  -6.605  15.014  0.00  0.00    +0.047 A 
ENDBRANCH   1  21
ENDBRANCH   8   1
ENDBRANCH  16   8
TORSDOF 7
ENDMDL
MODEL 3
REMARK VINA RESULT:      -6.5      2.097      2.570
REMARK  Name = 11879582
REMARK  9 active torsions:
REMARK  status: ('A' for Active; 'I' for Inactive)
REMARK    1  A    between atoms: S_1  and  N_8
REMARK    2  A    between atoms: S_1  and  C_21
REMARK    3  A    between atoms: O_5  and  C_20
REMARK    4  A    between atoms: O_5  and  C_23
REMARK    5  A    between atoms: N_8  and  C_16
REMARK    6  A    between atoms: N_9  and  C_17
REMARK    7  A    between atoms: N_13  and  C_28
REMARK    8  A    between atoms: N_13  and  C_31
REMARK    9  A    between atoms: N_13  and  C_32
REMARK                            x       y       z     vdW  Elec       q    Type
REMARK                         _______ _______ _______ _____ _____    ______ ____
ROOT
ATOM      3  O   UNL     1      -6.067 -10.126  16.769  0.00  0.00    -0.370 OA
ATOM      4  O   UNL     1      -4.849 -11.482  19.349  0.00  0.00    -0.370 OA
ATOM     14  C   UNL     1      -5.075 -11.910  17.997  0.00  0.00    +0.170 C 
ATOM     15  C   UNL     1      -6.386 -11.303  17.534  0.00  0.00    +0.175 C 
ATOM     16  C   UNL     1      -4.038 -11.306  17.080  0.00  0.00    +0.133 C 
ATOM     17  C   UNL     1      -7.102 -10.909  18.811  0.00  0.00    +0.171 C 
ATOM     18  C   UNL     1      -4.642  -9.964  16.722  0.00  0.00    +0.183 C 
ATOM     19  C   UNL     1      -5.956 -10.685  19.792  0.00  0.00    +0.190 C 
ENDROOT
BRANCH  17   9
ATOM      9  N   UNL     1      -8.092 -11.904  19.231  0.00  0.00    -0.187 N 
ATOM     10  N   UNL     1      -7.831 -13.211  19.142  0.00  0.00    -0.041 NA
ATOM     11  N   UNL     1      -9.873 -12.879  19.971  0.00  0.00    -0.071 NA
ATOM     12  N   UNL     1      -8.927 -13.806  19.598  0.00  0.00    -0.020 NA
ATOM     20  C   UNL     1      -9.333 -11.706  19.734  0.00  0.00    +0.342 A 
BRANCH  20   5
ATOM      5  O   UNL     1      -9.886 -10.525  19.942  0.00  0.00    -0.423 OA
BRANCH   5  23
ATOM     23  C   UNL     1     -10.792  -9.958  19.056  0.00  0.00    +0.134 A 
ATOM     26  C   UNL     1     -10.314  -9.220  17.991  0.00  0.00    +0.069 A 
ATOM     27  C   UNL     1     -12.144 -10.146  19.267  0.00  0.00    +0.046 A 
ATOM     28  C   UNL     1     -11.224  -8.649  17.100  0.00  0.00    +0.033 A 
ATOM     29  C   UNL     1     -13.054  -9.576  18.377  0.00  0.00    +0.005 A 
ATOM     30  C   UNL     1     -12.595  -8.827  17.294  0.00  0.00    +0.023 A 
BRANCH  28  13
ATOM     13  N   UNL     1     -10.759  -7.892  16.006  0.00  0.00    -0.336 N 
ATOM     31  C   UNL     1     -10.134  -8.544  14.873  0.00  0.00    +0.129 C 
ATOM     32  C   UNL     1     -10.914  -6.450  15.993  0.00  0.00    +0.129 C 
ENDBRANCH  28  13
ENDBRANCH   5  23
ENDBRANCH  20   5
ENDBRANCH  17   9
BRANCH  16   8
ATOM      8  N   UNL     1      -3.903 -12.134  15.857  0.00  0.00    -0.182 NA
ATOM     33  H   UNL     1      -4.391 -13.038  15.871  0.00  0.00    +0.149 HD
BRANCH   8   1
ATOM      1  S   UNL     1      -2.532 -11.963  14.870  0.00  0.00    +0.065 S 
ATOM      6  O   UNL     1      -2.090 -13.271  14.427  0.00  0.00    -0.153 OA
ATOM      7  O   UNL     1      -1.601 -11.059  15.517  0.00  0.00    -0.153 OA
BRANCH   1  21
ATOM      2  S   UNL     1      -2.081 -10.867  12.197  0.00  0.00    -0.077 S 
ATOM     21  C   UNL     1      -3.194 -11.109  13.471  0.00  0.00    +0.142 A 
ATOM     22  C   UNL     1      -4.433 -10.592  13.194  0.00  0.00    +0.036 A 
ATOM     24  C   UNL     1      -4.475  -9.982  11.906  0.00  0.00    +0.010 A 
ATOM     25  C   UNL     1      -3.263 -10.061  11.257  0.00  0.00    +0.047 A 
ENDBRANCH   1  21
ENDBRANCH   8   1
ENDBRANCH  16   8
TORSDOF 7
ENDMDL
MODEL 4
REMARK VINA RESULT:      -6.4     19.247     21.014
REMARK  Name = 11879582
REMARK  9 active torsions:
REMARK  status: ('A' for Active; 'I' for Inactive)
REMARK    1  A    between atoms: S_1  and  N_8
REMARK    2  A    between atoms: S_1  and  C_21
REMARK    3  A    between atoms: O_5  and  C_20
REMARK    4  A    between atoms: O_5  and  C_23
REMARK    5  A    between atoms: N_8  and  C_16
REMARK    6  A    between atoms: N_9  and  C_17
REMARK    7  A    between atoms: N_13  and  C_28
REMARK    8  A    between atoms: N_13  and  C_31
REMARK    9  A    between atoms: N_13  and  C_32
REMARK                            x       y       z     vdW  Elec       q    Type
REMARK                         _______ _______ _______ _____ _____    ______ ____
ROOT
ATOM      3  O   UNL     1     -17.915   3.597  23.793  0.00  0.00    -0.370 OA
ATOM      4  O   UNL     1     -14.808   4.090  24.069  0.00  0.00    -0.370 OA
ATOM     14  C   UNL     1     -15.937   4.262  24.939  0.00  0.00    +0.170 C 
ATOM     15  C   UNL     1     -17.101   4.745  24.095  0.00  0.00    +0.175 C 
ATOM     16  C   UNL     1     -16.390   2.924  25.474  0.00  0.00    +0.133 C 
ATOM     17  C   UNL     1     -16.464   5.274  22.824  0.00  0.00    +0.171 C 
ATOM     18  C   UNL     1     -17.336   2.433  24.398  0.00  0.00    +0.183 C 
ATOM     19  C   UNL     1     -15.165   4.481  22.736  0.00  0.00    +0.190 C 
ENDROOT
BRANCH  17   9
ATOM      9  N   UNL     1     -16.303   6.730  22.841  0.00  0.00    -0.187 N 
ATOM     10  N   UNL     1     -16.666   7.448  23.908  0.00  0.00    -0.041 NA
ATOM     11  N   UNL     1     -15.848   8.776  22.314  0.00  0.00    -0.071 NA
ATOM     12  N   UNL     1     -16.384   8.704  23.580  0.00  0.00    -0.020 NA
ATOM     20  C   UNL     1     -15.807   7.539  21.876  0.00  0.00    +0.342 A 
BRANCH  20   5
ATOM      5  O   UNL     1     -15.364   7.132  20.700  0.00  0.00    -0.423 OA
BRANCH   5  23
ATOM     23  C   UNL     1     -14.038   7.268  20.314  0.00  0.00    +0.134 A 
ATOM     26  C   UNL     1     -13.754   7.772  19.059  0.00  0.00    +0.069 A 
ATOM     27  C   UNL     1     -13.041   6.894  21.194  0.00  0.00    +0.046 A 
ATOM     28  C   UNL     1     -12.421   7.908  18.670  0.00  0.00    +0.033 A 
ATOM     29  C   UNL     1     -11.709   7.030  20.805  0.00  0.00    +0.005 A 
ATOM     30  C   UNL     1     -11.398   7.536  19.544  0.00  0.00    +0.023 A 
BRANCH  28  13
ATOM     13  N   UNL     1     -12.108   8.420  17.394  0.00  0.00    -0.336 N 
ATOM     31  C   UNL     1     -10.771   8.896  17.102  0.00  0.00    +0.129 C 
ATOM     32  C   UNL     1     -13.116   8.462  16.353  0.00  0.00    +0.129 C 
ENDBRANCH  28  13
ENDBRANCH   5  23
ENDBRANCH  20   5
ENDBRANCH  17   9
BRANCH  16   8
ATOM      8  N   UNL     1     -17.133   3.114  26.743  0.00  0.00    -0.182 NA
ATOM     33  H   UNL     1     -17.180   4.078  27.096  0.00  0.00    +0.149 HD
BRANCH   8   1
ATOM      1  S   UNL     1     -17.251   1.834  27.851  0.00  0.00    +0.065 S 
ATOM      6  O   UNL     1     -16.998   0.579  27.170  0.00  0.00    -0.153 OA
ATOM      7  O   UNL     1     -18.457   2.007  28.638  0.00  0.00    -0.153 OA
BRANCH   1  21
ATOM      2  S   UNL     1     -15.148   0.755  29.574  0.00  0.00    -0.077 S 
ATOM     21  C   UNL     1     -15.884   2.155  28.926  0.00  0.00    +0.142 A 
ATOM     22  C   UNL     1     -15.285   3.311  29.354  0.00  0.00    +0.036 A 
ATOM     24  C   UNL     1     -14.196   3.048  30.234  0.00  0.00    +0.010 A 
ATOM     25  C   UNL     1     -14.012   1.699  30.440  0.00  0.00    +0.047 A 
ENDBRANCH   1  21
ENDBRANCH   8   1
ENDBRANCH  16   8
TORSDOF 7
ENDMDL
MODEL 5
REMARK VINA RESULT:      -6.3      2.875      6.996
REMARK  Name = 11879582
REMARK  9 active torsions:
REMARK  status: ('A' for Active; 'I' for Inactive)
REMARK    1  A    between atoms: S_1  and  N_8
REMARK    2  A    between atoms: S_1  and  C_21
REMARK    3  A    between atoms: O_5  and  C_20
REMARK    4  A    between atoms: O_5  and  C_23
REMARK    5  A    between atoms: N_8  and  C_16
REMARK    6  A    between atoms: N_9  and  C_17
REMARK    7  A    between atoms: N_13  and  C_28
REMARK    8  A    between atoms: N_13  and  C_31
REMARK    9  A    between atoms: N_13  and  C_32
REMARK                            x       y       z     vdW  Elec       q    Type
REMARK                         _______ _______ _______ _____ _____    ______ ____
ROOT
ATOM      3  O   UNL     1      -5.302 -11.627  19.253  0.00  0.00    -0.370 OA
ATOM      4  O   UNL     1      -6.159 -10.059  16.649  0.00  0.00    -0.370 OA
ATOM     14  C   UNL     1      -6.707 -11.162  17.388  0.00  0.00    +0.170 C 
ATOM     15  C   UNL     1      -5.548 -12.004  17.887  0.00  0.00    +0.175 C 
ATOM     16  C   UNL     1      -7.378 -10.663  18.646  0.00  0.00    +0.133 C 
ATOM     17  C   UNL     1      -4.373 -11.597  17.020  0.00  0.00    +0.171 C 
ATOM     18  C   UNL     1      -6.235 -10.608  19.639  0.00  0.00    +0.183 C 
ATOM     19  C   UNL     1      -4.730 -10.174  16.603  0.00  0.00    +0.190 C 
ENDROOT
BRANCH  17   9
ATOM      9  N   UNL     1      -4.141 -12.528  15.913  0.00  0.00    -0.187 N 
ATOM     10  N   UNL     1      -4.606 -13.780  15.961  0.00  0.00    -0.041 NA
ATOM     11  N   UNL     1      -3.514 -13.426  14.050  0.00  0.00    -0.071 NA
ATOM     12  N   UNL     1      -4.219 -14.327  14.815  0.00  0.00    -0.020 NA
ATOM     20  C   UNL     1      -3.479 -12.316  14.752  0.00  0.00    +0.342 A 
BRANCH  20   5
ATOM      5  O   UNL     1      -2.901 -11.181  14.405  0.00  0.00    -0.423 OA
BRANCH   5  23
ATOM     23  C   UNL     1      -3.064 -10.613  13.149  0.00  0.00    +0.134 A 
ATOM     26  C   UNL     1      -4.333 -10.261  12.732  0.00  0.00    +0.069 A 
ATOM     27  C   UNL     1      -1.953 -10.419  12.351  0.00  0.00    +0.046 A 
ATOM     28  C   UNL     1      -4.498  -9.691  11.469  0.00  0.00    +0.033 A 
ATOM     29  C   UNL     1      -2.117  -9.849  11.089  0.00  0.00    +0.005 A 
ATOM     30  C   UNL     1      -3.389  -9.486  10.647  0.00  0.00    +0.023 A 
BRANCH  28  13
ATOM     13  N   UNL     1      -5.784  -9.325  11.022  0.00  0.00    -0.336 N 
ATOM     31  C   UNL     1      -6.966  -9.820  11.700  0.00  0.00    +0.129 C 
ATOM     32  C   UNL     1      -5.941  -8.436   9.888  0.00  0.00    +0.129 C 
ENDBRANCH  28  13
ENDBRANCH   5  23
ENDBRANCH  20   5
ENDBRANCH  17   9
BRANCH  16   8
ATOM      8  N   UNL     1      -8.388 -11.648  19.102  0.00  0.00    -0.182 NA
ATOM     33  H   UNL     1      -8.204 -12.628  18.854  0.00  0.00    +0.149 HD
BRANCH   8   1
ATOM      1  S   UNL     1      -9.995 -11.156  19.345  0.00  0.00    +0.065 S 
ATOM      6  O   UNL     1     -10.075 -10.336  20.539  0.00  0.00    -0.153 OA
ATOM      7  O   UNL     1     -10.863 -12.308  19.192  0.00  0.00    -0.153 OA
BRANCH   1  21
ATOM      2  S   UNL     1     -10.452 -10.945  16.465  0.00  0.00    -0.077 S 
ATOM     21  C   UNL     1     -10.273 -10.112  17.946  0.00  0.00    +0.142 A 
ATOM     22  C   UNL     1     -10.376  -8.753  17.802  0.00  0.00    +0.036 A 
ATOM     24  C   UNL     1     -10.607  -8.381  16.446  0.00  0.00    +0.010 A 
ATOM     25  C   UNL     1     -10.670  -9.475  15.613  0.00  0.00    +0.047 A 
ENDBRANCH   1  21
ENDBRANCH   8   1
ENDBRANCH  16   8
TORSDOF 7
ENDMDL
MODEL 6
REMARK VINA RESULT:      -6.3      3.242      7.211
REMARK  Name = 11879582
REMARK  9 active torsions:
REMARK  status: ('A' for Active; 'I' for Inactive)
REMARK    1  A    between atoms: S_1  and  N_8
REMARK    2  A    between atoms: S_1  and  C_21
REMARK    3  A    between atoms: O_5  and  C_20
REMARK    4  A    between atoms: O_5  and  C_23
REMARK    5  A    between atoms: N_8  and  C_16
REMARK    6  A    between atoms: N_9  and  C_17
REMARK    7  A    between atoms: N_13  and  C_28
REMARK    8  A    between atoms: N_13  and  C_31
REMARK    9  A    between atoms: N_13  and  C_32
REMARK                            x       y       z     vdW  Elec       q    Type
REMARK                         _______ _______ _______ _____ _____    ______ ____
ROOT
ATOM      3  O   UNL     1      -6.768 -11.628  14.703  0.00  0.00    -0.370 OA
ATOM      4  O   UNL     1      -5.621 -11.743  17.643  0.00  0.00    -0.370 OA
ATOM     14  C   UNL     1      -6.125 -10.697  16.799  0.00  0.00    +0.170 C 
ATOM     15  C   UNL     1      -5.671 -10.989  15.381  0.00  0.00    +0.175 C 
ATOM     16  C   UNL     1      -7.633 -10.765  16.731  0.00  0.00    +0.133 C 
ATOM     17  C   UNL     1      -4.522 -11.966  15.537  0.00  0.00    +0.171 C 
ATOM     18  C   UNL     1      -7.877 -11.748  15.605  0.00  0.00    +0.183 C 
ATOM     19  C   UNL     1      -4.832 -12.652  16.863  0.00  0.00    +0.190 C 
ENDROOT
BRANCH  17   9
ATOM      9  N   UNL     1      -3.213 -11.311  15.469  0.00  0.00    -0.187 N 
ATOM     10  N   UNL     1      -2.644 -10.801  16.565  0.00  0.00    -0.041 NA
ATOM     11  N   UNL     1      -1.337 -10.484  14.786  0.00  0.00    -0.071 NA
ATOM     12  N   UNL     1      -1.491 -10.296  16.141  0.00  0.00    -0.020 NA
ATOM     20  C   UNL     1      -2.418 -11.117  14.391  0.00  0.00    +0.342 A 
BRANCH  20   5
ATOM      5  O   UNL     1      -2.700 -11.504  13.161  0.00  0.00    -0.423 OA
BRANCH   5  23
ATOM     23  C   UNL     1      -3.135 -10.622  12.182  0.00  0.00    +0.134 A 
ATOM     26  C   UNL     1      -4.483 -10.333  12.090  0.00  0.00    +0.069 A 
ATOM     27  C   UNL     1      -2.207 -10.059  11.326  0.00  0.00    +0.046 A 
ATOM     28  C   UNL     1      -4.921  -9.447  11.105  0.00  0.00    +0.033 A 
ATOM     29  C   UNL     1      -2.645  -9.172  10.342  0.00  0.00    +0.005 A 
ATOM     30  C   UNL     1      -4.001  -8.867  10.230  0.00  0.00    +0.023 A 
BRANCH  28  13
ATOM     13  N   UNL     1      -6.292  -9.139  10.993  0.00  0.00    -0.336 N 
ATOM     31  C   UNL     1      -6.865  -8.796   9.706  0.00  0.00    +0.129 C 
ATOM     32  C   UNL     1      -7.151  -9.176  12.160  0.00  0.00    +0.129 C 
ENDBRANCH  28  13
ENDBRANCH   5  23
ENDBRANCH  20   5
ENDBRANCH  17   9
BRANCH  16   8
ATOM      8  N   UNL     1      -8.181  -9.438  16.362  0.00  0.00    -0.182 NA
ATOM     33  H   UNL     1      -7.490  -8.690  16.220  0.00  0.00    +0.149 HD
BRANCH   8   1
ATOM      1  S   UNL     1      -9.754  -9.013  16.837  0.00  0.00    +0.065 S 
ATOM      6  O   UNL     1     -10.675  -9.272  15.748  0.00  0.00    -0.153 OA
ATOM      7  O   UNL     1      -9.716  -7.706  17.465  0.00  0.00    -0.153 OA
BRANCH   1  21
ATOM      2  S   UNL     1     -11.128 -11.460  17.662  0.00  0.00    -0.077 S 
ATOM     21  C   UNL     1     -10.079 -10.189  18.117  0.00  0.00    +0.142 A 
ATOM     22  C   UNL     1      -9.658 -10.294  19.417  0.00  0.00    +0.036 A 
ATOM     24  C   UNL     1     -10.206 -11.442  20.060  0.00  0.00    +0.010 A 
ATOM     25  C   UNL     1     -11.023 -12.164  19.219  0.00  0.00    +0.047 A 
ENDBRANCH   1  21
ENDBRANCH   8   1
ENDBRANCH  16   8
TORSDOF 7
ENDMDL
MODEL 7
REMARK VINA RESULT:      -6.3      4.306      7.599
REMARK  Name = 11879582
REMARK  9 active torsions:
REMARK  status: ('A' for Active; 'I' for Inactive)
REMARK    1  A    between atoms: S_1  and  N_8
REMARK    2  A    between atoms: S_1  and  C_21
REMARK    3  A    between atoms: O_5  and  C_20
REMARK    4  A    between atoms: O_5  and  C_23
REMARK    5  A    between atoms: N_8  and  C_16
REMARK    6  A    between atoms: N_9  and  C_17
REMARK    7  A    between atoms: N_13  and  C_28
REMARK    8  A    between atoms: N_13  and  C_31
REMARK    9  A    between atoms: N_13  and  C_32
REMARK                            x       y       z     vdW  Elec       q    Type
REMARK                         _______ _______ _______ _____ _____    ______ ____
ROOT
ATOM      3  O   UNL     1      -9.769  -9.390  14.890  0.00  0.00    -0.370 OA
ATOM      4  O   UNL     1     -10.292  -7.339  17.234  0.00  0.00    -0.370 OA
ATOM     14  C   UNL     1     -10.551  -8.738  17.043  0.00  0.00    +0.170 C 
ATOM     15  C   UNL     1     -10.943  -8.941  15.591  0.00  0.00    +0.175 C 
ATOM     16  C   UNL     1      -9.275  -9.530  17.201  0.00  0.00    +0.133 C 
ATOM     17  C   UNL     1     -11.339  -7.561  15.102  0.00  0.00    +0.171 C 
ATOM     18  C   UNL     1      -8.674  -9.485  15.812  0.00  0.00    +0.183 C 
ATOM     19  C   UNL     1     -10.542  -6.632  16.012  0.00  0.00    +0.190 C 
ENDROOT
BRANCH  17   9
ATOM      9  N   UNL     1     -12.789  -7.353  15.119  0.00  0.00    -0.187 N 
ATOM     10  N   UNL     1     -13.618  -8.339  15.475  0.00  0.00    -0.041 NA
ATOM     11  N   UNL     1     -14.767  -6.498  14.962  0.00  0.00    -0.071 NA
ATOM     12  N   UNL     1     -14.832  -7.809  15.378  0.00  0.00    -0.020 NA
ATOM     20  C   UNL     1     -13.489  -6.238  14.809  0.00  0.00    +0.342 A 
BRANCH  20   5
ATOM      5  O   UNL     1     -12.958  -5.094  14.418  0.00  0.00    -0.423 OA
BRANCH   5  23
ATOM     23  C   UNL     1     -13.182  -4.558  13.157  0.00  0.00    +0.134 A 
ATOM     26  C   UNL     1     -12.302  -4.858  12.136  0.00  0.00    +0.069 A 
ATOM     27  C   UNL     1     -14.277  -3.739  12.961  0.00  0.00    +0.046 A 
ATOM     28  C   UNL     1     -12.525  -4.320  10.868  0.00  0.00    +0.033 A 
ATOM     29  C   UNL     1     -14.501  -3.201  11.694  0.00  0.00    +0.005 A 
ATOM     30  C   UNL     1     -13.626  -3.490  10.648  0.00  0.00    +0.023 A 
BRANCH  28  13
ATOM     13  N   UNL     1     -11.640  -4.612   9.811  0.00  0.00    -0.336 N 
ATOM     31  C   UNL     1     -11.534  -5.961   9.293  0.00  0.00    +0.129 C 
ATOM     32  C   UNL     1     -10.833  -3.563   9.219  0.00  0.00    +0.129 C 
ENDBRANCH  28  13
ENDBRANCH   5  23
ENDBRANCH  20   5
ENDBRANCH  17   9
BRANCH  16   8
ATOM      8  N   UNL     1      -9.594 -10.933  17.561  0.00  0.00    -0.182 NA
ATOM     33  H   UNL     1     -10.469 -11.308  17.174  0.00  0.00    +0.149 HD
BRANCH   8   1
ATOM      1  S   UNL     1      -8.996 -11.590  19.007  0.00  0.00    +0.065 S 
ATOM      6  O   UNL     1      -9.392 -12.981  19.107  0.00  0.00    -0.153 OA
ATOM      7  O   UNL     1      -9.283 -10.670  20.091  0.00  0.00    -0.153 OA
BRANCH   1  21
ATOM      2  S   UNL     1      -6.633 -12.852  17.834  0.00  0.00    -0.077 S 
ATOM     21  C   UNL     1      -7.249 -11.538  18.737  0.00  0.00    +0.142 A 
ATOM     22  C   UNL     1      -6.274 -10.650  19.109  0.00  0.00    +0.036 A 
ATOM     24  C   UNL     1      -4.988 -11.052  18.644  0.00  0.00    +0.010 A 
ATOM     25  C   UNL     1      -5.040 -12.232  17.936  0.00  0.00    +0.047 A 
ENDBRANCH   1  21
ENDBRANCH   8   1
ENDBRANCH  16   8
TORSDOF 7
ENDMDL
MODEL 8
REMARK VINA RESULT:      -6.2      3.548      7.963
REMARK  Name = 11879582
REMARK  9 active torsions:
REMARK  status: ('A' for Active; 'I' for Inactive)
REMARK    1  A    between atoms: S_1  and  N_8
REMARK    2  A    between atoms: S_1  and  C_21
REMARK    3  A    between atoms: O_5  and  C_20
REMARK    4  A    between atoms: O_5  and  C_23
REMARK    5  A    between atoms: N_8  and  C_16
REMARK    6  A    between atoms: N_9  and  C_17
REMARK    7  A    between atoms: N_13  and  C_28
REMARK    8  A    between atoms: N_13  and  C_31
REMARK    9  A    between atoms: N_13  and  C_32
REMARK                            x       y       z     vdW  Elec       q    Type
REMARK                         _______ _______ _______ _____ _____    ______ ____
ROOT
ATOM      3  O   UNL     1      -6.678 -11.496  14.819  0.00  0.00    -0.370 OA
ATOM      4  O   UNL     1      -5.217 -13.756  16.473  0.00  0.00    -0.370 OA
ATOM     14  C   UNL     1      -5.791 -12.480  16.798  0.00  0.00    +0.170 C 
ATOM     15  C   UNL     1      -5.501 -11.537  15.646  0.00  0.00    +0.175 C 
ATOM     16  C   UNL     1      -7.297 -12.581  16.830  0.00  0.00    +0.133 C 
ATOM     17  C   UNL     1      -4.361 -12.190  14.888  0.00  0.00    +0.171 C 
ATOM     18  C   UNL     1      -7.683 -12.349  15.384  0.00  0.00    +0.183 C 
ATOM     19  C   UNL     1      -4.537 -13.670  15.213  0.00  0.00    +0.190 C 
ENDROOT
BRANCH  17   9
ATOM      9  N   UNL     1      -3.055 -11.629  15.243  0.00  0.00    -0.187 N 
ATOM     10  N   UNL     1      -2.843 -11.096  16.450  0.00  0.00    -0.041 NA
ATOM     11  N   UNL     1      -0.998 -10.970  15.205  0.00  0.00    -0.071 NA
ATOM     12  N   UNL     1      -1.578 -10.694  16.423  0.00  0.00    -0.020 NA
ATOM     20  C   UNL     1      -1.933 -11.550  14.490  0.00  0.00    +0.342 A 
BRANCH  20   5
ATOM      5  O   UNL     1      -1.822 -11.988  13.249  0.00  0.00    -0.423 OA
BRANCH   5  23
ATOM     23  C   UNL     1      -2.325 -11.287  12.162  0.00  0.00    +0.134 A 
ATOM     26  C   UNL     1      -3.328 -11.857  11.403  0.00  0.00    +0.069 A 
ATOM     27  C   UNL     1      -1.806 -10.040  11.870  0.00  0.00    +0.046 A 
ATOM     28  C   UNL     1      -3.834 -11.153  10.309  0.00  0.00    +0.033 A 
ATOM     29  C   UNL     1      -2.312  -9.336  10.777  0.00  0.00    +0.005 A 
ATOM     30  C   UNL     1      -3.325  -9.892   9.996  0.00  0.00    +0.023 A 
BRANCH  28  13
ATOM     13  N   UNL     1      -4.857 -11.716   9.520  0.00  0.00    -0.336 N 
ATOM     31  C   UNL     1      -4.532 -12.558   8.386  0.00  0.00    +0.129 C 
ATOM     32  C   UNL     1      -6.250 -11.473   9.842  0.00  0.00    +0.129 C 
ENDBRANCH  28  13
ENDBRANCH   5  23
ENDBRANCH  20   5
ENDBRANCH  17   9
BRANCH  16   8
ATOM      8  N   UNL     1      -7.856 -11.498  17.675  0.00  0.00    -0.182 NA
ATOM     33  H   UNL     1      -7.701 -10.540  17.338  0.00  0.00    +0.149 HD
BRANCH   8   1
ATOM      1  S   UNL     1      -8.069 -11.752  19.340  0.00  0.00    +0.065 S 
ATOM      6  O   UNL     1      -7.235 -10.825  20.081  0.00  0.00    -0.153 OA
ATOM      7  O   UNL     1      -7.994 -13.175  19.609  0.00  0.00    -0.153 OA
BRANCH   1  21
ATOM      2  S   UNL     1     -10.712 -12.422  20.398  0.00  0.00    -0.077 S 
ATOM     21  C   UNL     1      -9.755 -11.273  19.570  0.00  0.00    +0.142 A 
ATOM     22  C   UNL     1     -10.464 -10.154  19.217  0.00  0.00    +0.036 A 
ATOM     24  C   UNL     1     -11.824 -10.237  19.632  0.00  0.00    +0.010 A 
ATOM     25  C   UNL     1     -12.094 -11.418  20.286  0.00  0.00    +0.047 A 
ENDBRANCH   1  21
ENDBRANCH   8   1
ENDBRANCH  16   8
TORSDOF 7
ENDMDL
MODEL 9
REMARK VINA RESULT:      -6.2      2.901      7.284
REMARK  Name = 11879582
REMARK  9 active torsions:
REMARK  status: ('A' for Active; 'I' for Inactive)
REMARK    1  A    between atoms: S_1  and  N_8
REMARK    2  A    between atoms: S_1  and  C_21
REMARK    3  A    between atoms: O_5  and  C_20
REMARK    4  A    between atoms: O_5  and  C_23
REMARK    5  A    between atoms: N_8  and  C_16
REMARK    6  A    between atoms: N_9  and  C_17
REMARK    7  A    between atoms: N_13  and  C_28
REMARK    8  A    between atoms: N_13  and  C_31
REMARK    9  A    between atoms: N_13  and  C_32
REMARK                            x       y       z     vdW  Elec       q    Type
REMARK                         _______ _______ _______ _____ _____    ______ ____
ROOT
ATOM      3  O   UNL     1      -6.401 -12.047  13.753  0.00  0.00    -0.370 OA
ATOM      4  O   UNL     1      -5.710 -12.991  16.686  0.00  0.00    -0.370 OA
ATOM     14  C   UNL     1      -6.195 -11.769  16.109  0.00  0.00    +0.170 C 
ATOM     15  C   UNL     1      -5.500 -11.582  14.774  0.00  0.00    +0.175 C 
ATOM     16  C   UNL     1      -7.657 -11.906  15.755  0.00  0.00    +0.133 C 
ATOM     17  C   UNL     1      -4.285 -12.487  14.840  0.00  0.00    +0.171 C 
ATOM     18  C   UNL     1      -7.614 -12.507  14.365  0.00  0.00    +0.183 C 
ATOM     19  C   UNL     1      -4.714 -13.566  15.829  0.00  0.00    +0.190 C 
ENDROOT
BRANCH  17   9
ATOM      9  N   UNL     1      -3.064 -11.763  15.202  0.00  0.00    -0.187 N 
ATOM     10  N   UNL     1      -2.904 -11.260  16.430  0.00  0.00    -0.041 NA
ATOM     11  N   UNL     1      -1.120 -10.820  15.167  0.00  0.00    -0.071 NA
ATOM     12  N   UNL     1      -1.709 -10.682  16.404  0.00  0.00    -0.020 NA
ATOM     20  C   UNL     1      -1.979 -11.495  14.439  0.00  0.00    +0.342 A 
BRANCH  20   5
ATOM      5  O   UNL     1      -1.832 -11.857  13.178  0.00  0.00    -0.423 OA
BRANCH   5  23
ATOM     23  C   UNL     1      -2.333 -11.108  12.122  0.00  0.00    +0.134 A 
ATOM     26  C   UNL     1      -3.471 -11.545  11.472  0.00  0.00    +0.069 A 
ATOM     27  C   UNL     1      -1.678  -9.950  11.751  0.00  0.00    +0.046 A 
ATOM     28  C   UNL     1      -3.976 -10.793  10.410  0.00  0.00    +0.033 A 
ATOM     29  C   UNL     1      -2.182  -9.198  10.690  0.00  0.00    +0.005 A 
ATOM     30  C   UNL     1      -3.330  -9.619  10.019  0.00  0.00    +0.023 A 
BRANCH  28  13
ATOM     13  N   UNL     1      -5.135 -11.220   9.732  0.00  0.00    -0.336 N 
ATOM     31  C   UNL     1      -5.815 -12.436  10.132  0.00  0.00    +0.129 C 
ATOM     32  C   UNL     1      -5.672 -10.440   8.634  0.00  0.00    +0.129 C 
ENDBRANCH  28  13
ENDBRANCH   5  23
ENDBRANCH  20   5
ENDBRANCH  17   9
BRANCH  16   8
ATOM      8  N   UNL     1      -8.289 -10.566  15.698  0.00  0.00    -0.182 NA
ATOM     33  H   UNL     1      -8.029  -9.980  14.896  0.00  0.00    +0.149 HD
BRANCH   8   1
ATOM      1  S   UNL     1      -8.787  -9.807  17.133  0.00  0.00    +0.065 S 
ATOM      6  O   UNL     1      -7.649  -9.165  17.761  0.00  0.00    -0.153 OA
ATOM      7  O   UNL     1      -9.611 -10.732  17.888  0.00  0.00    -0.153 OA
BRANCH   1  21
ATOM      2  S   UNL     1     -10.278  -8.700  14.874  0.00  0.00    -0.077 S 
ATOM     21  C   UNL     1      -9.861  -8.542  16.524  0.00  0.00    +0.142 A 
ATOM     22  C   UNL     1     -10.435  -7.444  17.109  0.00  0.00    +0.036 A 
ATOM     24  C   UNL     1     -11.238  -6.712  16.187  0.00  0.00    +0.010 A 
ATOM     25  C   UNL     1     -11.240  -7.285  14.935  0.00  0.00    +0.047 A 
ENDBRANCH   1  21
ENDBRANCH   8   1
ENDBRANCH  16   8
TORSDOF 7
ENDMDL
MODEL 10
REMARK VINA RESULT:      -6.2      3.471      7.598
REMARK  Name = 11879582
REMARK  9 active torsions:
REMARK  status: ('A' for Active; 'I' for Inactive)
REMARK    1  A    between atoms: S_1  and  N_8
REMARK    2  A    between atoms: S_1  and  C_21
REMARK    3  A    between atoms: O_5  and  C_20
REMARK    4  A    between atoms: O_5  and  C_23
REMARK    5  A    between atoms: N_8  and  C_16
REMARK    6  A    between atoms: N_9  and  C_17
REMARK    7  A    between atoms: N_13  and  C_28
REMARK    8  A    between atoms: N_13  and  C_31
REMARK    9  A    between atoms: N_13  and  C_32
REMARK                            x       y       z     vdW  Elec       q    Type
REMARK                         _______ _______ _______ _____ _____    ______ ____
ROOT
ATOM      3  O   UNL     1      -4.858 -12.869  13.722  0.00  0.00    -0.370 OA
ATOM      4  O   UNL     1      -2.046 -11.814  14.696  0.00  0.00    -0.370 OA
ATOM     14  C   UNL     1      -3.394 -11.330  14.798  0.00  0.00    +0.170 C 
ATOM     15  C   UNL     1      -4.103 -11.665  13.499  0.00  0.00    +0.175 C 
ATOM     16  C   UNL     1      -4.149 -12.109  15.849  0.00  0.00    +0.133 C 
ATOM     17  C   UNL     1      -2.987 -11.932  12.507  0.00  0.00    +0.171 C 
ATOM     18  C   UNL     1      -4.670 -13.303  15.076  0.00  0.00    +0.183 C 
ATOM     19  C   UNL     1      -1.838 -12.388  13.399  0.00  0.00    +0.190 C 
ENDROOT
BRANCH  17   9
ATOM      9  N   UNL     1      -2.695 -10.771  11.663  0.00  0.00    -0.187 N 
ATOM     10  N   UNL     1      -1.550 -10.095  11.799  0.00  0.00    -0.041 NA
ATOM     11  N   UNL     1      -2.804  -9.191  10.193  0.00  0.00    -0.071 NA
ATOM     12  N   UNL     1      -1.622  -9.126  10.894  0.00  0.00    -0.020 NA
ATOM     20  C   UNL     1      -3.454 -10.220  10.687  0.00  0.00    +0.342 A 
BRANCH  20   5
ATOM      5  O   UNL     1      -4.642 -10.657  10.313  0.00  0.00    -0.423 OA
BRANCH   5  23
ATOM     23  C   UNL     1      -5.193 -10.357   9.076  0.00  0.00    +0.134 A 
ATOM     26  C   UNL     1      -6.197  -9.411   9.001  0.00  0.00    +0.069 A 
ATOM     27  C   UNL     1      -4.723 -11.014   7.955  0.00  0.00    +0.046 A 
ATOM     28  C   UNL     1      -6.752  -9.108   7.757  0.00  0.00    +0.033 A 
ATOM     29  C   UNL     1      -5.277 -10.711   6.711  0.00  0.00    +0.005 A 
ATOM     30  C   UNL     1      -6.292  -9.760   6.612  0.00  0.00    +0.023 A 
BRANCH  28  13
ATOM     13  N   UNL     1      -7.778  -8.147   7.657  0.00  0.00    -0.336 N 
ATOM     31  C   UNL     1      -8.522  -7.741   8.833  0.00  0.00    +0.129 C 
ATOM     32  C   UNL     1      -8.094  -7.541   6.378  0.00  0.00    +0.129 C 
ENDBRANCH  28  13
ENDBRANCH   5  23
ENDBRANCH  20   5
ENDBRANCH  17   9
BRANCH  16   8
ATOM      8  N   UNL     1      -5.288 -11.304  16.351  0.00  0.00    -0.182 NA
ATOM     33  H   UNL     1      -5.417 -10.384  15.911  0.00  0.00    +0.149 HD
BRANCH   8   1
ATOM      1  S   UNL     1      -5.850 -11.535  17.936  0.00  0.00    +0.065 S 
ATOM      6  O   UNL     1      -4.996 -10.817  18.861  0.00  0.00    -0.153 OA
ATOM      7  O   UNL     1      -6.117 -12.946  18.136  0.00  0.00    -0.153 OA
BRANCH   1  21
ATOM      2  S   UNL     1      -7.512  -9.430  16.770  0.00  0.00    -0.077 S 
ATOM     21  C   UNL     1      -7.416 -10.716  17.892  0.00  0.00    +0.142 A 
ATOM     22  C   UNL     1      -8.586 -10.901  18.581  0.00  0.00    +0.036 A 
ATOM     24  C   UNL     1      -9.588  -9.968  18.184  0.00  0.00    +0.010 A 
ATOM     25  C   UNL     1      -9.136  -9.110  17.206  0.00  0.00    +0.047 A 
ENDBRANCH   1  21
ENDBRANCH   8   1
ENDBRANCH  16   8
TORSDOF 7
ENDMDL
