MODEL 1
REMARK VINA RESULT:      -8.6      0.000      0.000
REMARK  Name = 11866271
REMARK  5 active torsions:
REMARK  status: ('A' for Active; 'I' for Inactive)
REMARK    1  A    between atoms: C_10  and  C_18
REMARK    2  A    between atoms: C_15  and  C_22
REMARK    3  A    between atoms: C_17  and  C_23
REMARK    4  A    between atoms: C_25  and  C_26
REMARK    5  A    between atoms: C_31  and  C_32
REMARK                            x       y       z     vdW  Elec       q    Type
REMARK                         _______ _______ _______ _____ _____    ______ ____
ROOT
ATOM      1  S   UNL     1      17.195   5.828  18.899  0.00  0.00    -0.057 S 
ATOM      2  O   UNL     1      14.430  11.098  22.405  0.00  0.00    -0.461 OA
ATOM      3  O   UNL     1      13.548  13.024  23.300  0.00  0.00    -0.251 OA
ATOM      4  O   UNL     1      20.774   6.210  21.910  0.00  0.00    -0.275 OA
ATOM      6  N   UNL     1      18.006   7.060  21.024  0.00  0.00    -0.229 NA
ATOM      7  N   UNL     1      19.517   5.450  20.057  0.00  0.00    -0.264 N 
ATOM      9  C   UNL     1      14.775   9.114  20.888  0.00  0.00    +0.045 C 
ATOM     10  C   UNL     1      13.926   7.957  20.203  0.00  0.00    -0.021 C 
ATOM     11  C   UNL     1      13.856   9.931  21.814  0.00  0.00    +0.184 C 
ATOM     12  C   UNL     1      12.703  10.519  21.023  0.00  0.00    +0.044 C 
ATOM     13  C   UNL     1      12.643   8.538  19.533  0.00  0.00    +0.008 C 
ATOM     14  C   UNL     1      11.808   9.436  20.457  0.00  0.00    +0.008 C 
ATOM     15  C   UNL     1      16.075   8.579  21.589  0.00  0.00    +0.043 C 
ATOM     16  C   UNL     1      14.790   7.280  19.094  0.00  0.00    +0.051 C 
ATOM     17  C   UNL     1      12.124  11.478  22.046  0.00  0.00    +0.101 C 
ATOM     18  C   UNL     1      13.484   6.871  21.222  0.00  0.00    +0.012 C 
ATOM     19  C   UNL     1      16.746   7.543  20.719  0.00  0.00    +0.057 A 
ATOM     20  C   UNL     1      16.152   6.968  19.614  0.00  0.00    +0.015 A 
ATOM     21  C   UNL     1      13.413  11.991  22.664  0.00  0.00    +0.311 C 
ATOM     22  C   UNL     1      17.060   9.703  21.935  0.00  0.00    +0.014 C 
ATOM     23  C   UNL     1      11.293  12.586  21.427  0.00  0.00    +0.019 C 
ATOM     24  C   UNL     1      18.348   6.160  20.128  0.00  0.00    +0.165 A 
ATOM     26  C   UNL     1      20.642   5.499  20.918  0.00  0.00    +0.222 C 
ATOM     33  H   UNL     1      19.558   4.801  19.276  0.00  0.00    +0.157 HD
ENDROOT
BRANCH  26  25
ATOM      5  O   UNL     1      26.428   3.569  21.738  0.00  0.00    -0.276 OA
ATOM      8  N   UNL     1      24.223   3.220  21.093  0.00  0.00    -0.302 N 
ATOM     25  C   UNL     1      21.727   4.555  20.500  0.00  0.00    +0.078 C 
ATOM     27  C   UNL     1      23.064   5.301  20.464  0.00  0.00    +0.032 C 
ATOM     28  C   UNL     1      21.792   3.369  21.467  0.00  0.00    +0.032 C 
ATOM     29  C   UNL     1      24.217   4.349  20.160  0.00  0.00    +0.108 C 
ATOM     30  C   UNL     1      22.971   2.456  21.141  0.00  0.00    +0.108 C 
ATOM     31  C   UNL     1      25.376   2.929  21.821  0.00  0.00    +0.212 C 
ATOM     32  C   UNL     1      25.301   1.754  22.763  0.00  0.00    +0.109 C 
ENDBRANCH  26  25
TORSDOF 1
ENDMDL
MODEL 2
REMARK VINA RESULT:      -7.8      2.692     11.217
REMARK  Name = 11866271
REMARK  5 active torsions:
REMARK  status: ('A' for Active; 'I' for Inactive)
REMARK    1  A    between atoms: C_10  and  C_18
REMARK    2  A    between atoms: C_15  and  C_22
REMARK    3  A    between atoms: C_17  and  C_23
REMARK    4  A    between atoms: C_25  and  C_26
REMARK    5  A    between atoms: C_31  and  C_32
REMARK                            x       y       z     vdW  Elec       q    Type
REMARK                         _______ _______ _______ _____ _____    ______ ____
ROOT
ATOM      1  S   UNL     1      20.286   8.739  21.646  0.00  0.00    -0.057 S 
ATOM      2  O   UNL     1      23.387   2.568  21.567  0.00  0.00    -0.461 OA
ATOM      3  O   UNL     1      24.567   0.616  21.269  0.00  0.00    -0.251 OA
ATOM      4  O   UNL     1      16.335   6.331  20.866  0.00  0.00    -0.275 OA
ATOM      6  N   UNL     1      19.306   6.353  21.451  0.00  0.00    -0.229 NA
ATOM      7  N   UNL     1      17.772   8.187  21.147  0.00  0.00    -0.264 N 
ATOM      9  C   UNL     1      22.867   5.013  21.895  0.00  0.00    +0.045 C 
ATOM     10  C   UNL     1      23.347   6.239  22.786  0.00  0.00    -0.021 C 
ATOM     11  C   UNL     1      23.601   3.740  22.355  0.00  0.00    +0.184 C 
ATOM     12  C   UNL     1      25.101   3.926  22.234  0.00  0.00    +0.044 C 
ATOM     13  C   UNL     1      24.903   6.331  22.806  0.00  0.00    +0.008 C 
ATOM     14  C   UNL     1      25.602   5.012  23.165  0.00  0.00    +0.008 C 
ATOM     15  C   UNL     1      21.304   4.869  21.852  0.00  0.00    +0.043 C 
ATOM     16  C   UNL     1      22.789   7.562  22.176  0.00  0.00    +0.051 C 
ATOM     17  C   UNL     1      25.577   2.503  22.456  0.00  0.00    +0.101 C 
ATOM     18  C   UNL     1      22.856   6.124  24.255  0.00  0.00    +0.012 C 
ATOM     19  C   UNL     1      20.660   6.227  21.704  0.00  0.00    +0.057 A 
ATOM     20  C   UNL     1      21.339   7.419  21.862  0.00  0.00    +0.015 A 
ATOM     21  C   UNL     1      24.494   1.757  21.698  0.00  0.00    +0.311 C 
ATOM     22  C   UNL     1      20.832   3.931  20.733  0.00  0.00    +0.014 C 
ATOM     23  C   UNL     1      26.964   2.240  21.901  0.00  0.00    +0.019 C 
ATOM     24  C   UNL     1      19.000   7.631  21.389  0.00  0.00    +0.165 A 
ATOM     26  C   UNL     1      16.533   7.541  20.904  0.00  0.00    +0.222 C 
ATOM     33  H   UNL     1      17.771   9.204  21.152  0.00  0.00    +0.157 HD
ENDROOT
BRANCH  26  25
ATOM      5  O   UNL     1      10.532   8.358  19.814  0.00  0.00    -0.276 OA
ATOM      8  N   UNL     1      12.573   9.062  20.672  0.00  0.00    -0.302 N 
ATOM     25  C   UNL     1      15.413   8.510  20.687  0.00  0.00    +0.078 C 
ATOM     27  C   UNL     1      14.500   7.991  19.572  0.00  0.00    +0.032 C 
ATOM     28  C   UNL     1      14.627   8.703  21.988  0.00  0.00    +0.032 C 
ATOM     29  C   UNL     1      13.277   8.888  19.400  0.00  0.00    +0.108 C 
ATOM     30  C   UNL     1      13.401   9.587  21.766  0.00  0.00    +0.108 C 
ATOM     31  C   UNL     1      11.213   8.768  20.759  0.00  0.00    +0.212 C 
ATOM     32  C   UNL     1      10.562   8.971  22.103  0.00  0.00    +0.109 C 
ENDBRANCH  26  25
TORSDOF 1
ENDMDL
MODEL 3
REMARK VINA RESULT:      -7.8     29.550     33.205
REMARK  Name = 11866271
REMARK  5 active torsions:
REMARK  status: ('A' for Active; 'I' for Inactive)
REMARK    1  A    between atoms: C_10  and  C_18
REMARK    2  A    between atoms: C_15  and  C_22
REMARK    3  A    between atoms: C_17  and  C_23
REMARK    4  A    between atoms: C_25  and  C_26
REMARK    5  A    between atoms: C_31  and  C_32
REMARK                            x       y       z     vdW  Elec       q    Type
REMARK                         _______ _______ _______ _____ _____    ______ ____
ROOT
ATOM      1  S   UNL     1      -6.751 -10.601  19.287  0.00  0.00    -0.057 S 
ATOM      2  O   UNL     1      -4.915 -10.121  12.646  0.00  0.00    -0.461 OA
ATOM      3  O   UNL     1      -4.192  -9.666  10.511  0.00  0.00    -0.251 OA
ATOM      4  O   UNL     1     -11.156 -10.603  17.668  0.00  0.00    -0.275 OA
ATOM      6  N   UNL     1      -8.176 -10.645  17.129  0.00  0.00    -0.229 NA
ATOM      7  N   UNL     1      -9.373 -10.575  19.220  0.00  0.00    -0.264 N 
ATOM      9  C   UNL     1      -4.905 -10.477  15.142  0.00  0.00    +0.045 C 
ATOM     10  C   UNL     1      -4.053 -11.237  16.249  0.00  0.00    -0.021 C 
ATOM     11  C   UNL     1      -4.350 -10.829  13.750  0.00  0.00    +0.184 C 
ATOM     12  C   UNL     1      -2.888 -10.437  13.654  0.00  0.00    +0.044 C 
ATOM     13  C   UNL     1      -2.529 -10.975  16.048  0.00  0.00    +0.008 C 
ATOM     14  C   UNL     1      -2.034 -11.235  14.618  0.00  0.00    +0.008 C 
ATOM     15  C   UNL     1      -6.449 -10.718  15.294  0.00  0.00    +0.043 C 
ATOM     16  C   UNL     1      -4.457 -10.703  17.658  0.00  0.00    +0.051 C 
ATOM     17  C   UNL     1      -2.652 -10.605  12.165  0.00  0.00    +0.101 C 
ATOM     18  C   UNL     1      -4.283 -12.772  16.214  0.00  0.00    +0.012 C 
ATOM     19  C   UNL     1      -6.846 -10.655  16.749  0.00  0.00    +0.057 A 
ATOM     20  C   UNL     1      -5.941 -10.658  17.791  0.00  0.00    +0.015 A 
ATOM     21  C   UNL     1      -3.974 -10.072  11.642  0.00  0.00    +0.311 C 
ATOM     22  C   UNL     1      -7.281  -9.726  14.471  0.00  0.00    +0.014 C 
ATOM     23  C   UNL     1      -1.461  -9.818  11.652  0.00  0.00    +0.019 C 
ATOM     24  C   UNL     1      -8.246 -10.608  18.442  0.00  0.00    +0.165 A 
ATOM     26  C   UNL     1     -10.732 -10.575  18.819  0.00  0.00    +0.222 C 
ATOM     33  H   UNL     1      -9.183 -10.555  20.219  0.00  0.00    +0.157 HD
ENDROOT
BRANCH  26  25
ATOM      5  O   UNL     1     -16.569 -10.722  20.764  0.00  0.00    -0.276 OA
ATOM      8  N   UNL     1     -14.296 -11.086  21.075  0.00  0.00    -0.302 N 
ATOM     25  C   UNL     1     -11.674 -10.539  19.983  0.00  0.00    +0.078 C 
ATOM     27  C   UNL     1     -12.888  -9.675  19.628  0.00  0.00    +0.032 C 
ATOM     28  C   UNL     1     -12.108 -11.960  20.352  0.00  0.00    +0.032 C 
ATOM     29  C   UNL     1     -13.931  -9.708  20.741  0.00  0.00    +0.108 C 
ATOM     30  C   UNL     1     -13.167 -11.946  21.452  0.00  0.00    +0.108 C 
ATOM     31  C   UNL     1     -15.635 -11.475  21.053  0.00  0.00    +0.212 C 
ATOM     32  C   UNL     1     -15.927 -12.911  21.406  0.00  0.00    +0.109 C 
ENDBRANCH  26  25
TORSDOF 1
ENDMDL
MODEL 4
REMARK VINA RESULT:      -7.6     29.923     33.238
REMARK  Name = 11866271
REMARK  5 active torsions:
REMARK  status: ('A' for Active; 'I' for Inactive)
REMARK    1  A    between atoms: C_10  and  C_18
REMARK    2  A    between atoms: C_15  and  C_22
REMARK    3  A    between atoms: C_17  and  C_23
REMARK    4  A    between atoms: C_25  and  C_26
REMARK    5  A    between atoms: C_31  and  C_32
REMARK                            x       y       z     vdW  Elec       q    Type
REMARK                         _______ _______ _______ _____ _____    ______ ____
ROOT
ATOM      1  S   UNL     1      -5.456 -10.481   7.024  0.00  0.00    -0.057 S 
ATOM      2  O   UNL     1      -5.864  -9.771  13.882  0.00  0.00    -0.461 OA
ATOM      3  O   UNL     1      -6.122  -9.836  16.166  0.00  0.00    -0.251 OA
ATOM      4  O   UNL     1      -8.718  -7.111   6.871  0.00  0.00    -0.275 OA
ATOM      6  N   UNL     1      -6.799  -8.815   8.477  0.00  0.00    -0.229 NA
ATOM      7  N   UNL     1      -7.243  -8.794   6.108  0.00  0.00    -0.264 N 
ATOM      9  C   UNL     1      -5.116 -10.367  11.549  0.00  0.00    +0.045 C 
ATOM     10  C   UNL     1      -3.786 -10.760  10.772  0.00  0.00    -0.021 C 
ATOM     11  C   UNL     1      -4.763 -10.016  13.006  0.00  0.00    +0.184 C 
ATOM     12  C   UNL     1      -4.085 -11.192  13.680  0.00  0.00    +0.044 C 
ATOM     13  C   UNL     1      -2.993 -11.852  11.554  0.00  0.00    +0.008 C 
ATOM     14  C   UNL     1      -2.753 -11.513  13.031  0.00  0.00    +0.008 C 
ATOM     15  C   UNL     1      -5.948  -9.260  10.808  0.00  0.00    +0.043 C 
ATOM     16  C   UNL     1      -4.165 -11.340   9.374  0.00  0.00    +0.051 C 
ATOM     17  C   UNL     1      -4.096 -10.730  15.125  0.00  0.00    +0.101 C 
ATOM     18  C   UNL     1      -2.846  -9.541  10.567  0.00  0.00    +0.012 C 
ATOM     19  C   UNL     1      -5.976  -9.535   9.324  0.00  0.00    +0.057 A 
ATOM     20  C   UNL     1      -5.164 -10.463   8.701  0.00  0.00    +0.015 A 
ATOM     21  C   UNL     1      -5.465 -10.074  15.165  0.00  0.00    +0.311 C 
ATOM     22  C   UNL     1      -7.376  -9.135  11.354  0.00  0.00    +0.014 C 
ATOM     23  C   UNL     1      -3.964 -11.867  16.121  0.00  0.00    +0.019 C 
ATOM     24  C   UNL     1      -6.617  -9.235   7.244  0.00  0.00    +0.165 A 
ATOM     26  C   UNL     1      -8.231  -7.787   5.970  0.00  0.00    +0.222 C 
ATOM     33  H   UNL     1      -6.936  -9.263   5.260  0.00  0.00    +0.157 HD
ENDROOT
BRANCH  26  25
ATOM      5  O   UNL     1      -8.186  -9.955   0.210  0.00  0.00    -0.276 OA
ATOM      8  N   UNL     1      -9.147  -8.720   1.927  0.00  0.00    -0.302 N 
ATOM     25  C   UNL     1      -8.661  -7.596   4.548  0.00  0.00    +0.078 C 
ATOM     27  C   UNL     1      -7.510  -7.979   3.613  0.00  0.00    +0.032 C 
ATOM     28  C   UNL     1      -9.903  -8.444   4.257  0.00  0.00    +0.032 C 
ATOM     29  C   UNL     1      -7.945  -7.915   2.151  0.00  0.00    +0.108 C 
ATOM     30  C   UNL     1     -10.289  -8.370   2.782  0.00  0.00    +0.108 C 
ATOM     31  C   UNL     1      -9.150  -9.703   0.938  0.00  0.00    +0.212 C 
ATOM     32  C   UNL     1     -10.425 -10.490   0.772  0.00  0.00    +0.109 C 
ENDBRANCH  26  25
TORSDOF 1
ENDMDL
MODEL 5
REMARK VINA RESULT:      -7.5      2.183      2.876
REMARK  Name = 11866271
REMARK  5 active torsions:
REMARK  status: ('A' for Active; 'I' for Inactive)
REMARK    1  A    between atoms: C_10  and  C_18
REMARK    2  A    between atoms: C_15  and  C_22
REMARK    3  A    between atoms: C_17  and  C_23
REMARK    4  A    between atoms: C_25  and  C_26
REMARK    5  A    between atoms: C_31  and  C_32
REMARK                            x       y       z     vdW  Elec       q    Type
REMARK                         _______ _______ _______ _____ _____    ______ ____
ROOT
ATOM      1  S   UNL     1      19.846   5.061  20.345  0.00  0.00    -0.057 S 
ATOM      2  O   UNL     1      15.993  10.758  20.987  0.00  0.00    -0.461 OA
ATOM      3  O   UNL     1      14.825  12.737  20.908  0.00  0.00    -0.251 OA
ATOM      4  O   UNL     1      22.327   6.805  23.927  0.00  0.00    -0.275 OA
ATOM      6  N   UNL     1      19.936   6.981  22.077  0.00  0.00    -0.229 NA
ATOM      7  N   UNL     1      21.716   5.358  22.160  0.00  0.00    -0.264 N 
ATOM      9  C   UNL     1      16.841   8.464  20.374  0.00  0.00    +0.045 C 
ATOM     10  C   UNL     1      16.275   7.054  19.905  0.00  0.00    -0.021 C 
ATOM     11  C   UNL     1      15.660   9.403  20.682  0.00  0.00    +0.184 C 
ATOM     12  C   UNL     1      14.787   9.567  19.454  0.00  0.00    +0.044 C 
ATOM     13  C   UNL     1      15.240   7.232  18.752  0.00  0.00    +0.008 C 
ATOM     14  C   UNL     1      14.138   8.256  19.054  0.00  0.00    +0.008 C 
ATOM     15  C   UNL     1      17.881   8.341  21.545  0.00  0.00    +0.043 C 
ATOM     16  C   UNL     1      17.455   6.184  19.371  0.00  0.00    +0.051 C 
ATOM     17  C   UNL     1      13.896  10.712  19.896  0.00  0.00    +0.101 C 
ATOM     18  C   UNL     1      15.576   6.288  21.061  0.00  0.00    +0.012 C 
ATOM     19  C   UNL     1      18.815   7.182  21.292  0.00  0.00    +0.057 A 
ATOM     20  C   UNL     1      18.602   6.223  20.322  0.00  0.00    +0.015 A 
ATOM     21  C   UNL     1      14.920  11.550  20.641  0.00  0.00    +0.311 C 
ATOM     22  C   UNL     1      18.681   9.633  21.757  0.00  0.00    +0.014 C 
ATOM     23  C   UNL     1      13.260  11.460  18.739  0.00  0.00    +0.019 C 
ATOM     24  C   UNL     1      20.560   5.899  21.663  0.00  0.00    +0.165 A 
ATOM     26  C   UNL     1      22.523   5.813  23.233  0.00  0.00    +0.222 C 
ATOM     33  H   UNL     1      22.012   4.510  21.683  0.00  0.00    +0.157 HD
ENDROOT
BRANCH  26  25
ATOM      5  O   UNL     1      24.634   0.111  24.190  0.00  0.00    -0.276 OA
ATOM      8  N   UNL     1      24.895   2.293  23.433  0.00  0.00    -0.302 N 
ATOM     25  C   UNL     1      23.711   4.932  23.471  0.00  0.00    +0.078 C 
ATOM     27  C   UNL     1      23.361   3.880  24.528  0.00  0.00    +0.032 C 
ATOM     28  C   UNL     1      24.141   4.265  22.161  0.00  0.00    +0.032 C 
ATOM     29  C   UNL     1      24.503   2.886  24.714  0.00  0.00    +0.108 C 
ATOM     30  C   UNL     1      25.269   3.263  22.396  0.00  0.00    +0.108 C 
ATOM     31  C   UNL     1      24.923   0.906  23.290  0.00  0.00    +0.212 C 
ATOM     32  C   UNL     1      25.334   0.375  21.941  0.00  0.00    +0.109 C 
ENDBRANCH  26  25
TORSDOF 1
ENDMDL
MODEL 6
REMARK VINA RESULT:      -7.4     29.786     32.416
REMARK  Name = 11866271
REMARK  5 active torsions:
REMARK  status: ('A' for Active; 'I' for Inactive)
REMARK    1  A    between atoms: C_10  and  C_18
REMARK    2  A    between atoms: C_15  and  C_22
REMARK    3  A    between atoms: C_17  and  C_23
REMARK    4  A    between atoms: C_25  and  C_26
REMARK    5  A    between atoms: C_31  and  C_32
REMARK                            x       y       z     vdW  Elec       q    Type
REMARK                         _______ _______ _______ _____ _____    ______ ____
ROOT
ATOM      1  S   UNL     1      -7.872 -10.114  10.378  0.00  0.00    -0.057 S 
ATOM      2  O   UNL     1      -7.547  -8.614   3.644  0.00  0.00    -0.461 OA
ATOM      3  O   UNL     1      -7.652  -8.355   1.361  0.00  0.00    -0.251 OA
ATOM      4  O   UNL     1      -3.398 -11.447   9.901  0.00  0.00    -0.275 OA
ATOM      6  N   UNL     1      -5.890 -10.198   8.718  0.00  0.00    -0.229 NA
ATOM      7  N   UNL     1      -5.503 -11.101  10.919  0.00  0.00    -0.264 N 
ATOM      9  C   UNL     1      -8.246  -8.758   6.062  0.00  0.00    +0.045 C 
ATOM     10  C   UNL     1      -9.135  -7.959   7.111  0.00  0.00    -0.021 C 
ATOM     11  C   UNL     1      -8.194  -7.968   4.741  0.00  0.00    +0.184 C 
ATOM     12  C   UNL     1      -9.594  -7.762   4.198  0.00  0.00    +0.044 C 
ATOM     13  C   UNL     1     -10.519  -7.591   6.493  0.00  0.00    +0.008 C 
ATOM     14  C   UNL     1     -10.429  -6.901   5.125  0.00  0.00    +0.008 C 
ATOM     15  C   UNL     1      -6.833  -9.142   6.633  0.00  0.00    +0.043 C 
ATOM     16  C   UNL     1      -9.382  -8.860   8.360  0.00  0.00    +0.051 C 
ATOM     17  C   UNL     1      -9.280  -7.240   2.809  0.00  0.00    +0.101 C 
ATOM     18  C   UNL     1      -8.453  -6.642   7.575  0.00  0.00    +0.012 C 
ATOM     19  C   UNL     1      -6.960  -9.622   8.058  0.00  0.00    +0.057 A 
ATOM     20  C   UNL     1      -8.105  -9.479   8.816  0.00  0.00    +0.015 A 
ATOM     21  C   UNL     1      -8.087  -8.118   2.478  0.00  0.00    +0.311 C 
ATOM     22  C   UNL     1      -6.123 -10.199   5.776  0.00  0.00    +0.014 C 
ATOM     23  C   UNL     1     -10.425  -7.416   1.828  0.00  0.00    +0.019 C 
ATOM     24  C   UNL     1      -6.257 -10.506   9.943  0.00  0.00    +0.165 A 
ATOM     26  C   UNL     1      -4.154 -11.532  10.863  0.00  0.00    +0.222 C 
ATOM     33  H   UNL     1      -5.998 -11.237  11.797  0.00  0.00    +0.157 HD
ENDROOT
BRANCH  26  25
ATOM      5  O   UNL     1      -1.549 -10.625  16.365  0.00  0.00    -0.276 OA
ATOM      8  N   UNL     1      -2.947 -11.799  14.928  0.00  0.00    -0.302 N 
ATOM     25  C   UNL     1      -3.690 -12.135  12.153  0.00  0.00    +0.078 C 
ATOM     27  C   UNL     1      -2.351 -11.509  12.555  0.00  0.00    +0.032 C 
ATOM     28  C   UNL     1      -4.742 -11.916  13.244  0.00  0.00    +0.032 C 
ATOM     29  C   UNL     1      -1.900 -12.008  13.925  0.00  0.00    +0.108 C 
ATOM     30  C   UNL     1      -4.242 -12.408  14.600  0.00  0.00    +0.108 C 
ATOM     31  C   UNL     1      -2.657 -11.099  16.098  0.00  0.00    +0.212 C 
ATOM     32  C   UNL     1      -3.789 -10.924  17.079  0.00  0.00    +0.109 C 
ENDBRANCH  26  25
TORSDOF 1
ENDMDL
MODEL 7
REMARK VINA RESULT:      -7.3     29.569     32.851
REMARK  Name = 11866271
REMARK  5 active torsions:
REMARK  status: ('A' for Active; 'I' for Inactive)
REMARK    1  A    between atoms: C_10  and  C_18
REMARK    2  A    between atoms: C_15  and  C_22
REMARK    3  A    between atoms: C_17  and  C_23
REMARK    4  A    between atoms: C_25  and  C_26
REMARK    5  A    between atoms: C_31  and  C_32
REMARK                            x       y       z     vdW  Elec       q    Type
REMARK                         _______ _______ _______ _____ _____    ______ ____
ROOT
ATOM      1  S   UNL     1      -4.350 -11.892   8.410  0.00  0.00    -0.057 S 
ATOM      2  O   UNL     1      -5.685  -9.918  14.893  0.00  0.00    -0.461 OA
ATOM      3  O   UNL     1      -6.260  -9.555  17.090  0.00  0.00    -0.251 OA
ATOM      4  O   UNL     1      -7.452  -8.593   7.179  0.00  0.00    -0.275 OA
ATOM      6  N   UNL     1      -5.829  -9.978   9.327  0.00  0.00    -0.229 NA
ATOM      7  N   UNL     1      -5.938 -10.395   6.956  0.00  0.00    -0.264 N 
ATOM      9  C   UNL     1      -4.639 -10.940  12.840  0.00  0.00    +0.045 C 
ATOM     10  C   UNL     1      -3.227 -11.477  12.345  0.00  0.00    -0.021 C 
ATOM     11  C   UNL     1      -4.481 -10.326  14.242  0.00  0.00    +0.184 C 
ATOM     12  C   UNL     1      -3.940 -11.360  15.210  0.00  0.00    +0.044 C 
ATOM     13  C   UNL     1      -2.584 -12.409  13.418  0.00  0.00    +0.008 C 
ATOM     14  C   UNL     1      -2.542 -11.802  14.828  0.00  0.00    +0.008 C 
ATOM     15  C   UNL     1      -5.324  -9.986  11.797  0.00  0.00    +0.043 C 
ATOM     16  C   UNL     1      -3.425 -12.305  11.037  0.00  0.00    +0.051 C 
ATOM     17  C   UNL     1      -4.138 -10.637  16.529  0.00  0.00    +0.101 C 
ATOM     18  C   UNL     1      -2.229 -10.322  12.056  0.00  0.00    +0.012 C 
ATOM     19  C   UNL     1      -5.154 -10.532  10.400  0.00  0.00    +0.057 A 
ATOM     20  C   UNL     1      -4.294 -11.563  10.079  0.00  0.00    +0.015 A 
ATOM     21  C   UNL     1      -5.477  -9.979  16.253  0.00  0.00    +0.311 C 
ATOM     22  C   UNL     1      -6.811  -9.755  12.102  0.00  0.00    +0.014 C 
ATOM     23  C   UNL     1      -4.180 -11.570  17.725  0.00  0.00    +0.019 C 
ATOM     24  C   UNL     1      -5.490 -10.621   8.230  0.00  0.00    +0.165 A 
ATOM     26  C   UNL     1      -6.865  -9.427   6.496  0.00  0.00    +0.222 C 
ATOM     33  H   UNL     1      -5.531 -11.015   6.261  0.00  0.00    +0.157 HD
ENDROOT
BRANCH  26  25
ATOM      5  O   UNL     1     -10.915  -9.878   1.883  0.00  0.00    -0.276 OA
ATOM      8  N   UNL     1      -8.866  -9.212   2.754  0.00  0.00    -0.302 N 
ATOM     25  C   UNL     1      -7.088  -9.501   5.017  0.00  0.00    +0.078 C 
ATOM     27  C   UNL     1      -8.180 -10.532   4.718  0.00  0.00    +0.032 C 
ATOM     28  C   UNL     1      -7.477  -8.123   4.474  0.00  0.00    +0.032 C 
ATOM     29  C   UNL     1      -8.524 -10.554   3.231  0.00  0.00    +0.108 C 
ATOM     30  C   UNL     1      -7.834  -8.195   2.991  0.00  0.00    +0.108 C 
ATOM     31  C   UNL     1     -10.078  -8.996   2.100  0.00  0.00    +0.212 C 
ATOM     32  C   UNL     1     -10.356  -7.587   1.641  0.00  0.00    +0.109 C 
ENDBRANCH  26  25
TORSDOF 1
ENDMDL
MODEL 8
REMARK VINA RESULT:      -7.2     17.894     21.239
REMARK  Name = 11866271
REMARK  5 active torsions:
REMARK  status: ('A' for Active; 'I' for Inactive)
REMARK    1  A    between atoms: C_10  and  C_18
REMARK    2  A    between atoms: C_15  and  C_22
REMARK    3  A    between atoms: C_17  and  C_23
REMARK    4  A    between atoms: C_25  and  C_26
REMARK    5  A    between atoms: C_31  and  C_32
REMARK                            x       y       z     vdW  Elec       q    Type
REMARK                         _______ _______ _______ _____ _____    ______ ____
ROOT
ATOM      1  S   UNL     1      13.697   7.871   3.548  0.00  0.00    -0.057 S 
ATOM      2  O   UNL     1      10.922   3.573  -1.092  0.00  0.00    -0.461 OA
ATOM      3  O   UNL     1       9.976   2.401  -2.830  0.00  0.00    -0.251 OA
ATOM      4  O   UNL     1       9.826   7.032   6.065  0.00  0.00    -0.275 OA
ATOM      6  N   UNL     1      11.536   6.452   3.634  0.00  0.00    -0.229 NA
ATOM      7  N   UNL     1      11.890   8.004   5.444  0.00  0.00    -0.264 N 
ATOM      9  C   UNL     1      12.518   5.018   0.220  0.00  0.00    +0.045 C 
ATOM     10  C   UNL     1      14.081   5.169   0.471  0.00  0.00    -0.021 C 
ATOM     11  C   UNL     1      12.267   3.777  -0.656  0.00  0.00    +0.184 C 
ATOM     12  C   UNL     1      13.004   3.907  -1.974  0.00  0.00    +0.044 C 
ATOM     13  C   UNL     1      14.863   5.129  -0.878  0.00  0.00    +0.008 C 
ATOM     14  C   UNL     1      14.506   3.933  -1.771  0.00  0.00    +0.008 C 
ATOM     15  C   UNL     1      11.685   5.040   1.551  0.00  0.00    +0.043 C 
ATOM     16  C   UNL     1      14.357   6.544   1.154  0.00  0.00    +0.051 C 
ATOM     17  C   UNL     1      12.396   2.754  -2.749  0.00  0.00    +0.101 C 
ATOM     18  C   UNL     1      14.640   4.041   1.382  0.00  0.00    +0.012 C 
ATOM     19  C   UNL     1      12.216   6.105   2.481  0.00  0.00    +0.057 A 
ATOM     20  C   UNL     1      13.416   6.759   2.291  0.00  0.00    +0.015 A 
ATOM     21  C   UNL     1      10.959   2.865  -2.273  0.00  0.00    +0.311 C 
ATOM     22  C   UNL     1      10.185   5.251   1.300  0.00  0.00    +0.014 C 
ATOM     23  C   UNL     1      12.526   2.904  -4.253  0.00  0.00    +0.019 C 
ATOM     24  C   UNL     1      12.218   7.380   4.270  0.00  0.00    +0.165 A 
ATOM     26  C   UNL     1      10.751   7.813   6.266  0.00  0.00    +0.222 C 
ATOM     33  H   UNL     1      12.575   8.689   5.752  0.00  0.00    +0.157 HD
ENDROOT
BRANCH  26  25
ATOM      5  O   UNL     1      11.100  13.531   8.514  0.00  0.00    -0.276 OA
ATOM      8  N   UNL     1      10.420  11.314   8.650  0.00  0.00    -0.302 N 
ATOM     25  C   UNL     1      10.764   8.692   7.478  0.00  0.00    +0.078 C 
ATOM     27  C   UNL     1      11.809   9.796   7.295  0.00  0.00    +0.032 C 
ATOM     28  C   UNL     1       9.373   9.291   7.707  0.00  0.00    +0.032 C 
ATOM     29  C   UNL     1      11.772  10.787   8.456  0.00  0.00    +0.108 C 
ATOM     30  C   UNL     1       9.386  10.292   8.860  0.00  0.00    +0.108 C 
ATOM     31  C   UNL     1      10.207  12.692   8.661  0.00  0.00    +0.212 C 
ATOM     32  C   UNL     1       8.787  13.154   8.864  0.00  0.00    +0.109 C 
ENDBRANCH  26  25
TORSDOF 1
ENDMDL
MODEL 9
REMARK VINA RESULT:      -7.1      2.833     10.396
REMARK  Name = 11866271
REMARK  5 active torsions:
REMARK  status: ('A' for Active; 'I' for Inactive)
REMARK    1  A    between atoms: C_10  and  C_18
REMARK    2  A    between atoms: C_15  and  C_22
REMARK    3  A    between atoms: C_17  and  C_23
REMARK    4  A    between atoms: C_25  and  C_26
REMARK    5  A    between atoms: C_31  and  C_32
REMARK                            x       y       z     vdW  Elec       q    Type
REMARK                         _______ _______ _______ _____ _____    ______ ____
ROOT
ATOM      1  S   UNL     1      18.002   6.196  19.818  0.00  0.00    -0.057 S 
ATOM      2  O   UNL     1      22.855   5.733  24.711  0.00  0.00    -0.461 OA
ATOM      3  O   UNL     1      24.308   5.318  26.444  0.00  0.00    -0.251 OA
ATOM      4  O   UNL     1      16.764  10.179  21.968  0.00  0.00    -0.275 OA
ATOM      6  N   UNL     1      18.658   7.830  21.713  0.00  0.00    -0.229 NA
ATOM      7  N   UNL     1      16.684   8.375  20.442  0.00  0.00    -0.264 N 
ATOM      9  C   UNL     1      21.493   5.415  22.613  0.00  0.00    +0.045 C 
ATOM     10  C   UNL     1      21.674   4.882  21.127  0.00  0.00    -0.021 C 
ATOM     11  C   UNL     1      22.861   5.411  23.320  0.00  0.00    +0.184 C 
ATOM     12  C   UNL     1      23.443   4.012  23.327  0.00  0.00    +0.044 C 
ATOM     13  C   UNL     1      22.430   3.519  21.118  0.00  0.00    +0.008 C 
ATOM     14  C   UNL     1      23.738   3.525  21.922  0.00  0.00    +0.008 C 
ATOM     15  C   UNL     1      20.744   6.795  22.677  0.00  0.00    +0.043 C 
ATOM     16  C   UNL     1      20.266   4.663  20.489  0.00  0.00    +0.051 C 
ATOM     17  C   UNL     1      24.602   4.198  24.288  0.00  0.00    +0.101 C 
ATOM     18  C   UNL     1      22.471   5.878  20.240  0.00  0.00    +0.012 C 
ATOM     19  C   UNL     1      19.585   6.804  21.709  0.00  0.00    +0.057 A 
ATOM     20  C   UNL     1      19.395   5.847  20.733  0.00  0.00    +0.015 A 
ATOM     21  C   UNL     1      23.943   5.123  25.295  0.00  0.00    +0.311 C 
ATOM     22  C   UNL     1      20.259   7.134  24.093  0.00  0.00    +0.014 C 
ATOM     23  C   UNL     1      25.078   2.900  24.913  0.00  0.00    +0.019 C 
ATOM     24  C   UNL     1      17.772   7.609  20.766  0.00  0.00    +0.165 A 
ATOM     26  C   UNL     1      16.239   9.585  21.032  0.00  0.00    +0.222 C 
ATOM     33  H   UNL     1      16.139   8.010  19.665  0.00  0.00    +0.157 HD
ENDROOT
BRANCH  26  25
ATOM      5  O   UNL     1      12.769   9.882  15.958  0.00  0.00    -0.276 OA
ATOM      8  N   UNL     1      13.036   9.954  18.265  0.00  0.00    -0.302 N 
ATOM     25  C   UNL     1      15.000  10.119  20.382  0.00  0.00    +0.078 C 
ATOM     27  C   UNL     1      15.325  10.556  18.950  0.00  0.00    +0.032 C 
ATOM     28  C   UNL     1      13.902   9.052  20.389  0.00  0.00    +0.032 C 
ATOM     29  C   UNL     1      14.064  10.995  18.210  0.00  0.00    +0.108 C 
ATOM     30  C   UNL     1      12.670   9.523  19.620  0.00  0.00    +0.108 C 
ATOM     31  C   UNL     1      12.465   9.479  17.084  0.00  0.00    +0.212 C 
ATOM     32  C   UNL     1      11.416   8.406  17.225  0.00  0.00    +0.109 C 
ENDBRANCH  26  25
TORSDOF 1
ENDMDL
MODEL 10
REMARK VINA RESULT:      -6.9     30.431     32.961
REMARK  Name = 11866271
REMARK  5 active torsions:
REMARK  status: ('A' for Active; 'I' for Inactive)
REMARK    1  A    between atoms: C_10  and  C_18
REMARK    2  A    between atoms: C_15  and  C_22
REMARK    3  A    between atoms: C_17  and  C_23
REMARK    4  A    between atoms: C_25  and  C_26
REMARK    5  A    between atoms: C_31  and  C_32
REMARK                            x       y       z     vdW  Elec       q    Type
REMARK                         _______ _______ _______ _____ _____    ______ ____
ROOT
ATOM      1  S   UNL     1      -9.612  -8.586  16.031  0.00  0.00    -0.057 S 
ATOM      2  O   UNL     1     -13.310 -11.219  21.237  0.00  0.00    -0.461 OA
ATOM      3  O   UNL     1     -14.533 -11.796  23.097  0.00  0.00    -0.251 OA
ATOM      4  O   UNL     1      -6.182 -11.403  17.557  0.00  0.00    -0.275 OA
ATOM      6  N   UNL     1      -9.052 -10.453  17.732  0.00  0.00    -0.229 NA
ATOM      7  N   UNL     1      -7.268  -9.736  16.279  0.00  0.00    -0.264 N 
ATOM      9  C   UNL     1     -12.601 -10.050  19.118  0.00  0.00    +0.045 C 
ATOM     10  C   UNL     1     -13.222  -9.590  17.729  0.00  0.00    -0.021 C 
ATOM     11  C   UNL     1     -13.660 -10.847  19.903  0.00  0.00    +0.184 C 
ATOM     12  C   UNL     1     -14.894  -9.996  20.131  0.00  0.00    +0.044 C 
ATOM     13  C   UNL     1     -14.584  -8.864  17.946  0.00  0.00    +0.008 C 
ATOM     14  C   UNL     1     -15.574  -9.643  18.823  0.00  0.00    +0.008 C 
ATOM     15  C   UNL     1     -11.231 -10.800  18.953  0.00  0.00    +0.043 C 
ATOM     16  C   UNL     1     -12.241  -8.592  17.038  0.00  0.00    +0.051 C 
ATOM     17  C   UNL     1     -15.644 -10.856  21.130  0.00  0.00    +0.101 C 
ATOM     18  C   UNL     1     -13.466 -10.789  16.771  0.00  0.00    +0.012 C 
ATOM     19  C   UNL     1     -10.376 -10.102  17.922  0.00  0.00    +0.057 A 
ATOM     20  C   UNL     1     -10.849  -9.124  17.069  0.00  0.00    +0.015 A 
ATOM     21  C   UNL     1     -14.474 -11.347  21.963  0.00  0.00    +0.311 C 
ATOM     22  C   UNL     1     -10.468 -10.927  20.278  0.00  0.00    +0.014 C 
ATOM     23  C   UNL     1     -16.659 -10.079  21.949  0.00  0.00    +0.019 C 
ATOM     24  C   UNL     1      -8.547  -9.713  16.769  0.00  0.00    +0.165 A 
ATOM     26  C   UNL     1      -6.176 -10.549  16.676  0.00  0.00    +0.222 C 
ATOM     33  H   UNL     1      -7.104  -9.075  15.525  0.00  0.00    +0.157 HD
ENDROOT
BRANCH  26  25
ATOM      5  O   UNL     1      -1.291 -12.849  13.724  0.00  0.00    -0.276 OA
ATOM      8  N   UNL     1      -2.890 -11.198  14.063  0.00  0.00    -0.302 N 
ATOM     25  C   UNL     1      -4.936 -10.270  15.885  0.00  0.00    +0.078 C 
ATOM     27  C   UNL     1      -3.817 -11.210  16.345  0.00  0.00    +0.032 C 
ATOM     28  C   UNL     1      -5.215 -10.448  14.390  0.00  0.00    +0.032 C 
ATOM     29  C   UNL     1      -2.569 -11.043  15.483  0.00  0.00    +0.108 C 
ATOM     30  C   UNL     1      -3.938 -10.295  13.568  0.00  0.00    +0.108 C 
ATOM     31  C   UNL     1      -2.191 -12.124  13.290  0.00  0.00    +0.212 C 
ATOM     32  C   UNL     1      -2.582 -12.225  11.838  0.00  0.00    +0.109 C 
ENDBRANCH  26  25
TORSDOF 1
ENDMDL
