MODEL 1
REMARK VINA RESULT:      -7.4      0.000      0.000
REMARK  Name = 26744542
REMARK  7 active torsions:
REMARK  status: ('A' for Active; 'I' for Inactive)
REMARK    1  A    between atoms: O_2  and  C_13
REMARK    2  A    between atoms: O_3  and  C_24
REMARK    3  A    between atoms: N_5  and  C_17
REMARK    4  A    between atoms: C_8  and  C_15
REMARK    5  A    between atoms: C_9  and  C_16
REMARK    6  A    between atoms: C_17  and  C_18
REMARK    7  A    between atoms: C_23  and  C_24
REMARK                            x       y       z     vdW  Elec       q    Type
REMARK                         _______ _______ _______ _____ _____    ______ ____
ROOT
ATOM      5  N   UNL     1      12.629   8.483  18.607  0.00  0.00    -0.285 NA
ATOM      9  C   UNL     1      13.709   7.571  18.178  0.00  0.00    +0.149 C 
ATOM     12  C   UNL     1      14.060   8.022  16.748  0.00  0.00    +0.061 C 
ATOM     13  C   UNL     1      13.094   9.160  16.446  0.00  0.00    +0.130 C 
ATOM     14  C   UNL     1      11.936   8.904  17.392  0.00  0.00    +0.116 C 
ENDROOT
BRANCH   9  16
ATOM      1  O   UNL     1      15.285   8.822  19.566  0.00  0.00    -0.336 OA
ATOM      6  N   UNL     1      15.633   6.609  19.554  0.00  0.00    -0.194 NA
ATOM      7  N   UNL     1      16.389   8.596  20.399  0.00  0.00    -0.061 NA
ATOM     15  C   UNL     1      16.532   7.269  20.340  0.00  0.00    +0.175 A 
ATOM     16  C   UNL     1      14.902   7.601  19.111  0.00  0.00    +0.245 A 
BRANCH  15   8
ATOM      8  C   UNL     1      17.637   6.538  21.108  0.00  0.00    +0.060 C 
ATOM     10  C   UNL     1      18.899   7.280  21.438  0.00  0.00    +0.012 C 
ATOM     11  C   UNL     1      18.913   6.203  20.393  0.00  0.00    +0.012 C 
ENDBRANCH  15   8
ENDBRANCH   9  16
BRANCH  13   2
ATOM      2  O   UNL     1      12.684   9.124  15.092  0.00  0.00    -0.390 OA
ATOM     25  H   UNL     1      12.387   8.218  14.902  0.00  0.00    +0.210 HD
ENDBRANCH  13   2
BRANCH   5  17
ATOM     17  C   UNL     1      11.721   7.881  19.576  0.00  0.00    +0.120 C 
BRANCH  17  18
ATOM     18  C   UNL     1      11.510   8.768  20.774  0.00  0.00    -0.033 A 
ATOM     19  C   UNL     1      10.799   8.293  21.875  0.00  0.00    +0.006 A 
ATOM     20  C   UNL     1      12.027  10.063  20.783  0.00  0.00    +0.006 A 
ATOM     21  C   UNL     1      10.604   9.115  22.986  0.00  0.00    +0.015 A 
ATOM     22  C   UNL     1      11.832  10.884  21.894  0.00  0.00    +0.015 A 
ATOM     23  C   UNL     1      11.121  10.410  22.995  0.00  0.00    +0.059 A 
BRANCH  23  24
ATOM      4  O   UNL     1      11.588  11.236  25.192  0.00  0.00    -0.245 OA
ATOM     24  C   UNL     1      10.919  11.266  24.153  0.00  0.00    +0.337 C 
BRANCH  24   3
ATOM      3  O   UNL     1       9.886  12.137  23.984  0.00  0.00    -0.477 OA
ATOM     26  H   UNL     1       9.179  11.759  23.418  0.00  0.00    +0.295 HD
ENDBRANCH  24   3
ENDBRANCH  23  24
ENDBRANCH  17  18
ENDBRANCH   5  17
TORSDOF 7
ENDMDL
MODEL 2
REMARK VINA RESULT:      -7.1      2.950      7.455
REMARK  Name = 26744542
REMARK  7 active torsions:
REMARK  status: ('A' for Active; 'I' for Inactive)
REMARK    1  A    between atoms: O_2  and  C_13
REMARK    2  A    between atoms: O_3  and  C_24
REMARK    3  A    between atoms: N_5  and  C_17
REMARK    4  A    between atoms: C_8  and  C_15
REMARK    5  A    between atoms: C_9  and  C_16
REMARK    6  A    between atoms: C_17  and  C_18
REMARK    7  A    between atoms: C_23  and  C_24
REMARK                            x       y       z     vdW  Elec       q    Type
REMARK                         _______ _______ _______ _____ _____    ______ ____
ROOT
ATOM      5  N   UNL     1      12.823   8.069  21.044  0.00  0.00    -0.285 NA
ATOM      9  C   UNL     1      11.472   8.656  20.932  0.00  0.00    +0.149 C 
ATOM     12  C   UNL     1      10.515   7.522  21.344  0.00  0.00    +0.061 C 
ATOM     13  C   UNL     1      11.417   6.327  21.624  0.00  0.00    +0.130 C 
ATOM     14  C   UNL     1      12.670   6.632  20.824  0.00  0.00    +0.116 C 
ENDROOT
BRANCH   9  16
ATOM      1  O   UNL     1      10.924   9.709  23.068  0.00  0.00    -0.336 OA
ATOM      6  N   UNL     1      11.477  11.156  21.451  0.00  0.00    -0.194 NA
ATOM      7  N   UNL     1      10.840  10.985  23.641  0.00  0.00    -0.061 NA
ATOM     15  C   UNL     1      11.179  11.784  22.625  0.00  0.00    +0.175 A 
ATOM     16  C   UNL     1      11.305   9.900  21.778  0.00  0.00    +0.245 A 
BRANCH  15   8
ATOM      8  C   UNL     1      11.232  13.307  22.773  0.00  0.00    +0.060 C 
ATOM     10  C   UNL     1      10.347  13.963  23.792  0.00  0.00    +0.012 C 
ATOM     11  C   UNL     1      10.048  14.116  22.330  0.00  0.00    +0.012 C 
ENDBRANCH  15   8
ENDBRANCH   9  16
BRANCH  13   2
ATOM      2  O   UNL     1      10.803   5.125  21.200  0.00  0.00    -0.390 OA
ATOM     25  H   UNL     1      11.509   4.525  20.905  0.00  0.00    +0.210 HD
ENDBRANCH  13   2
BRANCH   5  17
ATOM     17  C   UNL     1      13.786   8.664  20.126  0.00  0.00    +0.120 C 
BRANCH  17  18
ATOM     18  C   UNL     1      15.095   7.921  20.125  0.00  0.00    -0.033 A 
ATOM     19  C   UNL     1      15.391   7.032  19.092  0.00  0.00    +0.006 A 
ATOM     20  C   UNL     1      16.012   8.121  21.157  0.00  0.00    +0.006 A 
ATOM     21  C   UNL     1      16.605   6.343  19.091  0.00  0.00    +0.015 A 
ATOM     22  C   UNL     1      17.225   7.434  21.155  0.00  0.00    +0.015 A 
ATOM     23  C   UNL     1      17.521   6.545  20.123  0.00  0.00    +0.059 A 
BRANCH  23  24
ATOM      4  O   UNL     1      19.763   6.097  20.831  0.00  0.00    -0.245 OA
ATOM     24  C   UNL     1      18.787   5.828  20.122  0.00  0.00    +0.337 C 
BRANCH  24   3
ATOM      3  O   UNL     1      18.801   4.795  19.234  0.00  0.00    -0.477 OA
ATOM     26  H   UNL     1      19.422   4.960  18.493  0.00  0.00    +0.295 HD
ENDBRANCH  24   3
ENDBRANCH  23  24
ENDBRANCH  17  18
ENDBRANCH   5  17
TORSDOF 7
ENDMDL
MODEL 3
REMARK VINA RESULT:      -6.6     12.788     16.179
REMARK  Name = 26744542
REMARK  7 active torsions:
REMARK  status: ('A' for Active; 'I' for Inactive)
REMARK    1  A    between atoms: O_2  and  C_13
REMARK    2  A    between atoms: O_3  and  C_24
REMARK    3  A    between atoms: N_5  and  C_17
REMARK    4  A    between atoms: C_8  and  C_15
REMARK    5  A    between atoms: C_9  and  C_16
REMARK    6  A    between atoms: C_17  and  C_18
REMARK    7  A    between atoms: C_23  and  C_24
REMARK                            x       y       z     vdW  Elec       q    Type
REMARK                         _______ _______ _______ _____ _____    ______ ____
ROOT
ATOM      5  N   UNL     1      10.766   7.491   4.555  0.00  0.00    -0.285 NA
ATOM      9  C   UNL     1      10.997   7.360   3.101  0.00  0.00    +0.149 C 
ATOM     12  C   UNL     1      12.061   8.424   2.774  0.00  0.00    +0.061 C 
ATOM     13  C   UNL     1      12.330   9.131   4.096  0.00  0.00    +0.130 C 
ATOM     14  C   UNL     1      11.067   8.879   4.898  0.00  0.00    +0.116 C 
ENDROOT
BRANCH   9  16
ATOM      1  O   UNL     1      10.513   4.973   2.890  0.00  0.00    -0.336 OA
ATOM      6  N   UNL     1      12.561   5.556   2.195  0.00  0.00    -0.194 NA
ATOM      7  N   UNL     1      11.128   3.792   2.453  0.00  0.00    -0.061 NA
ATOM     15  C   UNL     1      12.332   4.218   2.060  0.00  0.00    +0.175 A 
ATOM     16  C   UNL     1      11.425   5.963   2.703  0.00  0.00    +0.245 A 
BRANCH  15   8
ATOM      8  C   UNL     1      13.385   3.262   1.492  0.00  0.00    +0.060 C 
ATOM     10  C   UNL     1      14.834   3.632   1.610  0.00  0.00    +0.012 C 
ATOM     11  C   UNL     1      14.154   3.678   0.273  0.00  0.00    +0.012 C 
ENDBRANCH  15   8
ENDBRANCH   9  16
BRANCH  13   2
ATOM      2  O   UNL     1      12.553  10.513   3.889  0.00  0.00    -0.390 OA
ATOM     25  H   UNL     1      12.031  10.780   3.114  0.00  0.00    +0.210 HD
ENDBRANCH  13   2
BRANCH   5  17
ATOM     17  C   UNL     1       9.421   7.105   4.959  0.00  0.00    +0.120 C 
BRANCH  17  18
ATOM     18  C   UNL     1       9.401   6.496   6.336  0.00  0.00    -0.033 A 
ATOM     19  C   UNL     1       8.956   7.247   7.423  0.00  0.00    +0.006 A 
ATOM     20  C   UNL     1       9.827   5.182   6.524  0.00  0.00    +0.006 A 
ATOM     21  C   UNL     1       8.936   6.683   8.699  0.00  0.00    +0.015 A 
ATOM     22  C   UNL     1       9.808   4.618   7.799  0.00  0.00    +0.015 A 
ATOM     23  C   UNL     1       9.362   5.369   8.887  0.00  0.00    +0.059 A 
BRANCH  23  24
ATOM      4  O   UNL     1      10.331   4.374  10.836  0.00  0.00    -0.245 OA
ATOM     24  C   UNL     1       9.342   4.780  10.217  0.00  0.00    +0.337 C 
BRANCH  24   3
ATOM      3  O   UNL     1       8.085   4.713  10.738  0.00  0.00    -0.477 OA
ATOM     26  H   UNL     1       7.397   4.796  10.043  0.00  0.00    +0.295 HD
ENDBRANCH  24   3
ENDBRANCH  23  24
ENDBRANCH  17  18
ENDBRANCH   5  17
TORSDOF 7
ENDMDL
MODEL 4
REMARK VINA RESULT:      -6.2     26.179     27.491
REMARK  Name = 26744542
REMARK  7 active torsions:
REMARK  status: ('A' for Active; 'I' for Inactive)
REMARK    1  A    between atoms: O_2  and  C_13
REMARK    2  A    between atoms: O_3  and  C_24
REMARK    3  A    between atoms: N_5  and  C_17
REMARK    4  A    between atoms: C_8  and  C_15
REMARK    5  A    between atoms: C_9  and  C_16
REMARK    6  A    between atoms: C_17  and  C_18
REMARK    7  A    between atoms: C_23  and  C_24
REMARK                            x       y       z     vdW  Elec       q    Type
REMARK                         _______ _______ _______ _____ _____    ______ ____
ROOT
ATOM      5  N   UNL     1      -3.301 -11.749  14.195  0.00  0.00    -0.285 NA
ATOM      9  C   UNL     1      -2.357 -11.888  13.066  0.00  0.00    +0.149 C 
ATOM     12  C   UNL     1      -2.580 -13.318  12.541  0.00  0.00    +0.061 C 
ATOM     13  C   UNL     1      -3.632 -13.918  13.465  0.00  0.00    +0.130 C 
ATOM     14  C   UNL     1      -3.504 -13.093  14.732  0.00  0.00    +0.116 C 
ENDROOT
BRANCH   9  16
ATOM      1  O   UNL     1      -1.494 -10.053  11.702  0.00  0.00    -0.336 OA
ATOM      6  N   UNL     1      -3.641 -10.554  11.308  0.00  0.00    -0.194 NA
ATOM      7  N   UNL     1      -1.924  -9.169  10.703  0.00  0.00    -0.061 NA
ATOM     15  C   UNL     1      -3.199  -9.527  10.527  0.00  0.00    +0.175 A 
ATOM     16  C   UNL     1      -2.565 -10.833  12.000  0.00  0.00    +0.245 A 
BRANCH  15   8
ATOM      8  C   UNL     1      -4.104  -8.826   9.509  0.00  0.00    +0.060 C 
ATOM     10  C   UNL     1      -5.574  -9.125   9.525  0.00  0.00    +0.012 C 
ATOM     11  C   UNL     1      -4.717  -9.641   8.408  0.00  0.00    +0.012 C 
ENDBRANCH  15   8
ENDBRANCH   9  16
BRANCH  13   2
ATOM      2  O   UNL     1      -3.368 -15.288  13.702  0.00  0.00    -0.390 OA
ATOM     25  H   UNL     1      -4.121 -15.795  13.353  0.00  0.00    +0.210 HD
ENDBRANCH  13   2
BRANCH   5  17
ATOM     17  C   UNL     1      -2.842 -10.815  15.215  0.00  0.00    +0.120 C 
BRANCH  17  18
ATOM     18  C   UNL     1      -3.730 -10.831  16.430  0.00  0.00    -0.033 A 
ATOM     19  C   UNL     1      -4.967 -10.187  16.397  0.00  0.00    +0.006 A 
ATOM     20  C   UNL     1      -3.317 -11.488  17.589  0.00  0.00    +0.006 A 
ATOM     21  C   UNL     1      -5.791 -10.202  17.523  0.00  0.00    +0.015 A 
ATOM     22  C   UNL     1      -4.141 -11.503  18.714  0.00  0.00    +0.015 A 
ATOM     23  C   UNL     1      -5.378 -10.860  18.681  0.00  0.00    +0.059 A 
BRANCH  23  24
ATOM      4  O   UNL     1      -5.962 -11.408  20.936  0.00  0.00    -0.245 OA
ATOM     24  C   UNL     1      -6.236 -10.876  19.855  0.00  0.00    +0.337 C 
BRANCH  24   3
ATOM      3  O   UNL     1      -7.416 -10.229  19.647  0.00  0.00    -0.477 OA
ATOM     26  H   UNL     1      -8.006 -10.285  20.429  0.00  0.00    +0.295 HD
ENDBRANCH  24   3
ENDBRANCH  23  24
ENDBRANCH  17  18
ENDBRANCH   5  17
TORSDOF 7
ENDMDL
MODEL 5
REMARK VINA RESULT:      -6.0     30.034     31.713
REMARK  Name = 26744542
REMARK  7 active torsions:
REMARK  status: ('A' for Active; 'I' for Inactive)
REMARK    1  A    between atoms: O_2  and  C_13
REMARK    2  A    between atoms: O_3  and  C_24
REMARK    3  A    between atoms: N_5  and  C_17
REMARK    4  A    between atoms: C_8  and  C_15
REMARK    5  A    between atoms: C_9  and  C_16
REMARK    6  A    between atoms: C_17  and  C_18
REMARK    7  A    between atoms: C_23  and  C_24
REMARK                            x       y       z     vdW  Elec       q    Type
REMARK                         _______ _______ _______ _____ _____    ______ ____
ROOT
ATOM      5  N   UNL     1     -14.162   5.551  32.396  0.00  0.00    -0.285 NA
ATOM      9  C   UNL     1     -15.610   5.831  32.305  0.00  0.00    +0.149 C 
ATOM     12  C   UNL     1     -15.704   7.357  32.112  0.00  0.00    +0.061 C 
ATOM     13  C   UNL     1     -14.264   7.849  32.155  0.00  0.00    +0.130 C 
ATOM     14  C   UNL     1     -13.539   6.762  32.927  0.00  0.00    +0.116 C 
ENDROOT
BRANCH   9  16
ATOM      1  O   UNL     1     -17.264   4.193  31.561  0.00  0.00    -0.336 OA
ATOM      6  N   UNL     1     -16.062   5.097  29.902  0.00  0.00    -0.194 NA
ATOM      7  N   UNL     1     -17.731   3.606  30.378  0.00  0.00    -0.061 NA
ATOM     15  C   UNL     1     -16.973   4.190  29.445  0.00  0.00    +0.175 A 
ATOM     16  C   UNL     1     -16.284   5.058  31.192  0.00  0.00    +0.245 A 
BRANCH  15   8
ATOM      8  C   UNL     1     -17.120   3.859  27.956  0.00  0.00    +0.060 C 
ATOM     10  C   UNL     1     -17.404   2.441  27.557  0.00  0.00    +0.012 C 
ATOM     11  C   UNL     1     -16.054   3.040  27.290  0.00  0.00    +0.012 C 
ENDBRANCH  15   8
ENDBRANCH   9  16
BRANCH  13   2
ATOM      2  O   UNL     1     -14.181   9.101  32.808  0.00  0.00    -0.390 OA
ATOM     25  H   UNL     1     -14.338   8.947  33.755  0.00  0.00    +0.210 HD
ENDBRANCH  13   2
BRANCH   5  17
ATOM     17  C   UNL     1     -13.854   4.378  33.203  0.00  0.00    +0.120 C 
BRANCH  17  18
ATOM     18  C   UNL     1     -14.033   3.100  32.427  0.00  0.00    -0.033 A 
ATOM     19  C   UNL     1     -14.713   2.026  33.001  0.00  0.00    +0.006 A 
ATOM     20  C   UNL     1     -13.521   2.991  31.135  0.00  0.00    +0.006 A 
ATOM     21  C   UNL     1     -14.880   0.842  32.281  0.00  0.00    +0.015 A 
ATOM     22  C   UNL     1     -13.688   1.808  30.416  0.00  0.00    +0.015 A 
ATOM     23  C   UNL     1     -14.367   0.733  30.989  0.00  0.00    +0.059 A 
BRANCH  23  24
ATOM      4  O   UNL     1     -13.921  -0.810  29.216  0.00  0.00    -0.245 OA
ATOM     24  C   UNL     1     -14.542  -0.500  30.238  0.00  0.00    +0.337 C 
BRANCH  24   3
ATOM      3  O   UNL     1     -15.488  -1.313  30.785  0.00  0.00    -0.477 OA
ATOM     26  H   UNL     1     -15.716  -2.059  30.189  0.00  0.00    +0.295 HD
ENDBRANCH  24   3
ENDBRANCH  23  24
ENDBRANCH  17  18
ENDBRANCH   5  17
TORSDOF 7
ENDMDL
MODEL 6
REMARK VINA RESULT:      -6.0     14.192     17.713
REMARK  Name = 26744542
REMARK  7 active torsions:
REMARK  status: ('A' for Active; 'I' for Inactive)
REMARK    1  A    between atoms: O_2  and  C_13
REMARK    2  A    between atoms: O_3  and  C_24
REMARK    3  A    between atoms: N_5  and  C_17
REMARK    4  A    between atoms: C_8  and  C_15
REMARK    5  A    between atoms: C_9  and  C_16
REMARK    6  A    between atoms: C_17  and  C_18
REMARK    7  A    between atoms: C_23  and  C_24
REMARK                            x       y       z     vdW  Elec       q    Type
REMARK                         _______ _______ _______ _____ _____    ______ ____
ROOT
ATOM      5  N   UNL     1       9.882   7.953   2.761  0.00  0.00    -0.285 NA
ATOM      9  C   UNL     1       9.959   7.594   1.330  0.00  0.00    +0.149 C 
ATOM     12  C   UNL     1      10.842   8.687   0.698  0.00  0.00    +0.061 C 
ATOM     13  C   UNL     1      11.173   9.636   1.842  0.00  0.00    +0.130 C 
ATOM     14  C   UNL     1      10.050   9.402   2.835  0.00  0.00    +0.116 C 
ENDROOT
BRANCH   9  16
ATOM      1  O   UNL     1       9.661   5.305   0.527  0.00  0.00    -0.336 OA
ATOM      6  N   UNL     1      11.686   5.714   1.393  0.00  0.00    -0.194 NA
ATOM      7  N   UNL     1      10.379   4.106   0.425  0.00  0.00    -0.061 NA
ATOM     15  C   UNL     1      11.561   4.428   0.957  0.00  0.00    +0.175 A 
ATOM     16  C   UNL     1      10.503   6.199   1.107  0.00  0.00    +0.245 A 
BRANCH  15   8
ATOM      8  C   UNL     1      12.704   3.414   1.067  0.00  0.00    +0.060 C 
ATOM     10  C   UNL     1      14.041   3.885   1.558  0.00  0.00    +0.012 C 
ATOM     11  C   UNL     1      13.858   3.521   0.114  0.00  0.00    +0.012 C 
ENDBRANCH  15   8
ENDBRANCH   9  16
BRANCH  13   2
ATOM      2  O   UNL     1      11.202  10.976   1.389  0.00  0.00    -0.390 OA
ATOM     25  H   UNL     1      11.771  11.005   0.601  0.00  0.00    +0.210 HD
ENDBRANCH  13   2
BRANCH   5  17
ATOM     17  C   UNL     1       8.647   7.511   3.397  0.00  0.00    +0.120 C 
BRANCH  17  18
ATOM     18  C   UNL     1       8.907   6.826   4.712  0.00  0.00    -0.033 A 
ATOM     19  C   UNL     1       9.618   5.627   4.745  0.00  0.00    +0.006 A 
ATOM     20  C   UNL     1       8.438   7.391   5.899  0.00  0.00    +0.006 A 
ATOM     21  C   UNL     1       9.860   4.992   5.964  0.00  0.00    +0.015 A 
ATOM     22  C   UNL     1       8.680   6.757   7.117  0.00  0.00    +0.015 A 
ATOM     23  C   UNL     1       9.391   5.557   7.149  0.00  0.00    +0.059 A 
BRANCH  23  24
ATOM      4  O   UNL     1       9.227   5.276   9.520  0.00  0.00    -0.245 OA
ATOM     24  C   UNL     1       9.644   4.897   8.420  0.00  0.00    +0.337 C 
BRANCH  24   3
ATOM      3  O   UNL     1      10.412   3.780   8.284  0.00  0.00    -0.477 OA
ATOM     26  H   UNL     1      10.567   3.337   9.145  0.00  0.00    +0.295 HD
ENDBRANCH  24   3
ENDBRANCH  23  24
ENDBRANCH  17  18
ENDBRANCH   5  17
TORSDOF 7
ENDMDL
MODEL 7
REMARK VINA RESULT:      -5.8     13.209     16.722
REMARK  Name = 26744542
REMARK  7 active torsions:
REMARK  status: ('A' for Active; 'I' for Inactive)
REMARK    1  A    between atoms: O_2  and  C_13
REMARK    2  A    between atoms: O_3  and  C_24
REMARK    3  A    between atoms: N_5  and  C_17
REMARK    4  A    between atoms: C_8  and  C_15
REMARK    5  A    between atoms: C_9  and  C_16
REMARK    6  A    between atoms: C_17  and  C_18
REMARK    7  A    between atoms: C_23  and  C_24
REMARK                            x       y       z     vdW  Elec       q    Type
REMARK                         _______ _______ _______ _____ _____    ______ ____
ROOT
ATOM      5  N   UNL     1      11.675   6.424   4.679  0.00  0.00    -0.285 NA
ATOM      9  C   UNL     1      12.013   7.001   3.362  0.00  0.00    +0.149 C 
ATOM     12  C   UNL     1      13.369   7.699   3.575  0.00  0.00    +0.061 C 
ATOM     13  C   UNL     1      13.688   7.500   5.051  0.00  0.00    +0.130 C 
ATOM     14  C   UNL     1      12.327   7.266   5.680  0.00  0.00    +0.116 C 
ENDROOT
BRANCH   9  16
ATOM      1  O   UNL     1      13.152   5.157   2.232  0.00  0.00    -0.336 OA
ATOM      6  N   UNL     1      11.181   5.711   1.322  0.00  0.00    -0.194 NA
ATOM      7  N   UNL     1      12.965   4.289   1.148  0.00  0.00    -0.061 NA
ATOM     15  C   UNL     1      11.782   4.679   0.663  0.00  0.00    +0.175 A 
ATOM     16  C   UNL     1      12.056   5.960   2.264  0.00  0.00    +0.245 A 
BRANCH  15   8
ATOM      8  C   UNL     1      11.145   4.005  -0.556  0.00  0.00    +0.060 C 
ATOM     10  C   UNL     1      12.017   3.201  -1.475  0.00  0.00    +0.012 C 
ATOM     11  C   UNL     1      11.476   4.527  -1.924  0.00  0.00    +0.012 C 
ENDBRANCH  15   8
ENDBRANCH   9  16
BRANCH  13   2
ATOM      2  O   UNL     1      14.324   8.645   5.586  0.00  0.00    -0.390 OA
ATOM     25  H   UNL     1      15.075   8.338   6.122  0.00  0.00    +0.210 HD
ENDBRANCH  13   2
BRANCH   5  17
ATOM     17  C   UNL     1      10.240   6.315   4.907  0.00  0.00    +0.120 C 
BRANCH  17  18
ATOM     18  C   UNL     1       9.925   5.888   6.316  0.00  0.00    -0.033 A 
ATOM     19  C   UNL     1      10.078   4.553   6.690  0.00  0.00    +0.006 A 
ATOM     20  C   UNL     1       9.483   6.827   7.247  0.00  0.00    +0.006 A 
ATOM     21  C   UNL     1       9.787   4.157   7.995  0.00  0.00    +0.015 A 
ATOM     22  C   UNL     1       9.193   6.431   8.553  0.00  0.00    +0.015 A 
ATOM     23  C   UNL     1       9.345   5.096   8.927  0.00  0.00    +0.059 A 
BRANCH  23  24
ATOM      4  O   UNL     1       7.912   4.608  10.780  0.00  0.00    -0.245 OA
ATOM     24  C   UNL     1       9.043   4.684  10.289  0.00  0.00    +0.337 C 
BRANCH  24   3
ATOM      3  O   UNL     1      10.163   4.380  11.001  0.00  0.00    -0.477 OA
ATOM     26  H   UNL     1      10.875   4.025  10.427  0.00  0.00    +0.295 HD
ENDBRANCH  24   3
ENDBRANCH  23  24
ENDBRANCH  17  18
ENDBRANCH   5  17
TORSDOF 7
ENDMDL
MODEL 8
REMARK VINA RESULT:      -5.8     13.352     16.903
REMARK  Name = 26744542
REMARK  7 active torsions:
REMARK  status: ('A' for Active; 'I' for Inactive)
REMARK    1  A    between atoms: O_2  and  C_13
REMARK    2  A    between atoms: O_3  and  C_24
REMARK    3  A    between atoms: N_5  and  C_17
REMARK    4  A    between atoms: C_8  and  C_15
REMARK    5  A    between atoms: C_9  and  C_16
REMARK    6  A    between atoms: C_17  and  C_18
REMARK    7  A    between atoms: C_23  and  C_24
REMARK                            x       y       z     vdW  Elec       q    Type
REMARK                         _______ _______ _______ _____ _____    ______ ____
ROOT
ATOM      5  N   UNL     1      10.583   5.582   6.068  0.00  0.00    -0.285 NA
ATOM      9  C   UNL     1      10.698   6.774   6.933  0.00  0.00    +0.149 C 
ATOM     12  C   UNL     1      10.426   6.255   8.358  0.00  0.00    +0.061 C 
ATOM     13  C   UNL     1      10.123   4.772   8.185  0.00  0.00    +0.130 C 
ATOM     14  C   UNL     1       9.662   4.669   6.743  0.00  0.00    +0.116 C 
ENDROOT
BRANCH   9  16
ATOM      1  O   UNL     1      12.055   8.807   6.966  0.00  0.00    -0.336 OA
ATOM      6  N   UNL     1      13.219   6.936   6.563  0.00  0.00    -0.194 NA
ATOM      7  N   UNL     1      13.390   9.204   6.808  0.00  0.00    -0.061 NA
ATOM     15  C   UNL     1      14.013   8.045   6.573  0.00  0.00    +0.175 A 
ATOM     16  C   UNL     1      12.043   7.458   6.807  0.00  0.00    +0.245 A 
BRANCH  15   8
ATOM      8  C   UNL     1      15.524   7.972   6.331  0.00  0.00    +0.060 C 
ATOM     10  C   UNL     1      16.242   9.206   5.872  0.00  0.00    +0.012 C 
ATOM     11  C   UNL     1      16.034   8.062   4.923  0.00  0.00    +0.012 C 
ENDBRANCH  15   8
ENDBRANCH   9  16
BRANCH  13   2
ATOM      2  O   UNL     1       9.116   4.358   9.088  0.00  0.00    -0.390 OA
ATOM     25  H   UNL     1       9.479   4.435   9.987  0.00  0.00    +0.210 HD
ENDBRANCH  13   2
BRANCH   5  17
ATOM     17  C   UNL     1      10.148   5.896   4.714  0.00  0.00    +0.120 C 
BRANCH  17  18
ATOM     18  C   UNL     1      11.095   5.350   3.679  0.00  0.00    -0.033 A 
ATOM     19  C   UNL     1      10.963   4.033   3.239  0.00  0.00    +0.006 A 
ATOM     20  C   UNL     1      12.105   6.160   3.160  0.00  0.00    +0.006 A 
ATOM     21  C   UNL     1      11.841   3.526   2.280  0.00  0.00    +0.015 A 
ATOM     22  C   UNL     1      12.982   5.654   2.202  0.00  0.00    +0.015 A 
ATOM     23  C   UNL     1      12.850   4.337   1.762  0.00  0.00    +0.059 A 
BRANCH  23  24
ATOM      4  O   UNL     1      13.603   3.875  -0.462  0.00  0.00    -0.245 OA
ATOM     24  C   UNL     1      13.765   3.810   0.761  0.00  0.00    +0.337 C 
BRANCH  24   3
ATOM      3  O   UNL     1      14.857   3.216   1.315  0.00  0.00    -0.477 OA
ATOM     26  H   UNL     1      15.198   2.485   0.756  0.00  0.00    +0.295 HD
ENDBRANCH  24   3
ENDBRANCH  23  24
ENDBRANCH  17  18
ENDBRANCH   5  17
TORSDOF 7
ENDMDL
MODEL 9
REMARK VINA RESULT:      -5.7      2.870      4.630
REMARK  Name = 26744542
REMARK  7 active torsions:
REMARK  status: ('A' for Active; 'I' for Inactive)
REMARK    1  A    between atoms: O_2  and  C_13
REMARK    2  A    between atoms: O_3  and  C_24
REMARK    3  A    between atoms: N_5  and  C_17
REMARK    4  A    between atoms: C_8  and  C_15
REMARK    5  A    between atoms: C_9  and  C_16
REMARK    6  A    between atoms: C_17  and  C_18
REMARK    7  A    between atoms: C_23  and  C_24
REMARK                            x       y       z     vdW  Elec       q    Type
REMARK                         _______ _______ _______ _____ _____    ______ ____
ROOT
ATOM      5  N   UNL     1      12.726   8.927  21.000  0.00  0.00    -0.285 NA
ATOM      9  C   UNL     1      13.505   8.226  19.959  0.00  0.00    +0.149 C 
ATOM     12  C   UNL     1      12.898   6.812  19.898  0.00  0.00    +0.061 C 
ATOM     13  C   UNL     1      11.818   6.800  20.972  0.00  0.00    +0.130 C 
ATOM     14  C   UNL     1      12.252   7.899  21.924  0.00  0.00    +0.116 C 
ENDROOT
BRANCH   9  16
ATOM      1  O   UNL     1      12.303   8.851  17.924  0.00  0.00    -0.336 OA
ATOM      6  N   UNL     1      14.398   9.639  18.028  0.00  0.00    -0.194 NA
ATOM      7  N   UNL     1      12.506   9.578  16.744  0.00  0.00    -0.061 NA
ATOM     15  C   UNL     1      13.763  10.010  16.879  0.00  0.00    +0.175 A 
ATOM     16  C   UNL     1      13.465   8.938  18.623  0.00  0.00    +0.245 A 
BRANCH  15   8
ATOM      8  C   UNL     1      14.444  10.869  15.810  0.00  0.00    +0.060 C 
ATOM     10  C   UNL     1      15.640  11.688  16.197  0.00  0.00    +0.012 C 
ATOM     11  C   UNL     1      14.332  12.362  15.905  0.00  0.00    +0.012 C 
ENDBRANCH  15   8
ENDBRANCH   9  16
BRANCH  13   2
ATOM      2  O   UNL     1      11.763   5.541  21.615  0.00  0.00    -0.390 OA
ATOM     25  H   UNL     1      10.827   5.284  21.674  0.00  0.00    +0.210 HD
ENDBRANCH  13   2
BRANCH   5  17
ATOM     17  C   UNL     1      13.485   9.968  21.680  0.00  0.00    +0.120 C 
BRANCH  17  18
ATOM     18  C   UNL     1      12.588  11.033  22.254  0.00  0.00    -0.033 A 
ATOM     19  C   UNL     1      11.767  11.780  21.410  0.00  0.00    +0.006 A 
ATOM     20  C   UNL     1      12.578  11.272  23.628  0.00  0.00    +0.006 A 
ATOM     21  C   UNL     1      10.935  12.766  21.941  0.00  0.00    +0.015 A 
ATOM     22  C   UNL     1      11.746  12.257  24.158  0.00  0.00    +0.015 A 
ATOM     23  C   UNL     1      10.925  13.004  23.315  0.00  0.00    +0.059 A 
BRANCH  23  24
ATOM      4  O   UNL     1       9.226  14.688  23.232  0.00  0.00    -0.245 OA
ATOM     24  C   UNL     1      10.057  14.032  23.869  0.00  0.00    +0.337 C 
BRANCH  24   3
ATOM      3  O   UNL     1      10.250  14.212  25.205  0.00  0.00    -0.477 OA
ATOM     26  H   UNL     1       9.693  13.606  25.739  0.00  0.00    +0.295 HD
ENDBRANCH  24   3
ENDBRANCH  23  24
ENDBRANCH  17  18
ENDBRANCH   5  17
TORSDOF 7
ENDMDL
MODEL 10
REMARK VINA RESULT:      -5.7     27.858     30.828
REMARK  Name = 26744542
REMARK  7 active torsions:
REMARK  status: ('A' for Active; 'I' for Inactive)
REMARK    1  A    between atoms: O_2  and  C_13
REMARK    2  A    between atoms: O_3  and  C_24
REMARK    3  A    between atoms: N_5  and  C_17
REMARK    4  A    between atoms: C_8  and  C_15
REMARK    5  A    between atoms: C_9  and  C_16
REMARK    6  A    between atoms: C_17  and  C_18
REMARK    7  A    between atoms: C_23  and  C_24
REMARK                            x       y       z     vdW  Elec       q    Type
REMARK                         _______ _______ _______ _____ _____    ______ ____
ROOT
ATOM      5  N   UNL     1     -15.094   5.181  33.502  0.00  0.00    -0.285 NA
ATOM      9  C   UNL     1     -14.497   6.088  32.500  0.00  0.00    +0.149 C 
ATOM     12  C   UNL     1     -15.697   6.648  31.713  0.00  0.00    +0.061 C 
ATOM     13  C   UNL     1     -16.917   5.964  32.314  0.00  0.00    +0.130 C 
ATOM     14  C   UNL     1     -16.348   4.698  32.928  0.00  0.00    +0.116 C 
ENDROOT
BRANCH   9  16
ATOM      1  O   UNL     1     -13.738   7.307  34.477  0.00  0.00    -0.336 OA
ATOM      6  N   UNL     1     -12.830   8.021  32.558  0.00  0.00    -0.194 NA
ATOM      7  N   UNL     1     -12.877   8.358  34.820  0.00  0.00    -0.061 NA
ATOM     15  C   UNL     1     -12.380   8.726  33.635  0.00  0.00    +0.175 A 
ATOM     16  C   UNL     1     -13.650   7.174  33.128  0.00  0.00    +0.245 A 
BRANCH  15   8
ATOM      8  C   UNL     1     -11.368   9.867  33.500  0.00  0.00    +0.060 C 
ATOM     10  C   UNL     1     -10.936  10.290  32.127  0.00  0.00    +0.012 C 
ATOM     11  C   UNL     1      -9.983   9.550  33.018  0.00  0.00    +0.012 C 
ENDBRANCH  15   8
ENDBRANCH   9  16
BRANCH  13   2
ATOM      2  O   UNL     1     -17.875   5.676  31.313  0.00  0.00    -0.390 OA
ATOM     25  H   UNL     1     -17.400   5.293  30.556  0.00  0.00    +0.210 HD
ENDBRANCH  13   2
BRANCH   5  17
ATOM     17  C   UNL     1     -14.210   4.088  33.885  0.00  0.00    +0.120 C 
BRANCH  17  18
ATOM     18  C   UNL     1     -14.167   3.008  32.837  0.00  0.00    -0.033 A 
ATOM     19  C   UNL     1     -14.797   1.786  33.070  0.00  0.00    +0.006 A 
ATOM     20  C   UNL     1     -13.497   3.229  31.634  0.00  0.00    +0.006 A 
ATOM     21  C   UNL     1     -14.757   0.785  32.099  0.00  0.00    +0.015 A 
ATOM     22  C   UNL     1     -13.458   2.229  30.663  0.00  0.00    +0.015 A 
ATOM     23  C   UNL     1     -14.088   1.006  30.896  0.00  0.00    +0.059 A 
BRANCH  23  24
ATOM      4  O   UNL     1     -14.907  -0.226  29.015  0.00  0.00    -0.245 OA
ATOM     24  C   UNL     1     -14.047  -0.036  29.882  0.00  0.00    +0.337 C 
BRANCH  24   3
ATOM      3  O   UNL     1     -12.934  -0.814  29.980  0.00  0.00    -0.477 OA
ATOM     26  H   UNL     1     -12.225  -0.373  30.495  0.00  0.00    +0.295 HD
ENDBRANCH  24   3
ENDBRANCH  23  24
ENDBRANCH  17  18
ENDBRANCH   5  17
TORSDOF 7
ENDMDL
