MODEL 1
REMARK VINA RESULT:      -7.2      0.000      0.000
REMARK  Name = 71693260
REMARK  5 active torsions:
REMARK  status: ('A' for Active; 'I' for Inactive)
REMARK    1  A    between atoms: O_3  and  C_17
REMARK    2  A    between atoms: N_7  and  C_19
REMARK    3  A    between atoms: C_8  and  C_16
REMARK    4  A    between atoms: C_9  and  C_15
REMARK    5  A    between atoms: CA_10  and  C_17
REMARK                            x       y       z     vdW  Elec       q    Type
REMARK                         _______ _______ _______ _____ _____    ______ ____
ROOT
ATOM     15  C   UNL     1      16.128   7.316  19.851  0.00  0.00    -0.017 A 
ATOM     19  C   UNL     1      18.591   6.617  20.961  0.00  0.00    +0.033 A 
ATOM     21  C   UNL     1      16.820   6.205  19.369  0.00  0.00    +0.008 A 
ATOM     22  C   UNL     1      16.669   8.079  20.887  0.00  0.00    +0.008 A 
ATOM     23  C   UNL     1      18.051   5.856  19.924  0.00  0.00    +0.023 A 
ATOM     24  C   UNL     1      17.900   7.730  21.442  0.00  0.00    +0.023 A 
ENDROOT
BRANCH  15   9
ATOM      1  O   UNL     1      14.896   7.542  17.829  0.00  0.00    -0.361 OA
ATOM      5  O   UNL     1      11.415   7.682  16.979  0.00  0.00    -0.273 OA
ATOM      6  N   UNL     1      12.420   7.108  18.961  0.00  0.00    -0.306 N 
ATOM      9  C   UNL     1      14.793   7.695  19.250  0.00  0.00    +0.171 C 
ATOM     10  CA  UNL     1      13.627   6.816  19.729  0.00  0.00    +0.131 C 
ATOM     18  C   UNL     1      13.772   8.080  17.166  0.00  0.00    +0.256 C 
ATOM     20  C   UNL     1      12.428   7.588  17.669  0.00  0.00    +0.239 C 
ATOM     25  H   UNL     1      11.534   6.773  19.325  0.00  0.00    +0.149 HD
BRANCH  10  17
ATOM     17  C   UNL     1      13.341   6.983  21.220  0.00  0.00    +0.181 C 
BRANCH  17   3
ATOM      3  O   UNL     1      12.330   6.063  21.590  0.00  0.00    -0.393 OA
ATOM     27  H   UNL     1      12.649   5.176  21.351  0.00  0.00    +0.209 HD
ENDBRANCH  17   3
ENDBRANCH  10  17
ENDBRANCH  15   9
BRANCH  19   7
ATOM      4  O   UNL     1      21.388   7.382  20.150  0.00  0.00    -0.275 OA
ATOM      7  N   UNL     1      19.839   6.263  21.524  0.00  0.00    -0.285 N 
ATOM     16  C   UNL     1      21.101   6.653  21.095  0.00  0.00    +0.220 C 
ATOM     26  H   UNL     1      19.781   5.658  22.340  0.00  0.00    +0.155 HD
BRANCH  16   8
ATOM      2  O   UNL     1      23.245   3.601  20.897  0.00  0.00    -0.380 OA
ATOM      8  C   UNL     1      22.175   6.062  21.962  0.00  0.00    +0.080 C 
ATOM     11  C   UNL     1      23.495   5.999  21.194  0.00  0.00    +0.041 C 
ATOM     12  C   UNL     1      21.760   4.688  22.487  0.00  0.00    +0.041 C 
ATOM     13  C   UNL     1      23.536   4.823  20.223  0.00  0.00    +0.160 C 
ATOM     14  C   UNL     1      21.927   3.592  21.440  0.00  0.00    +0.160 C 
ENDBRANCH  16   8
ENDBRANCH  19   7
TORSDOF 5
ENDMDL
MODEL 2
REMARK VINA RESULT:      -7.1      1.447      2.509
REMARK  Name = 71693260
REMARK  5 active torsions:
REMARK  status: ('A' for Active; 'I' for Inactive)
REMARK    1  A    between atoms: O_3  and  C_17
REMARK    2  A    between atoms: N_7  and  C_19
REMARK    3  A    between atoms: C_8  and  C_16
REMARK    4  A    between atoms: C_9  and  C_15
REMARK    5  A    between atoms: CA_10  and  C_17
REMARK                            x       y       z     vdW  Elec       q    Type
REMARK                         _______ _______ _______ _____ _____    ______ ____
ROOT
ATOM     15  C   UNL     1      15.746   6.778  19.904  0.00  0.00    -0.017 A 
ATOM     19  C   UNL     1      18.479   6.393  20.316  0.00  0.00    +0.033 A 
ATOM     21  C   UNL     1      16.379   7.378  20.993  0.00  0.00    +0.008 A 
ATOM     22  C   UNL     1      16.481   5.985  19.021  0.00  0.00    +0.008 A 
ATOM     23  C   UNL     1      17.744   7.185  21.199  0.00  0.00    +0.023 A 
ATOM     24  C   UNL     1      17.846   5.792  19.227  0.00  0.00    +0.023 A 
ENDROOT
BRANCH  15   9
ATOM      1  O   UNL     1      13.620   6.936  20.958  0.00  0.00    -0.361 OA
ATOM      5  O   UNL     1      10.431   8.303  20.050  0.00  0.00    -0.273 OA
ATOM      6  N   UNL     1      12.477   8.553  19.040  0.00  0.00    -0.306 N 
ATOM      9  C   UNL     1      14.265   6.988  19.680  0.00  0.00    +0.171 C 
ATOM     10  CA  UNL     1      13.921   8.341  19.039  0.00  0.00    +0.131 C 
ATOM     18  C   UNL     1      12.215   6.902  20.829  0.00  0.00    +0.256 C 
ATOM     20  C   UNL     1      11.619   7.996  19.963  0.00  0.00    +0.239 C 
ATOM     25  H   UNL     1      12.105   9.287  18.446  0.00  0.00    +0.149 HD
BRANCH  10  17
ATOM     17  C   UNL     1      14.459   8.470  17.616  0.00  0.00    +0.181 C 
BRANCH  17   3
ATOM      3  O   UNL     1      13.766   7.553  16.788  0.00  0.00    -0.393 OA
ATOM     27  H   UNL     1      14.252   7.501  15.948  0.00  0.00    +0.209 HD
ENDBRANCH  17   3
ENDBRANCH  10  17
ENDBRANCH  15   9
BRANCH  19   7
ATOM      4  O   UNL     1      20.054   6.140  22.870  0.00  0.00    -0.275 OA
ATOM      7  N   UNL     1      19.864   6.197  20.525  0.00  0.00    -0.285 N 
ATOM     16  C   UNL     1      20.530   6.091  21.739  0.00  0.00    +0.220 C 
ATOM     26  H   UNL     1      20.416   6.122  19.673  0.00  0.00    +0.155 HD
BRANCH  16   8
ATOM      2  O   UNL     1      22.892   3.259  22.333  0.00  0.00    -0.380 OA
ATOM      8  C   UNL     1      22.003   5.888  21.534  0.00  0.00    +0.080 C 
ATOM     11  C   UNL     1      22.242   4.756  20.534  0.00  0.00    +0.041 C 
ATOM     12  C   UNL     1      22.710   5.626  22.863  0.00  0.00    +0.041 C 
ATOM     13  C   UNL     1      22.072   3.382  21.173  0.00  0.00    +0.160 C 
ATOM     14  C   UNL     1      22.525   4.192  23.347  0.00  0.00    +0.160 C 
ENDBRANCH  16   8
ENDBRANCH  19   7
TORSDOF 5
ENDMDL
MODEL 3
REMARK VINA RESULT:      -7.1      1.379      2.084
REMARK  Name = 71693260
REMARK  5 active torsions:
REMARK  status: ('A' for Active; 'I' for Inactive)
REMARK    1  A    between atoms: O_3  and  C_17
REMARK    2  A    between atoms: N_7  and  C_19
REMARK    3  A    between atoms: C_8  and  C_16
REMARK    4  A    between atoms: C_9  and  C_15
REMARK    5  A    between atoms: CA_10  and  C_17
REMARK                            x       y       z     vdW  Elec       q    Type
REMARK                         _______ _______ _______ _____ _____    ______ ____
ROOT
ATOM     15  C   UNL     1      15.693   7.482  19.582  0.00  0.00    -0.017 A 
ATOM     19  C   UNL     1      18.254   6.599  20.252  0.00  0.00    +0.033 A 
ATOM     21  C   UNL     1      16.471   8.215  20.478  0.00  0.00    +0.008 A 
ATOM     22  C   UNL     1      16.195   6.306  19.022  0.00  0.00    +0.008 A 
ATOM     23  C   UNL     1      17.751   7.774  20.812  0.00  0.00    +0.023 A 
ATOM     24  C   UNL     1      17.475   5.865  19.357  0.00  0.00    +0.023 A 
ENDROOT
BRANCH  15   9
ATOM      1  O   UNL     1      14.246   8.082  17.793  0.00  0.00    -0.361 OA
ATOM      5  O   UNL     1      10.693   8.362  17.386  0.00  0.00    -0.273 OA
ATOM      6  N   UNL     1      11.905   7.426  19.095  0.00  0.00    -0.306 N 
ATOM      9  C   UNL     1      14.305   7.960  19.220  0.00  0.00    +0.171 C 
ATOM     10  CA  UNL     1      13.186   7.000  19.652  0.00  0.00    +0.131 C 
ATOM     18  C   UNL     1      13.063   8.731  17.377  0.00  0.00    +0.256 C 
ATOM     20  C   UNL     1      11.776   8.144  17.926  0.00  0.00    +0.239 C 
ATOM     25  H   UNL     1      11.060   7.022  19.487  0.00  0.00    +0.149 HD
BRANCH  10  17
ATOM     17  C   UNL     1      13.072   6.877  21.170  0.00  0.00    +0.181 C 
BRANCH  17   3
ATOM      3  O   UNL     1      12.209   5.795  21.470  0.00  0.00    -0.393 OA
ATOM     27  H   UNL     1      12.451   5.471  22.354  0.00  0.00    +0.209 HD
ENDBRANCH  17   3
ENDBRANCH  10  17
ENDBRANCH  15   9
BRANCH  19   7
ATOM      4  O   UNL     1      19.594   6.341  22.935  0.00  0.00    -0.275 OA
ATOM      7  N   UNL     1      19.552   6.152  20.590  0.00  0.00    -0.285 N 
ATOM     16  C   UNL     1      20.111   6.059  21.858  0.00  0.00    +0.220 C 
ATOM     26  H   UNL     1      20.122   5.863  19.798  0.00  0.00    +0.155 HD
BRANCH  16   8
ATOM      2  O   UNL     1      23.490   7.641  21.689  0.00  0.00    -0.380 OA
ATOM      8  C   UNL     1      21.517   5.536  21.794  0.00  0.00    +0.080 C 
ATOM     11  C   UNL     1      22.303   5.994  23.022  0.00  0.00    +0.041 C 
ATOM     12  C   UNL     1      22.200   5.960  20.495  0.00  0.00    +0.041 C 
ATOM     13  C   UNL     1      22.764   7.442  22.899  0.00  0.00    +0.160 C 
ATOM     14  C   UNL     1      22.683   7.406  20.538  0.00  0.00    +0.160 C 
ENDBRANCH  16   8
ENDBRANCH  19   7
TORSDOF 5
ENDMDL
MODEL 4
REMARK VINA RESULT:      -6.4      1.878      8.680
REMARK  Name = 71693260
REMARK  5 active torsions:
REMARK  status: ('A' for Active; 'I' for Inactive)
REMARK    1  A    between atoms: O_3  and  C_17
REMARK    2  A    between atoms: N_7  and  C_19
REMARK    3  A    between atoms: C_8  and  C_16
REMARK    4  A    between atoms: C_9  and  C_15
REMARK    5  A    between atoms: CA_10  and  C_17
REMARK                            x       y       z     vdW  Elec       q    Type
REMARK                         _______ _______ _______ _____ _____    ______ ____
ROOT
ATOM     15  C   UNL     1      19.570   6.348  20.954  0.00  0.00    -0.017 A 
ATOM     19  C   UNL     1      17.098   7.560  20.504  0.00  0.00    +0.033 A 
ATOM     21  C   UNL     1      19.214   7.493  21.667  0.00  0.00    +0.008 A 
ATOM     22  C   UNL     1      18.689   5.809  20.015  0.00  0.00    +0.008 A 
ATOM     23  C   UNL     1      17.979   8.099  21.442  0.00  0.00    +0.023 A 
ATOM     24  C   UNL     1      17.454   6.416  19.790  0.00  0.00    +0.023 A 
ENDROOT
BRANCH  15   9
ATOM      1  O   UNL     1      20.782   4.304  20.863  0.00  0.00    -0.361 OA
ATOM      5  O   UNL     1      24.256   3.414  20.758  0.00  0.00    -0.273 OA
ATOM      6  N   UNL     1      23.256   5.463  20.491  0.00  0.00    -0.306 N 
ATOM      9  C   UNL     1      20.910   5.690  21.199  0.00  0.00    +0.171 C 
ATOM     10  CA  UNL     1      22.050   6.274  20.349  0.00  0.00    +0.131 C 
ATOM     18  C   UNL     1      21.917   3.566  21.265  0.00  0.00    +0.256 C 
ATOM     20  C   UNL     1      23.248   4.120  20.794  0.00  0.00    +0.239 C 
ATOM     25  H   UNL     1      24.134   5.862  20.174  0.00  0.00    +0.149 HD
BRANCH  10  17
ATOM     17  C   UNL     1      22.361   7.726  20.702  0.00  0.00    +0.181 C 
BRANCH  17   3
ATOM      3  O   UNL     1      22.572   8.445  19.501  0.00  0.00    -0.393 OA
ATOM     27  H   UNL     1      23.524   8.411  19.310  0.00  0.00    +0.209 HD
ENDBRANCH  17   3
ENDBRANCH  10  17
ENDBRANCH  15   9
BRANCH  19   7
ATOM      4  O   UNL     1      14.649   7.712  22.249  0.00  0.00    -0.275 OA
ATOM      7  N   UNL     1      15.844   8.174  20.275  0.00  0.00    -0.285 N 
ATOM     16  C   UNL     1      14.749   8.205  21.129  0.00  0.00    +0.220 C 
ATOM     26  H   UNL     1      15.760   8.648  19.379  0.00  0.00    +0.155 HD
BRANCH  16   8
ATOM      2  O   UNL     1      11.607   7.221  19.366  0.00  0.00    -0.380 OA
ATOM      8  C   UNL     1      13.605   8.959  20.517  0.00  0.00    +0.080 C 
ATOM     11  C   UNL     1      12.301   8.609  21.234  0.00  0.00    +0.041 C 
ATOM     12  C   UNL     1      13.514   8.691  19.015  0.00  0.00    +0.041 C 
ATOM     13  C   UNL     1      11.745   7.263  20.784  0.00  0.00    +0.160 C 
ATOM     14  C   UNL     1      12.864   7.346  18.704  0.00  0.00    +0.160 C 
ENDBRANCH  16   8
ENDBRANCH  19   7
TORSDOF 5
ENDMDL
MODEL 5
REMARK VINA RESULT:      -6.4      5.278      8.491
REMARK  Name = 71693260
REMARK  5 active torsions:
REMARK  status: ('A' for Active; 'I' for Inactive)
REMARK    1  A    between atoms: O_3  and  C_17
REMARK    2  A    between atoms: N_7  and  C_19
REMARK    3  A    between atoms: C_8  and  C_16
REMARK    4  A    between atoms: C_9  and  C_15
REMARK    5  A    between atoms: CA_10  and  C_17
REMARK                            x       y       z     vdW  Elec       q    Type
REMARK                         _______ _______ _______ _____ _____    ______ ____
ROOT
ATOM     15  C   UNL     1      12.879   9.201  18.622  0.00  0.00    -0.017 A 
ATOM     19  C   UNL     1      13.538  10.810  16.439  0.00  0.00    +0.033 A 
ATOM     21  C   UNL     1      13.616  10.370  18.814  0.00  0.00    +0.008 A 
ATOM     22  C   UNL     1      12.472   8.837  17.337  0.00  0.00    +0.008 A 
ATOM     23  C   UNL     1      13.946  11.174  17.723  0.00  0.00    +0.023 A 
ATOM     24  C   UNL     1      12.803   9.641  16.246  0.00  0.00    +0.023 A 
ENDROOT
BRANCH  15   9
ATOM      1  O   UNL     1      11.093   8.232  19.857  0.00  0.00    -0.361 OA
ATOM      5  O   UNL     1      10.786   5.493  22.152  0.00  0.00    -0.273 OA
ATOM      6  N   UNL     1      12.533   6.070  20.780  0.00  0.00    -0.306 N 
ATOM      9  C   UNL     1      12.521   8.330  19.805  0.00  0.00    +0.171 C 
ATOM     10  CA  UNL     1      13.083   6.902  19.714  0.00  0.00    +0.131 C 
ATOM     18  C   UNL     1      10.658   7.621  21.053  0.00  0.00    +0.256 C 
ATOM     20  C   UNL     1      11.306   6.286  21.369  0.00  0.00    +0.239 C 
ATOM     25  H   UNL     1      12.991   5.185  20.975  0.00  0.00    +0.149 HD
BRANCH  10  17
ATOM     17  C   UNL     1      14.608   6.867  19.768  0.00  0.00    +0.181 C 
BRANCH  17   3
ATOM      3  O   UNL     1      15.001   6.060  20.863  0.00  0.00    -0.393 OA
ATOM     27  H   UNL     1      15.702   6.539  21.335  0.00  0.00    +0.209 HD
ENDBRANCH  17   3
ENDBRANCH  10  17
ENDBRANCH  15   9
BRANCH  19   7
ATOM      4  O   UNL     1      15.410  10.308  14.136  0.00  0.00    -0.275 OA
ATOM      7  N   UNL     1      13.872  11.626  15.333  0.00  0.00    -0.285 N 
ATOM     16  C   UNL     1      14.752  11.330  14.299  0.00  0.00    +0.220 C 
ATOM     26  H   UNL     1      13.396  12.525  15.308  0.00  0.00    +0.155 HD
BRANCH  16   8
ATOM      2  O   UNL     1      17.340  13.885  13.445  0.00  0.00    -0.380 OA
ATOM      8  C   UNL     1      14.830  12.461  13.315  0.00  0.00    +0.080 C 
ATOM     11  C   UNL     1      15.971  12.218  12.327  0.00  0.00    +0.041 C 
ATOM     12  C   UNL     1      14.981  13.802  14.033  0.00  0.00    +0.041 C 
ATOM     13  C   UNL     1      17.331  12.555  12.928  0.00  0.00    +0.160 C 
ATOM     14  C   UNL     1      16.408  14.048  14.512  0.00  0.00    +0.160 C 
ENDBRANCH  16   8
ENDBRANCH  19   7
TORSDOF 5
ENDMDL
MODEL 6
REMARK VINA RESULT:      -6.1     15.866     19.822
REMARK  Name = 71693260
REMARK  5 active torsions:
REMARK  status: ('A' for Active; 'I' for Inactive)
REMARK    1  A    between atoms: O_3  and  C_17
REMARK    2  A    between atoms: N_7  and  C_19
REMARK    3  A    between atoms: C_8  and  C_16
REMARK    4  A    between atoms: C_9  and  C_15
REMARK    5  A    between atoms: CA_10  and  C_17
REMARK                            x       y       z     vdW  Elec       q    Type
REMARK                         _______ _______ _______ _____ _____    ______ ____
ROOT
ATOM     15  C   UNL     1      10.988   6.005   3.861  0.00  0.00    -0.017 A 
ATOM     19  C   UNL     1      12.007   4.720   1.603  0.00  0.00    +0.033 A 
ATOM     21  C   UNL     1      10.775   4.638   3.680  0.00  0.00    +0.008 A 
ATOM     22  C   UNL     1      11.710   6.730   2.911  0.00  0.00    +0.008 A 
ATOM     23  C   UNL     1      11.284   3.996   2.552  0.00  0.00    +0.023 A 
ATOM     24  C   UNL     1      12.219   6.088   1.782  0.00  0.00    +0.023 A 
ENDROOT
BRANCH  15   9
ATOM      1  O   UNL     1       9.071   6.294   5.239  0.00  0.00    -0.361 OA
ATOM      5  O   UNL     1       8.502   7.440   8.589  0.00  0.00    -0.273 OA
ATOM      6  N   UNL     1      10.469   6.896   7.538  0.00  0.00    -0.306 N 
ATOM      9  C   UNL     1      10.436   6.702   5.085  0.00  0.00    +0.171 C 
ATOM     10  CA  UNL     1      11.177   6.350   6.384  0.00  0.00    +0.131 C 
ATOM     18  C   UNL     1       8.409   7.059   6.223  0.00  0.00    +0.256 C 
ATOM     20  C   UNL     1       9.111   7.129   7.567  0.00  0.00    +0.239 C 
ATOM     25  H   UNL     1      10.965   6.938   8.422  0.00  0.00    +0.149 HD
BRANCH  10  17
ATOM     17  C   UNL     1      12.622   6.843   6.386  0.00  0.00    +0.181 C 
BRANCH  17   3
ATOM      3  O   UNL     1      13.373   6.028   7.268  0.00  0.00    -0.393 OA
ATOM     27  H   UNL     1      13.400   6.483   8.127  0.00  0.00    +0.209 HD
ENDBRANCH  17   3
ENDBRANCH  10  17
ENDBRANCH  15   9
BRANCH  19   7
ATOM      4  O   UNL     1      10.619   3.743  -0.883  0.00  0.00    -0.275 OA
ATOM      7  N   UNL     1      12.524   4.069   0.459  0.00  0.00    -0.285 N 
ATOM     16  C   UNL     1      11.822   3.641  -0.660  0.00  0.00    +0.220 C 
ATOM     26  H   UNL     1      13.530   3.913   0.476  0.00  0.00    +0.155 HD
BRANCH  16   8
ATOM      2  O   UNL     1      12.750   4.349  -4.208  0.00  0.00    -0.380 OA
ATOM      8  C   UNL     1      12.736   2.993  -1.659  0.00  0.00    +0.080 C 
ATOM     11  C   UNL     1      13.839   3.968  -2.071  0.00  0.00    +0.041 C 
ATOM     12  C   UNL     1      11.953   2.482  -2.868  0.00  0.00    +0.041 C 
ATOM     13  C   UNL     1      13.345   4.994  -3.085  0.00  0.00    +0.160 C 
ATOM     14  C   UNL     1      11.593   3.600  -3.841  0.00  0.00    +0.160 C 
ENDBRANCH  16   8
ENDBRANCH  19   7
TORSDOF 5
ENDMDL
MODEL 7
REMARK VINA RESULT:      -6.1     27.500     31.872
REMARK  Name = 71693260
REMARK  5 active torsions:
REMARK  status: ('A' for Active; 'I' for Inactive)
REMARK    1  A    between atoms: O_3  and  C_17
REMARK    2  A    between atoms: N_7  and  C_19
REMARK    3  A    between atoms: C_8  and  C_16
REMARK    4  A    between atoms: C_9  and  C_15
REMARK    5  A    between atoms: CA_10  and  C_17
REMARK                            x       y       z     vdW  Elec       q    Type
REMARK                         _______ _______ _______ _____ _____    ______ ____
ROOT
ATOM     15  C   UNL     1      -6.392 -10.984  16.882  0.00  0.00    -0.017 A 
ATOM     19  C   UNL     1      -8.986 -10.358  17.700  0.00  0.00    +0.033 A 
ATOM     21  C   UNL     1      -6.779  -9.650  17.015  0.00  0.00    +0.008 A 
ATOM     22  C   UNL     1      -7.303 -12.005  17.157  0.00  0.00    +0.008 A 
ATOM     23  C   UNL     1      -8.075  -9.337  17.423  0.00  0.00    +0.023 A 
ATOM     24  C   UNL     1      -8.600 -11.692  17.565  0.00  0.00    +0.023 A 
ENDROOT
BRANCH  15   9
ATOM      1  O   UNL     1      -4.661 -10.472  15.333  0.00  0.00    -0.361 OA
ATOM      5  O   UNL     1      -1.115 -11.001  15.223  0.00  0.00    -0.273 OA
ATOM      6  N   UNL     1      -2.584 -11.255  16.968  0.00  0.00    -0.306 N 
ATOM      9  C   UNL     1      -4.986 -11.323  16.439  0.00  0.00    +0.171 C 
ATOM     10  CA  UNL     1      -3.924 -11.101  17.527  0.00  0.00    +0.131 C 
ATOM     18  C   UNL     1      -3.455 -10.864  14.714  0.00  0.00    +0.256 C 
ATOM     20  C   UNL     1      -2.270 -11.020  15.648  0.00  0.00    +0.239 C 
ATOM     25  H   UNL     1      -1.810 -11.364  17.617  0.00  0.00    +0.149 HD
BRANCH  10  17
ATOM     17  C   UNL     1      -4.098 -12.042  18.716  0.00  0.00    +0.181 C 
BRANCH  17   3
ATOM      3  O   UNL     1      -2.893 -12.053  19.460  0.00  0.00    -0.393 OA
ATOM     27  H   UNL     1      -2.635 -11.126  19.603  0.00  0.00    +0.209 HD
ENDBRANCH  17   3
ENDBRANCH  10  17
ENDBRANCH  15   9
BRANCH  19   7
ATOM      4  O   UNL     1     -10.219 -10.350  20.446  0.00  0.00    -0.275 OA
ATOM      7  N   UNL     1     -10.300 -10.041  18.115  0.00  0.00    -0.285 N 
ATOM     16  C   UNL     1     -10.806 -10.060  19.408  0.00  0.00    +0.220 C 
ATOM     26  H   UNL     1     -10.928  -9.763  17.363  0.00  0.00    +0.155 HD
BRANCH  16   8
ATOM      2  O   UNL     1     -14.027 -11.882  19.918  0.00  0.00    -0.380 OA
ATOM      8  C   UNL     1     -12.252  -9.657  19.430  0.00  0.00    +0.080 C 
ATOM     11  C   UNL     1     -12.857  -9.946  20.804  0.00  0.00    +0.041 C 
ATOM     12  C   UNL     1     -13.031 -10.350  18.312  0.00  0.00    +0.041 C 
ATOM     13  C   UNL     1     -13.194 -11.422  20.981  0.00  0.00    +0.160 C 
ATOM     14  C   UNL     1     -13.373 -11.797  18.654  0.00  0.00    +0.160 C 
ENDBRANCH  16   8
ENDBRANCH  19   7
TORSDOF 5
ENDMDL
MODEL 8
REMARK VINA RESULT:      -6.0     30.615     33.635
REMARK  Name = 71693260
REMARK  5 active torsions:
REMARK  status: ('A' for Active; 'I' for Inactive)
REMARK    1  A    between atoms: O_3  and  C_17
REMARK    2  A    between atoms: N_7  and  C_19
REMARK    3  A    between atoms: C_8  and  C_16
REMARK    4  A    between atoms: C_9  and  C_15
REMARK    5  A    between atoms: CA_10  and  C_17
REMARK                            x       y       z     vdW  Elec       q    Type
REMARK                         _______ _______ _______ _____ _____    ______ ____
ROOT
ATOM     15  C   UNL     1      -8.960  -6.596   8.638  0.00  0.00    -0.017 A 
ATOM     19  C   UNL     1     -11.302  -5.243   9.326  0.00  0.00    +0.033 A 
ATOM     21  C   UNL     1     -10.050  -7.302   9.146  0.00  0.00    +0.008 A 
ATOM     22  C   UNL     1      -9.041  -5.212   8.475  0.00  0.00    +0.008 A 
ATOM     23  C   UNL     1     -11.221  -6.626   9.490  0.00  0.00    +0.023 A 
ATOM     24  C   UNL     1     -10.211  -4.535   8.820  0.00  0.00    +0.023 A 
ENDROOT
BRANCH  15   9
ATOM      1  O   UNL     1      -7.276  -8.089   9.406  0.00  0.00    -0.361 OA
ATOM      5  O   UNL     1      -4.870 -10.230   7.828  0.00  0.00    -0.273 OA
ATOM      6  N   UNL     1      -6.661  -9.116   6.923  0.00  0.00    -0.306 N 
ATOM      9  C   UNL     1      -7.691  -7.329   8.265  0.00  0.00    +0.171 C 
ATOM     10  CA  UNL     1      -7.864  -8.306   7.092  0.00  0.00    +0.131 C 
ATOM     18  C   UNL     1      -5.986  -8.632   9.226  0.00  0.00    +0.256 C 
ATOM     20  C   UNL     1      -5.791  -9.423   7.946  0.00  0.00    +0.239 C 
ATOM     25  H   UNL     1      -6.553  -9.629   6.053  0.00  0.00    +0.149 HD
BRANCH  10  17
ATOM     17  C   UNL     1      -8.195  -7.597   5.781  0.00  0.00    +0.181 C 
BRANCH  17   3
ATOM      3  O   UNL     1      -7.059  -7.658   4.937  0.00  0.00    -0.393 OA
ATOM     27  H   UNL     1      -6.443  -6.968   5.235  0.00  0.00    +0.209 HD
ENDBRANCH  17   3
ENDBRANCH  10  17
ENDBRANCH  15   9
BRANCH  19   7
ATOM      4  O   UNL     1     -11.979  -3.631  11.777  0.00  0.00    -0.275 OA
ATOM      7  N   UNL     1     -12.488  -4.557   9.674  0.00  0.00    -0.285 N 
ATOM     16  C   UNL     1     -12.736  -3.828  10.831  0.00  0.00    +0.220 C 
ATOM     26  H   UNL     1     -13.230  -4.610   8.980  0.00  0.00    +0.155 HD
BRANCH  16   8
ATOM      2  O   UNL     1     -16.108  -5.094  11.819  0.00  0.00    -0.380 OA
ATOM      8  C   UNL     1     -14.122  -3.251  10.822  0.00  0.00    +0.080 C 
ATOM     11  C   UNL     1     -14.671  -3.183  12.246  0.00  0.00    +0.041 C 
ATOM     12  C   UNL     1     -15.041  -4.050   9.899  0.00  0.00    +0.041 C 
ATOM     13  C   UNL     1     -15.165  -4.540  12.734  0.00  0.00    +0.160 C 
ATOM     14  C   UNL     1     -15.526  -5.345  10.542  0.00  0.00    +0.160 C 
ENDBRANCH  16   8
ENDBRANCH  19   7
TORSDOF 5
ENDMDL
MODEL 9
REMARK VINA RESULT:      -5.9     24.238     28.609
REMARK  Name = 71693260
REMARK  5 active torsions:
REMARK  status: ('A' for Active; 'I' for Inactive)
REMARK    1  A    between atoms: O_3  and  C_17
REMARK    2  A    between atoms: N_7  and  C_19
REMARK    3  A    between atoms: C_8  and  C_16
REMARK    4  A    between atoms: C_9  and  C_15
REMARK    5  A    between atoms: CA_10  and  C_17
REMARK                            x       y       z     vdW  Elec       q    Type
REMARK                         _______ _______ _______ _____ _____    ______ ____
ROOT
ATOM     15  C   UNL     1      -3.364   8.429   4.662  0.00  0.00    -0.017 A 
ATOM     19  C   UNL     1      -5.793   7.056   4.614  0.00  0.00    +0.033 A 
ATOM     21  C   UNL     1      -4.483   9.012   4.067  0.00  0.00    +0.008 A 
ATOM     22  C   UNL     1      -3.460   7.158   5.232  0.00  0.00    +0.008 A 
ATOM     23  C   UNL     1      -5.697   8.325   4.043  0.00  0.00    +0.023 A 
ATOM     24  C   UNL     1      -4.674   6.472   5.207  0.00  0.00    +0.023 A 
ENDROOT
BRANCH  15   9
ATOM      1  O   UNL     1      -1.723   9.531   3.340  0.00  0.00    -0.361 OA
ATOM      5  O   UNL     1       0.874  11.919   3.987  0.00  0.00    -0.273 OA
ATOM      6  N   UNL     1      -0.851  11.225   5.333  0.00  0.00    -0.306 N 
ATOM      9  C   UNL     1      -2.048   9.173   4.689  0.00  0.00    +0.171 C 
ATOM     10  CA  UNL     1      -2.085  10.466   5.518  0.00  0.00    +0.131 C 
ATOM     18  C   UNL     1      -0.408  10.035   3.240  0.00  0.00    +0.256 C 
ATOM     20  C   UNL     1      -0.074  11.163   4.197  0.00  0.00    +0.239 C 
ATOM     25  H   UNL     1      -0.649  11.969   5.992  0.00  0.00    +0.149 HD
BRANCH  10  17
ATOM     17  C   UNL     1      -2.309  10.203   7.005  0.00  0.00    +0.181 C 
BRANCH  17   3
ATOM      3  O   UNL     1      -1.140   9.608   7.538  0.00  0.00    -0.393 OA
ATOM     27  H   UNL     1      -1.425   8.975   8.218  0.00  0.00    +0.209 HD
ENDBRANCH  17   3
ENDBRANCH  10  17
ENDBRANCH  15   9
BRANCH  19   7
ATOM      4  O   UNL     1      -8.311   7.483   6.209  0.00  0.00    -0.275 OA
ATOM      7  N   UNL     1      -7.024   6.360   4.590  0.00  0.00    -0.285 N 
ATOM     16  C   UNL     1      -8.153   6.611   5.360  0.00  0.00    +0.220 C 
ATOM     26  H   UNL     1      -7.068   5.596   3.919  0.00  0.00    +0.155 HD
BRANCH  16   8
ATOM      2  O   UNL     1     -10.980   6.590   2.918  0.00  0.00    -0.380 OA
ATOM      8  C   UNL     1      -9.256   5.646   5.034  0.00  0.00    +0.080 C 
ATOM     11  C   UNL     1      -9.127   5.169   3.588  0.00  0.00    +0.041 C 
ATOM     12  C   UNL     1     -10.625   6.270   5.304  0.00  0.00    +0.041 C 
ATOM     13  C   UNL     1      -9.645   6.204   2.596  0.00  0.00    +0.160 C 
ATOM     14  C   UNL     1     -11.057   7.223   4.194  0.00  0.00    +0.160 C 
ENDBRANCH  16   8
ENDBRANCH  19   7
TORSDOF 5
ENDMDL
MODEL 10
REMARK VINA RESULT:      -5.9      2.671      8.628
REMARK  Name = 71693260
REMARK  5 active torsions:
REMARK  status: ('A' for Active; 'I' for Inactive)
REMARK    1  A    between atoms: O_3  and  C_17
REMARK    2  A    between atoms: N_7  and  C_19
REMARK    3  A    between atoms: C_8  and  C_16
REMARK    4  A    between atoms: C_9  and  C_15
REMARK    5  A    between atoms: CA_10  and  C_17
REMARK                            x       y       z     vdW  Elec       q    Type
REMARK                         _______ _______ _______ _____ _____    ______ ____
ROOT
ATOM     15  C   UNL     1      18.964   7.811  21.247  0.00  0.00    -0.017 A 
ATOM     19  C   UNL     1      16.362   7.144  20.493  0.00  0.00    +0.033 A 
ATOM     21  C   UNL     1      18.689   6.542  20.739  0.00  0.00    +0.008 A 
ATOM     22  C   UNL     1      17.937   8.747  21.378  0.00  0.00    +0.008 A 
ATOM     23  C   UNL     1      17.389   6.208  20.363  0.00  0.00    +0.023 A 
ATOM     24  C   UNL     1      16.637   8.413  21.002  0.00  0.00    +0.023 A 
ENDROOT
BRANCH  15   9
ATOM      1  O   UNL     1      20.719   9.397  20.994  0.00  0.00    -0.361 OA
ATOM      5  O   UNL     1      23.648  10.264  22.873  0.00  0.00    -0.273 OA
ATOM      6  N   UNL     1      21.870   8.934  23.456  0.00  0.00    -0.306 N 
ATOM      9  C   UNL     1      20.375   8.173  21.655  0.00  0.00    +0.171 C 
ATOM     10  CA  UNL     1      20.544   8.397  23.166  0.00  0.00    +0.131 C 
ATOM     18  C   UNL     1      22.090   9.698  21.140  0.00  0.00    +0.256 C 
ATOM     20  C   UNL     1      22.605   9.688  22.567  0.00  0.00    +0.239 C 
ATOM     25  H   UNL     1      22.192   8.908  24.418  0.00  0.00    +0.149 HD
BRANCH  10  17
ATOM     17  C   UNL     1      20.316   7.123  23.976  0.00  0.00    +0.181 C 
BRANCH  17   3
ATOM      3  O   UNL     1      21.079   6.079  23.397  0.00  0.00    -0.393 OA
ATOM     27  H   UNL     1      22.012   6.260  23.598  0.00  0.00    +0.209 HD
ENDBRANCH  17   3
ENDBRANCH  10  17
ENDBRANCH  15   9
BRANCH  19   7
ATOM      4  O   UNL     1      13.749   7.534  21.936  0.00  0.00    -0.275 OA
ATOM      7  N   UNL     1      15.043   6.806  20.111  0.00  0.00    -0.285 N 
ATOM     16  C   UNL     1      13.874   7.015  20.831  0.00  0.00    +0.220 C 
ATOM     26  H   UNL     1      14.965   6.366  19.196  0.00  0.00    +0.155 HD
BRANCH  16   8
ATOM      2  O   UNL     1      10.633   8.528  19.755  0.00  0.00    -0.380 OA
ATOM      8  C   UNL     1      12.676   6.513  20.078  0.00  0.00    +0.080 C 
ATOM     11  C   UNL     1      12.498   7.310  18.785  0.00  0.00    +0.041 C 
ATOM     12  C   UNL     1      11.422   6.561  20.949  0.00  0.00    +0.041 C 
ATOM     13  C   UNL     1      11.856   8.670  19.036  0.00  0.00    +0.160 C 
ATOM     14  C   UNL     1      10.838   7.967  21.049  0.00  0.00    +0.160 C 
ENDBRANCH  16   8
ENDBRANCH  19   7
TORSDOF 5
ENDMDL
