MODEL 1
REMARK VINA RESULT:      -7.0      0.000      0.000
REMARK  Name = 45783397
REMARK  10 active torsions:
REMARK  status: ('A' for Active; 'I' for Inactive)
REMARK    1  A    between atoms: O_2  and  C_30
REMARK    2  A    between atoms: O_2  and  C_32
REMARK    3  A    between atoms: N_4  and  C_14
REMARK    4  A    between atoms: N_7  and  C_23
REMARK    5  A    between atoms: N_8  and  C_27
REMARK    6  A    between atoms: C_10  and  C_15
REMARK    7  A    between atoms: C_14  and  C_16
REMARK    8  A    between atoms: C_19  and  C_22
REMARK    9  A    between atoms: C_27  and  C_30
REMARK   10  A    between atoms: C_29  and  C_31
REMARK                            x       y       z     vdW  Elec       q    Type
REMARK                         _______ _______ _______ _____ _____    ______ ____
ROOT
ATOM      4  N   UNL     1      18.938   8.653  21.410  0.00  0.00    -0.287 NA
ATOM     10  C   UNL     1      17.661   9.392  21.435  0.00  0.00    +0.146 C 
ATOM     11  C   UNL     1      18.028  10.824  21.003  0.00  0.00    +0.030 C 
ATOM     12  C   UNL     1      19.539  10.807  20.815  0.00  0.00    +0.017 C 
ATOM     13  C   UNL     1      19.991   9.637  21.665  0.00  0.00    +0.085 C 
ENDROOT
BRANCH  10  15
ATOM      1  O   UNL     1      16.829   7.483  20.155  0.00  0.00    -0.336 OA
ATOM      5  N   UNL     1      15.495   9.282  20.088  0.00  0.00    -0.190 NA
ATOM      6  N   UNL     1      15.737   7.128  19.353  0.00  0.00    -0.056 NA
ATOM     15  C   UNL     1      16.607   8.766  20.547  0.00  0.00    +0.245 A 
ATOM     19  C   UNL     1      14.994   8.240  19.361  0.00  0.00    +0.205 A 
BRANCH  19  22
ATOM      8  N   UNL     1      12.572   7.220  20.436  0.00  0.00    -0.326 N 
ATOM      9  N   UNL     1      11.371   7.933  18.526  0.00  0.00    -0.240 NA
ATOM     22  C   UNL     1      13.750   8.342  18.657  0.00  0.00    +0.062 A 
ATOM     24  C   UNL     1      12.559   7.851  19.166  0.00  0.00    +0.130 A 
ATOM     25  C   UNL     1      13.720   8.958  17.410  0.00  0.00    +0.016 A 
ATOM     26  C   UNL     1      12.516   9.062  16.721  0.00  0.00    +0.020 A 
ATOM     28  C   UNL     1      11.380   8.537  17.317  0.00  0.00    +0.113 A 
ATOM     34  H   UNL     1      13.337   7.472  21.052  0.00  0.00    +0.148 HD
BRANCH   8  27
ATOM     27  C   UNL     1      11.397   6.684  21.040  0.00  0.00    +0.131 C 
BRANCH  27  30
ATOM     30  C   UNL     1      10.851   7.659  22.070  0.00  0.00    +0.178 C 
BRANCH  30   2
ATOM      2  O   UNL     1      11.766   8.735  22.234  0.00  0.00    -0.381 OA
ATOM     32  C   UNL     1      11.111   9.912  22.689  0.00  0.00    +0.194 C 
ENDBRANCH  30   2
ENDBRANCH  27  30
ENDBRANCH   8  27
ENDBRANCH  19  22
ENDBRANCH  10  15
BRANCH   4  14
ATOM     14  C   UNL     1      18.981   7.546  22.357  0.00  0.00    +0.120 C 
BRANCH  14  16
ATOM     16  C   UNL     1      19.995   6.507  21.958  0.00  0.00    -0.033 A 
ATOM     17  C   UNL     1      19.951   5.942  20.683  0.00  0.00    +0.007 A 
ATOM     18  C   UNL     1      20.977   6.107  22.864  0.00  0.00    +0.007 A 
ATOM     20  C   UNL     1      20.890   4.979  20.314  0.00  0.00    +0.023 A 
ATOM     21  C   UNL     1      21.916   5.144  22.495  0.00  0.00    +0.023 A 
ATOM     23  C   UNL     1      21.872   4.579  21.219  0.00  0.00    +0.033 A 
BRANCH  23   7
ATOM      3  O   UNL     1      24.626   4.884  20.042  0.00  0.00    -0.276 OA
ATOM      7  N   UNL     1      22.810   3.616  20.851  0.00  0.00    -0.286 N 
ATOM     29  C   UNL     1      24.085   3.815  20.302  0.00  0.00    +0.214 C 
ATOM     31  C   UNL     1      24.792   2.509  20.042  0.00  0.00    +0.109 C 
ATOM     33  H   UNL     1      22.525   2.651  21.002  0.00  0.00    +0.155 HD
ENDBRANCH  23   7
ENDBRANCH  14  16
ENDBRANCH   4  14
TORSDOF 8
ENDMDL
MODEL 2
REMARK VINA RESULT:      -6.9     26.855     30.365
REMARK  Name = 45783397
REMARK  10 active torsions:
REMARK  status: ('A' for Active; 'I' for Inactive)
REMARK    1  A    between atoms: O_2  and  C_30
REMARK    2  A    between atoms: O_2  and  C_32
REMARK    3  A    between atoms: N_4  and  C_14
REMARK    4  A    between atoms: N_7  and  C_23
REMARK    5  A    between atoms: N_8  and  C_27
REMARK    6  A    between atoms: C_10  and  C_15
REMARK    7  A    between atoms: C_14  and  C_16
REMARK    8  A    between atoms: C_19  and  C_22
REMARK    9  A    between atoms: C_27  and  C_30
REMARK   10  A    between atoms: C_29  and  C_31
REMARK                            x       y       z     vdW  Elec       q    Type
REMARK                         _______ _______ _______ _____ _____    ______ ____
ROOT
ATOM      4  N   UNL     1      -3.163 -10.520  14.105  0.00  0.00    -0.287 NA
ATOM     10  C   UNL     1      -3.269 -11.175  15.424  0.00  0.00    +0.146 C 
ATOM     11  C   UNL     1      -2.014 -10.719  16.190  0.00  0.00    +0.030 C 
ATOM     12  C   UNL     1      -1.234  -9.862  15.202  0.00  0.00    +0.017 C 
ATOM     13  C   UNL     1      -1.734 -10.331  13.851  0.00  0.00    +0.085 C 
ENDROOT
BRANCH  10  15
ATOM      1  O   UNL     1      -5.045  -9.576  15.938  0.00  0.00    -0.336 OA
ATOM      5  N   UNL     1      -5.274 -11.558  16.957  0.00  0.00    -0.190 NA
ATOM      6  N   UNL     1      -6.217  -9.489  16.700  0.00  0.00    -0.056 NA
ATOM     15  C   UNL     1      -4.554 -10.826  16.146  0.00  0.00    +0.245 A 
ATOM     19  C   UNL     1      -6.285 -10.696  17.271  0.00  0.00    +0.205 A 
BRANCH  19  22
ATOM      8  N   UNL     1      -8.690  -9.197  17.452  0.00  0.00    -0.326 N 
ATOM      9  N   UNL     1      -9.546 -10.683  19.083  0.00  0.00    -0.240 NA
ATOM     22  C   UNL     1      -7.348 -11.072  18.157  0.00  0.00    +0.062 A 
ATOM     24  C   UNL     1      -8.528 -10.353  18.258  0.00  0.00    +0.130 A 
ATOM     25  C   UNL     1      -7.204 -12.203  18.954  0.00  0.00    +0.016 A 
ATOM     26  C   UNL     1      -8.232 -12.574  19.815  0.00  0.00    +0.020 A 
ATOM     28  C   UNL     1      -9.372 -11.788  19.842  0.00  0.00    +0.113 A 
ATOM     34  H   UNL     1      -8.126  -9.157  16.611  0.00  0.00    +0.148 HD
BRANCH   8  27
ATOM     27  C   UNL     1      -9.868  -8.395  17.489  0.00  0.00    +0.131 C 
BRANCH  27  30
ATOM     30  C   UNL     1     -10.312  -8.060  16.075  0.00  0.00    +0.178 C 
BRANCH  30   2
ATOM      2  O   UNL     1     -10.068  -6.684  15.815  0.00  0.00    -0.381 OA
ATOM     32  C   UNL     1     -11.280  -5.961  15.644  0.00  0.00    +0.194 C 
ENDBRANCH  30   2
ENDBRANCH  27  30
ENDBRANCH   8  27
ENDBRANCH  19  22
ENDBRANCH  10  15
BRANCH   4  14
ATOM     14  C   UNL     1      -3.816 -11.266  13.037  0.00  0.00    +0.120 C 
BRANCH  14  16
ATOM     16  C   UNL     1      -4.458 -10.353  12.027  0.00  0.00    -0.033 A 
ATOM     17  C   UNL     1      -5.602  -9.631  12.367  0.00  0.00    +0.007 A 
ATOM     18  C   UNL     1      -3.909 -10.230  10.751  0.00  0.00    +0.007 A 
ATOM     20  C   UNL     1      -6.198  -8.786  11.430  0.00  0.00    +0.023 A 
ATOM     21  C   UNL     1      -4.504  -9.385   9.814  0.00  0.00    +0.023 A 
ATOM     23  C   UNL     1      -5.649  -8.663  10.154  0.00  0.00    +0.033 A 
BRANCH  23   7
ATOM      3  O   UNL     1      -8.340  -8.820   8.813  0.00  0.00    -0.276 OA
ATOM      7  N   UNL     1      -6.244  -7.818   9.218  0.00  0.00    -0.286 N 
ATOM     29  C   UNL     1      -7.507  -7.940   8.622  0.00  0.00    +0.214 C 
ATOM     31  C   UNL     1      -7.781  -6.815   7.656  0.00  0.00    +0.109 C 
ATOM     33  H   UNL     1      -5.684  -7.015   8.938  0.00  0.00    +0.155 HD
ENDBRANCH  23   7
ENDBRANCH  14  16
ENDBRANCH   4  14
TORSDOF 8
ENDMDL
MODEL 3
REMARK VINA RESULT:      -6.9     17.366     21.489
REMARK  Name = 45783397
REMARK  10 active torsions:
REMARK  status: ('A' for Active; 'I' for Inactive)
REMARK    1  A    between atoms: O_2  and  C_30
REMARK    2  A    between atoms: O_2  and  C_32
REMARK    3  A    between atoms: N_4  and  C_14
REMARK    4  A    between atoms: N_7  and  C_23
REMARK    5  A    between atoms: N_8  and  C_27
REMARK    6  A    between atoms: C_10  and  C_15
REMARK    7  A    between atoms: C_14  and  C_16
REMARK    8  A    between atoms: C_19  and  C_22
REMARK    9  A    between atoms: C_27  and  C_30
REMARK   10  A    between atoms: C_29  and  C_31
REMARK                            x       y       z     vdW  Elec       q    Type
REMARK                         _______ _______ _______ _____ _____    ______ ____
ROOT
ATOM      4  N   UNL     1      13.262   4.183  -0.282  0.00  0.00    -0.287 NA
ATOM     10  C   UNL     1      13.558   4.051   1.159  0.00  0.00    +0.146 C 
ATOM     11  C   UNL     1      14.796   4.938   1.387  0.00  0.00    +0.030 C 
ATOM     12  C   UNL     1      15.158   5.477   0.010  0.00  0.00    +0.017 C 
ATOM     13  C   UNL     1      14.536   4.474  -0.941  0.00  0.00    +0.085 C 
ENDROOT
BRANCH  10  15
ATOM      1  O   UNL     1      11.651   3.430   2.556  0.00  0.00    -0.336 OA
ATOM      5  N   UNL     1      11.965   5.640   2.365  0.00  0.00    -0.190 NA
ATOM      6  N   UNL     1      10.640   4.034   3.314  0.00  0.00    -0.056 NA
ATOM     15  C   UNL     1      12.387   4.446   2.033  0.00  0.00    +0.245 A 
ATOM     19  C   UNL     1      10.892   5.337   3.152  0.00  0.00    +0.205 A 
BRANCH  19  22
ATOM      8  N   UNL     1      10.783   5.675   5.969  0.00  0.00    -0.326 N 
ATOM      9  N   UNL     1       9.286   7.492   5.739  0.00  0.00    -0.240 NA
ATOM     22  C   UNL     1      10.093   6.359   3.763  0.00  0.00    +0.062 A 
ATOM     24  C   UNL     1      10.029   6.538   5.135  0.00  0.00    +0.130 A 
ATOM     25  C   UNL     1       9.347   7.214   2.959  0.00  0.00    +0.016 A 
ATOM     26  C   UNL     1       8.571   8.209   3.544  0.00  0.00    +0.020 A 
ATOM     28  C   UNL     1       8.574   8.305   4.926  0.00  0.00    +0.113 A 
ATOM     34  H   UNL     1      11.585   5.228   5.540  0.00  0.00    +0.148 HD
BRANCH   8  27
ATOM     27  C   UNL     1      10.779   5.783   7.391  0.00  0.00    +0.131 C 
BRANCH  27  30
ATOM     30  C   UNL     1       9.814   4.772   7.986  0.00  0.00    +0.178 C 
BRANCH  30   2
ATOM      2  O   UNL     1      10.165   4.523   9.342  0.00  0.00    -0.381 OA
ATOM     32  C   UNL     1       9.031   4.594  10.196  0.00  0.00    +0.194 C 
ENDBRANCH  30   2
ENDBRANCH  27  30
ENDBRANCH   8  27
ENDBRANCH  19  22
ENDBRANCH  10  15
BRANCH   4  14
ATOM     14  C   UNL     1      12.610   3.007  -0.845  0.00  0.00    +0.120 C 
BRANCH  14  16
ATOM     16  C   UNL     1      11.478   3.381  -1.764  0.00  0.00    -0.033 A 
ATOM     17  C   UNL     1      11.112   2.525  -2.803  0.00  0.00    +0.007 A 
ATOM     18  C   UNL     1      10.795   4.582  -1.577  0.00  0.00    +0.007 A 
ATOM     20  C   UNL     1      10.064   2.871  -3.656  0.00  0.00    +0.023 A 
ATOM     21  C   UNL     1       9.747   4.929  -2.430  0.00  0.00    +0.023 A 
ATOM     23  C   UNL     1       9.381   4.073  -3.469  0.00  0.00    +0.033 A 
BRANCH  23   7
ATOM      3  O   UNL     1       9.321   5.932  -5.837  0.00  0.00    -0.276 OA
ATOM      7  N   UNL     1       8.333   4.419  -4.322  0.00  0.00    -0.286 N 
ATOM     29  C   UNL     1       8.361   5.297  -5.414  0.00  0.00    +0.214 C 
ATOM     31  C   UNL     1       7.012   5.401  -6.082  0.00  0.00    +0.109 C 
ATOM     33  H   UNL     1       7.441   3.975  -4.116  0.00  0.00    +0.155 HD
ENDBRANCH  23   7
ENDBRANCH  14  16
ENDBRANCH   4  14
TORSDOF 8
ENDMDL
MODEL 4
REMARK VINA RESULT:      -6.5     27.002     30.637
REMARK  Name = 45783397
REMARK  10 active torsions:
REMARK  status: ('A' for Active; 'I' for Inactive)
REMARK    1  A    between atoms: O_2  and  C_30
REMARK    2  A    between atoms: O_2  and  C_32
REMARK    3  A    between atoms: N_4  and  C_14
REMARK    4  A    between atoms: N_7  and  C_23
REMARK    5  A    between atoms: N_8  and  C_27
REMARK    6  A    between atoms: C_10  and  C_15
REMARK    7  A    between atoms: C_14  and  C_16
REMARK    8  A    between atoms: C_19  and  C_22
REMARK    9  A    between atoms: C_27  and  C_30
REMARK   10  A    between atoms: C_29  and  C_31
REMARK                            x       y       z     vdW  Elec       q    Type
REMARK                         _______ _______ _______ _____ _____    ______ ____
ROOT
ATOM      4  N   UNL     1      -2.878 -10.416  13.733  0.00  0.00    -0.287 NA
ATOM     10  C   UNL     1      -3.222 -11.256  14.898  0.00  0.00    +0.146 C 
ATOM     11  C   UNL     1      -2.248 -10.809  16.004  0.00  0.00    +0.030 C 
ATOM     12  C   UNL     1      -1.359  -9.759  15.351  0.00  0.00    +0.017 C 
ATOM     13  C   UNL     1      -1.462 -10.076  13.872  0.00  0.00    +0.085 C 
ENDROOT
BRANCH  10  15
ATOM      1  O   UNL     1      -5.276 -12.241  15.784  0.00  0.00    -0.336 OA
ATOM      5  N   UNL     1      -5.451 -10.068  15.267  0.00  0.00    -0.190 NA
ATOM      6  N   UNL     1      -6.593 -11.873  16.089  0.00  0.00    -0.056 NA
ATOM     15  C   UNL     1      -4.673 -11.120  15.307  0.00  0.00    +0.245 A 
ATOM     19  C   UNL     1      -6.619 -10.578  15.758  0.00  0.00    +0.205 A 
BRANCH  19  22
ATOM      8  N   UNL     1      -8.497 -10.258  13.653  0.00  0.00    -0.326 N 
ATOM      9  N   UNL     1      -9.833  -8.843  14.999  0.00  0.00    -0.240 NA
ATOM     22  C   UNL     1      -7.792  -9.767  15.905  0.00  0.00    +0.062 A 
ATOM     24  C   UNL     1      -8.719  -9.600  14.889  0.00  0.00    +0.130 A 
ATOM     25  C   UNL     1      -8.024  -9.116  17.112  0.00  0.00    +0.016 A 
ATOM     26  C   UNL     1      -9.161  -8.328  17.262  0.00  0.00    +0.020 A 
ATOM     28  C   UNL     1     -10.026  -8.225  16.186  0.00  0.00    +0.113 A 
ATOM     34  H   UNL     1      -7.900 -11.076  13.682  0.00  0.00    +0.148 HD
BRANCH   8  27
ATOM     27  C   UNL     1      -9.395 -10.145  12.550  0.00  0.00    +0.131 C 
BRANCH  27  30
ATOM     30  C   UNL     1      -8.926 -11.027  11.406  0.00  0.00    +0.178 C 
BRANCH  30   2
ATOM      2  O   UNL     1     -10.012 -11.274  10.522  0.00  0.00    -0.381 OA
ATOM     32  C   UNL     1     -11.110 -11.871  11.199  0.00  0.00    +0.194 C 
ENDBRANCH  30   2
ENDBRANCH  27  30
ENDBRANCH   8  27
ENDBRANCH  19  22
ENDBRANCH  10  15
BRANCH   4  14
ATOM     14  C   UNL     1      -3.165 -11.058  12.457  0.00  0.00    +0.120 C 
BRANCH  14  16
ATOM     16  C   UNL     1      -3.968 -10.166  11.549  0.00  0.00    -0.033 A 
ATOM     17  C   UNL     1      -3.461  -9.803  10.301  0.00  0.00    +0.007 A 
ATOM     18  C   UNL     1      -5.219  -9.701  11.955  0.00  0.00    +0.007 A 
ATOM     20  C   UNL     1      -4.204  -8.975   9.459  0.00  0.00    +0.023 A 
ATOM     21  C   UNL     1      -5.962  -8.873  11.114  0.00  0.00    +0.023 A 
ATOM     23  C   UNL     1      -5.455  -8.510   9.866  0.00  0.00    +0.033 A 
BRANCH  23   7
ATOM      3  O   UNL     1      -8.132  -8.949   8.559  0.00  0.00    -0.276 OA
ATOM      7  N   UNL     1      -6.198  -7.682   9.024  0.00  0.00    -0.286 N 
ATOM     29  C   UNL     1      -7.446  -7.939   8.440  0.00  0.00    +0.214 C 
ATOM     31  C   UNL     1      -7.915  -6.784   7.591  0.00  0.00    +0.109 C 
ATOM     33  H   UNL     1      -5.773  -6.782   8.814  0.00  0.00    +0.155 HD
ENDBRANCH  23   7
ENDBRANCH  14  16
ENDBRANCH   4  14
TORSDOF 8
ENDMDL
MODEL 5
REMARK VINA RESULT:      -6.5     26.750     30.581
REMARK  Name = 45783397
REMARK  10 active torsions:
REMARK  status: ('A' for Active; 'I' for Inactive)
REMARK    1  A    between atoms: O_2  and  C_30
REMARK    2  A    between atoms: O_2  and  C_32
REMARK    3  A    between atoms: N_4  and  C_14
REMARK    4  A    between atoms: N_7  and  C_23
REMARK    5  A    between atoms: N_8  and  C_27
REMARK    6  A    between atoms: C_10  and  C_15
REMARK    7  A    between atoms: C_14  and  C_16
REMARK    8  A    between atoms: C_19  and  C_22
REMARK    9  A    between atoms: C_27  and  C_30
REMARK   10  A    between atoms: C_29  and  C_31
REMARK                            x       y       z     vdW  Elec       q    Type
REMARK                         _______ _______ _______ _____ _____    ______ ____
ROOT
ATOM      4  N   UNL     1      -3.103 -10.546  14.165  0.00  0.00    -0.287 NA
ATOM     10  C   UNL     1      -2.988 -11.229  15.469  0.00  0.00    +0.146 C 
ATOM     11  C   UNL     1      -1.676 -10.696  16.075  0.00  0.00    +0.030 C 
ATOM     12  C   UNL     1      -1.096  -9.768  15.016  0.00  0.00    +0.017 C 
ATOM     13  C   UNL     1      -1.737 -10.250  13.730  0.00  0.00    +0.085 C 
ENDROOT
BRANCH  10  15
ATOM      1  O   UNL     1      -3.983 -11.123  17.699  0.00  0.00    -0.336 OA
ATOM      5  N   UNL     1      -5.411 -10.660  16.037  0.00  0.00    -0.190 NA
ATOM      6  N   UNL     1      -5.215 -10.854  18.308  0.00  0.00    -0.056 NA
ATOM     15  C   UNL     1      -4.186 -10.985  16.362  0.00  0.00    +0.245 A 
ATOM     19  C   UNL     1      -6.006 -10.590  17.263  0.00  0.00    +0.205 A 
BRANCH  19  22
ATOM      8  N   UNL     1      -7.891 -12.415  18.347  0.00  0.00    -0.326 N 
ATOM      9  N   UNL     1      -9.636 -10.839  18.088  0.00  0.00    -0.240 NA
ATOM     22  C   UNL     1      -7.391 -10.251  17.410  0.00  0.00    +0.062 A 
ATOM     24  C   UNL     1      -8.324 -11.129  17.938  0.00  0.00    +0.130 A 
ATOM     25  C   UNL     1      -7.832  -8.993  17.013  0.00  0.00    +0.016 A 
ATOM     26  C   UNL     1      -9.175  -8.658  17.154  0.00  0.00    +0.020 A 
ATOM     28  C   UNL     1     -10.029  -9.607  17.692  0.00  0.00    +0.113 A 
ATOM     34  H   UNL     1      -6.907 -12.504  18.574  0.00  0.00    +0.148 HD
BRANCH   8  27
ATOM     27  C   UNL     1      -8.778 -13.386  18.900  0.00  0.00    +0.131 C 
BRANCH  27  30
ATOM     30  C   UNL     1      -8.582 -13.471  20.404  0.00  0.00    +0.178 C 
BRANCH  30   2
ATOM      2  O   UNL     1      -9.764 -13.981  21.008  0.00  0.00    -0.381 OA
ATOM     32  C   UNL     1      -9.501 -15.161  21.756  0.00  0.00    +0.194 C 
ENDBRANCH  30   2
ENDBRANCH  27  30
ENDBRANCH   8  27
ENDBRANCH  19  22
ENDBRANCH  10  15
BRANCH   4  14
ATOM     14  C   UNL     1      -3.839 -11.320  13.173  0.00  0.00    +0.120 C 
BRANCH  14  16
ATOM     16  C   UNL     1      -4.477 -10.437  12.134  0.00  0.00    -0.033 A 
ATOM     17  C   UNL     1      -5.550  -9.615  12.480  0.00  0.00    +0.007 A 
ATOM     18  C   UNL     1      -3.996 -10.441  10.825  0.00  0.00    +0.007 A 
ATOM     20  C   UNL     1      -6.142  -8.798  11.517  0.00  0.00    +0.023 A 
ATOM     21  C   UNL     1      -4.588  -9.624   9.862  0.00  0.00    +0.023 A 
ATOM     23  C   UNL     1      -5.661  -8.802  10.208  0.00  0.00    +0.033 A 
BRANCH  23   7
ATOM      3  O   UNL     1      -8.510  -8.666   9.245  0.00  0.00    -0.276 OA
ATOM      7  N   UNL     1      -6.253  -7.985   9.245  0.00  0.00    -0.286 N 
ATOM     29  C   UNL     1      -7.592  -7.965   8.833  0.00  0.00    +0.214 C 
ATOM     31  C   UNL     1      -7.832  -6.930   7.762  0.00  0.00    +0.109 C 
ATOM     33  H   UNL     1      -5.626  -7.324   8.791  0.00  0.00    +0.155 HD
ENDBRANCH  23   7
ENDBRANCH  14  16
ENDBRANCH   4  14
TORSDOF 8
ENDMDL
MODEL 6
REMARK VINA RESULT:      -6.5     14.814     19.126
REMARK  Name = 45783397
REMARK  10 active torsions:
REMARK  status: ('A' for Active; 'I' for Inactive)
REMARK    1  A    between atoms: O_2  and  C_30
REMARK    2  A    between atoms: O_2  and  C_32
REMARK    3  A    between atoms: N_4  and  C_14
REMARK    4  A    between atoms: N_7  and  C_23
REMARK    5  A    between atoms: N_8  and  C_27
REMARK    6  A    between atoms: C_10  and  C_15
REMARK    7  A    between atoms: C_14  and  C_16
REMARK    8  A    between atoms: C_19  and  C_22
REMARK    9  A    between atoms: C_27  and  C_30
REMARK   10  A    between atoms: C_29  and  C_31
REMARK                            x       y       z     vdW  Elec       q    Type
REMARK                         _______ _______ _______ _____ _____    ______ ____
ROOT
ATOM      4  N   UNL     1      10.181   6.483   5.352  0.00  0.00    -0.287 NA
ATOM     10  C   UNL     1      10.839   7.356   6.345  0.00  0.00    +0.146 C 
ATOM     11  C   UNL     1      10.335   6.847   7.708  0.00  0.00    +0.030 C 
ATOM     12  C   UNL     1       9.354   5.730   7.378  0.00  0.00    +0.017 C 
ATOM     13  C   UNL     1       8.925   6.041   5.959  0.00  0.00    +0.085 C 
ENDROOT
BRANCH  10  15
ATOM      1  O   UNL     1      13.012   6.575   7.149  0.00  0.00    -0.336 OA
ATOM      5  N   UNL     1      13.128   7.938   5.375  0.00  0.00    -0.190 NA
ATOM      6  N   UNL     1      14.373   6.708   6.849  0.00  0.00    -0.056 NA
ATOM     15  C   UNL     1      12.349   7.330   6.233  0.00  0.00    +0.245 A 
ATOM     19  C   UNL     1      14.361   7.526   5.791  0.00  0.00    +0.205 A 
BRANCH  19  22
ATOM      8  N   UNL     1      14.653   7.368   2.972  0.00  0.00    -0.326 N 
ATOM      9  N   UNL     1      16.837   8.269   3.102  0.00  0.00    -0.240 NA
ATOM     22  C   UNL     1      15.560   7.948   5.129  0.00  0.00    +0.062 A 
ATOM     24  C   UNL     1      15.719   7.879   3.754  0.00  0.00    +0.130 A 
ATOM     25  C   UNL     1      16.615   8.452   5.882  0.00  0.00    +0.016 A 
ATOM     26  C   UNL     1      17.781   8.865   5.246  0.00  0.00    +0.020 A 
ATOM     28  C   UNL     1      17.842   8.753   3.867  0.00  0.00    +0.113 A 
ATOM     34  H   UNL     1      13.730   7.421   3.386  0.00  0.00    +0.148 HD
BRANCH   8  27
ATOM     27  C   UNL     1      14.727   7.258   1.551  0.00  0.00    +0.131 C 
BRANCH  27  30
ATOM     30  C   UNL     1      15.100   5.839   1.159  0.00  0.00    +0.178 C 
BRANCH  30   2
ATOM      2  O   UNL     1      14.599   4.931   2.132  0.00  0.00    -0.381 OA
ATOM     32  C   UNL     1      14.754   3.581   1.716  0.00  0.00    +0.194 C 
ENDBRANCH  30   2
ENDBRANCH  27  30
ENDBRANCH   8  27
ENDBRANCH  19  22
ENDBRANCH  10  15
BRANCH   4  14
ATOM     14  C   UNL     1       9.969   7.133   4.065  0.00  0.00    +0.120 C 
BRANCH  14  16
ATOM     16  C   UNL     1      10.222   6.195   2.915  0.00  0.00    -0.033 A 
ATOM     17  C   UNL     1       9.819   6.548   1.627  0.00  0.00    +0.007 A 
ATOM     18  C   UNL     1      10.857   4.974   3.137  0.00  0.00    +0.007 A 
ATOM     20  C   UNL     1      10.051   5.679   0.561  0.00  0.00    +0.023 A 
ATOM     21  C   UNL     1      11.089   4.105   2.071  0.00  0.00    +0.023 A 
ATOM     23  C   UNL     1      10.686   4.458   0.783  0.00  0.00    +0.033 A 
BRANCH  23   7
ATOM      3  O   UNL     1      12.960   4.346  -1.187  0.00  0.00    -0.276 OA
ATOM      7  N   UNL     1      10.919   3.588  -0.283  0.00  0.00    -0.286 N 
ATOM     29  C   UNL     1      12.000   3.582  -1.174  0.00  0.00    +0.214 C 
ATOM     31  C   UNL     1      11.881   2.475  -2.191  0.00  0.00    +0.109 C 
ATOM     33  H   UNL     1      10.208   2.872  -0.423  0.00  0.00    +0.155 HD
ENDBRANCH  23   7
ENDBRANCH  14  16
ENDBRANCH   4  14
TORSDOF 8
ENDMDL
MODEL 7
REMARK VINA RESULT:      -6.5     29.351     34.357
REMARK  Name = 45783397
REMARK  10 active torsions:
REMARK  status: ('A' for Active; 'I' for Inactive)
REMARK    1  A    between atoms: O_2  and  C_30
REMARK    2  A    between atoms: O_2  and  C_32
REMARK    3  A    between atoms: N_4  and  C_14
REMARK    4  A    between atoms: N_7  and  C_23
REMARK    5  A    between atoms: N_8  and  C_27
REMARK    6  A    between atoms: C_10  and  C_15
REMARK    7  A    between atoms: C_14  and  C_16
REMARK    8  A    between atoms: C_19  and  C_22
REMARK    9  A    between atoms: C_27  and  C_30
REMARK   10  A    between atoms: C_29  and  C_31
REMARK                            x       y       z     vdW  Elec       q    Type
REMARK                         _______ _______ _______ _____ _____    ______ ____
ROOT
ATOM      4  N   UNL     1     -17.464   2.532  24.245  0.00  0.00    -0.287 NA
ATOM     10  C   UNL     1     -18.144   2.132  25.494  0.00  0.00    +0.146 C 
ATOM     11  C   UNL     1     -18.556   0.666  25.263  0.00  0.00    +0.030 C 
ATOM     12  C   UNL     1     -18.120   0.350  23.838  0.00  0.00    +0.017 C 
ATOM     13  C   UNL     1     -18.042   1.712  23.179  0.00  0.00    +0.085 C 
ENDROOT
BRANCH  10  15
ATOM      1  O   UNL     1     -16.556   3.462  26.791  0.00  0.00    -0.336 OA
ATOM      5  N   UNL     1     -17.086   1.498  27.730  0.00  0.00    -0.190 NA
ATOM      6  N   UNL     1     -15.832   3.395  27.988  0.00  0.00    -0.056 NA
ATOM     15  C   UNL     1     -17.268   2.307  26.716  0.00  0.00    +0.245 A 
ATOM     19  C   UNL     1     -16.199   2.209  28.485  0.00  0.00    +0.205 A 
BRANCH  19  22
ATOM      8  N   UNL     1     -16.142   3.803  30.834  0.00  0.00    -0.326 N 
ATOM      9  N   UNL     1     -15.197   2.023  32.074  0.00  0.00    -0.240 NA
ATOM     22  C   UNL     1     -15.698   1.706  29.731  0.00  0.00    +0.062 A 
ATOM     24  C   UNL     1     -15.663   2.469  30.886  0.00  0.00    +0.130 A 
ATOM     25  C   UNL     1     -15.225   0.400  29.799  0.00  0.00    +0.016 A 
ATOM     26  C   UNL     1     -14.738  -0.095  31.004  0.00  0.00    +0.020 A 
ATOM     28  C   UNL     1     -14.746   0.749  32.102  0.00  0.00    +0.113 A 
ATOM     34  H   UNL     1     -16.799   4.013  30.091  0.00  0.00    +0.148 HD
BRANCH   8  27
ATOM     27  C   UNL     1     -16.145   4.664  31.971  0.00  0.00    +0.131 C 
BRANCH  27  30
ATOM     30  C   UNL     1     -14.986   5.643  31.884  0.00  0.00    +0.178 C 
BRANCH  30   2
ATOM      2  O   UNL     1     -13.937   5.213  32.742  0.00  0.00    -0.381 OA
ATOM     32  C   UNL     1     -14.414   4.941  34.053  0.00  0.00    +0.194 C 
ENDBRANCH  30   2
ENDBRANCH  27  30
ENDBRANCH   8  27
ENDBRANCH  19  22
ENDBRANCH  10  15
BRANCH   4  14
ATOM     14  C   UNL     1     -17.574   3.957  23.962  0.00  0.00    +0.120 C 
BRANCH  14  16
ATOM     16  C   UNL     1     -16.352   4.484  23.259  0.00  0.00    -0.033 A 
ATOM     17  C   UNL     1     -16.471   5.067  21.996  0.00  0.00    +0.007 A 
ATOM     18  C   UNL     1     -15.101   4.390  23.868  0.00  0.00    +0.007 A 
ATOM     20  C   UNL     1     -15.339   5.554  21.344  0.00  0.00    +0.023 A 
ATOM     21  C   UNL     1     -13.969   4.878  23.216  0.00  0.00    +0.023 A 
ATOM     23  C   UNL     1     -14.088   5.460  21.953  0.00  0.00    +0.033 A 
BRANCH  23   7
ATOM      3  O   UNL     1     -13.195   8.289  21.439  0.00  0.00    -0.276 OA
ATOM      7  N   UNL     1     -12.956   5.948  21.301  0.00  0.00    -0.286 N 
ATOM     29  C   UNL     1     -12.588   7.284  21.088  0.00  0.00    +0.214 C 
ATOM     31  C   UNL     1     -11.285   7.392  20.337  0.00  0.00    +0.109 C 
ATOM     33  H   UNL     1     -12.323   5.237  20.938  0.00  0.00    +0.155 HD
ENDBRANCH  23   7
ENDBRANCH  14  16
ENDBRANCH   4  14
TORSDOF 8
ENDMDL
MODEL 8
REMARK VINA RESULT:      -6.4     29.571     34.583
REMARK  Name = 45783397
REMARK  10 active torsions:
REMARK  status: ('A' for Active; 'I' for Inactive)
REMARK    1  A    between atoms: O_2  and  C_30
REMARK    2  A    between atoms: O_2  and  C_32
REMARK    3  A    between atoms: N_4  and  C_14
REMARK    4  A    between atoms: N_7  and  C_23
REMARK    5  A    between atoms: N_8  and  C_27
REMARK    6  A    between atoms: C_10  and  C_15
REMARK    7  A    between atoms: C_14  and  C_16
REMARK    8  A    between atoms: C_19  and  C_22
REMARK    9  A    between atoms: C_27  and  C_30
REMARK   10  A    between atoms: C_29  and  C_31
REMARK                            x       y       z     vdW  Elec       q    Type
REMARK                         _______ _______ _______ _____ _____    ______ ____
ROOT
ATOM      4  N   UNL     1     -17.479   2.743  25.203  0.00  0.00    -0.287 NA
ATOM     10  C   UNL     1     -18.502   2.413  26.216  0.00  0.00    +0.146 C 
ATOM     11  C   UNL     1     -18.590   0.876  26.199  0.00  0.00    +0.030 C 
ATOM     12  C   UNL     1     -17.625   0.435  25.106  0.00  0.00    +0.017 C 
ATOM     13  C   UNL     1     -17.506   1.659  24.220  0.00  0.00    +0.085 C 
ENDROOT
BRANCH  10  15
ATOM      1  O   UNL     1     -19.206   3.139  28.441  0.00  0.00    -0.336 OA
ATOM      5  N   UNL     1     -17.003   3.309  28.078  0.00  0.00    -0.190 NA
ATOM      6  N   UNL     1     -18.656   3.652  29.622  0.00  0.00    -0.056 NA
ATOM     15  C   UNL     1     -18.165   2.965  27.585  0.00  0.00    +0.245 A 
ATOM     19  C   UNL     1     -17.353   3.723  29.330  0.00  0.00    +0.205 A 
BRANCH  19  22
ATOM      8  N   UNL     1     -15.346   2.028  30.406  0.00  0.00    -0.326 N 
ATOM      9  N   UNL     1     -14.459   3.812  31.684  0.00  0.00    -0.240 NA
ATOM     22  C   UNL     1     -16.378   4.202  30.266  0.00  0.00    +0.062 A 
ATOM     24  C   UNL     1     -15.391   3.390  30.800  0.00  0.00    +0.130 A 
ATOM     25  C   UNL     1     -16.409   5.535  30.662  0.00  0.00    +0.016 A 
ATOM     26  C   UNL     1     -15.466   6.007  31.569  0.00  0.00    +0.020 A 
ATOM     28  C   UNL     1     -14.521   5.114  32.046  0.00  0.00    +0.113 A 
ATOM     34  H   UNL     1     -15.777   1.806  29.517  0.00  0.00    +0.148 HD
BRANCH   8  27
ATOM     27  C   UNL     1     -14.368   1.117  30.904  0.00  0.00    +0.131 C 
BRANCH  27  30
ATOM     30  C   UNL     1     -14.977  -0.267  31.054  0.00  0.00    +0.178 C 
BRANCH  30   2
ATOM      2  O   UNL     1     -14.760  -1.011  29.862  0.00  0.00    -0.381 OA
ATOM     32  C   UNL     1     -13.415  -0.902  29.416  0.00  0.00    +0.194 C 
ENDBRANCH  30   2
ENDBRANCH  27  30
ENDBRANCH   8  27
ENDBRANCH  19  22
ENDBRANCH  10  15
BRANCH   4  14
ATOM     14  C   UNL     1     -17.679   4.048  24.586  0.00  0.00    +0.120 C 
BRANCH  14  16
ATOM     16  C   UNL     1     -16.485   4.473  23.774  0.00  0.00    -0.033 A 
ATOM     17  C   UNL     1     -15.204   4.384  24.319  0.00  0.00    +0.007 A 
ATOM     18  C   UNL     1     -16.659   4.955  22.477  0.00  0.00    +0.007 A 
ATOM     20  C   UNL     1     -14.097   4.779  23.567  0.00  0.00    +0.023 A 
ATOM     21  C   UNL     1     -15.553   5.350  21.725  0.00  0.00    +0.023 A 
ATOM     23  C   UNL     1     -14.271   5.262  22.271  0.00  0.00    +0.033 A 
BRANCH  23   7
ATOM      3  O   UNL     1     -13.338   8.007  21.461  0.00  0.00    -0.276 OA
ATOM      7  N   UNL     1     -13.165   5.656  21.519  0.00  0.00    -0.286 N 
ATOM     29  C   UNL     1     -12.776   6.957  21.168  0.00  0.00    +0.214 C 
ATOM     31  C   UNL     1     -11.514   6.960  20.344  0.00  0.00    +0.109 C 
ATOM     33  H   UNL     1     -12.572   4.898  21.187  0.00  0.00    +0.155 HD
ENDBRANCH  23   7
ENDBRANCH  14  16
ENDBRANCH   4  14
TORSDOF 8
ENDMDL
MODEL 9
REMARK VINA RESULT:      -6.4     27.122     31.553
REMARK  Name = 45783397
REMARK  10 active torsions:
REMARK  status: ('A' for Active; 'I' for Inactive)
REMARK    1  A    between atoms: O_2  and  C_30
REMARK    2  A    between atoms: O_2  and  C_32
REMARK    3  A    between atoms: N_4  and  C_14
REMARK    4  A    between atoms: N_7  and  C_23
REMARK    5  A    between atoms: N_8  and  C_27
REMARK    6  A    between atoms: C_10  and  C_15
REMARK    7  A    between atoms: C_14  and  C_16
REMARK    8  A    between atoms: C_19  and  C_22
REMARK    9  A    between atoms: C_27  and  C_30
REMARK   10  A    between atoms: C_29  and  C_31
REMARK                            x       y       z     vdW  Elec       q    Type
REMARK                         _______ _______ _______ _____ _____    ______ ____
ROOT
ATOM      4  N   UNL     1      -8.584 -10.217  17.804  0.00  0.00    -0.287 NA
ATOM     10  C   UNL     1      -7.449 -10.696  18.617  0.00  0.00    +0.146 C 
ATOM     11  C   UNL     1      -8.018 -11.873  19.430  0.00  0.00    +0.030 C 
ATOM     12  C   UNL     1      -9.492 -11.941  19.053  0.00  0.00    +0.017 C 
ATOM     13  C   UNL     1      -9.797 -10.542  18.556  0.00  0.00    +0.085 C 
ENDROOT
BRANCH  10  15
ATOM      1  O   UNL     1      -6.011 -12.423  17.655  0.00  0.00    -0.336 OA
ATOM      5  N   UNL     1      -5.403 -10.331  17.133  0.00  0.00    -0.190 NA
ATOM      6  N   UNL     1      -4.875 -12.539  16.844  0.00  0.00    -0.056 NA
ATOM     15  C   UNL     1      -6.255 -11.092  17.774  0.00  0.00    +0.245 A 
ATOM     19  C   UNL     1      -4.576 -11.263  16.577  0.00  0.00    +0.205 A 
BRANCH  19  22
ATOM      8  N   UNL     1      -4.856 -10.762  13.796  0.00  0.00    -0.326 N 
ATOM      9  N   UNL     1      -2.547 -10.283  13.603  0.00  0.00    -0.240 NA
ATOM     22  C   UNL     1      -3.461 -10.888  15.758  0.00  0.00    +0.062 A 
ATOM     24  C   UNL     1      -3.580 -10.639  14.400  0.00  0.00    +0.130 A 
ATOM     25  C   UNL     1      -2.202 -10.763  16.335  0.00  0.00    +0.016 A 
ATOM     26  C   UNL     1      -1.115 -10.398  15.547  0.00  0.00    +0.020 A 
ATOM     28  C   UNL     1      -1.338 -10.172  14.199  0.00  0.00    +0.113 A 
ATOM     34  H   UNL     1      -5.654 -10.667  14.414  0.00  0.00    +0.148 HD
BRANCH   8  27
ATOM     27  C   UNL     1      -5.075 -10.527  12.406  0.00  0.00    +0.131 C 
BRANCH  27  30
ATOM     30  C   UNL     1      -6.501 -10.057  12.177  0.00  0.00    +0.178 C 
BRANCH  30   2
ATOM      2  O   UNL     1      -6.513  -9.049  11.174  0.00  0.00    -0.381 OA
ATOM     32  C   UNL     1      -5.203  -8.570  10.901  0.00  0.00    +0.194 C 
ENDBRANCH  30   2
ENDBRANCH  27  30
ENDBRANCH   8  27
ENDBRANCH  19  22
ENDBRANCH  10  15
BRANCH   4  14
ATOM     14  C   UNL     1      -8.503  -8.798  17.483  0.00  0.00    +0.120 C 
BRANCH  14  16
ATOM     16  C   UNL     1      -9.633  -8.360  16.589  0.00  0.00    -0.033 A 
ATOM     17  C   UNL     1      -9.780  -8.928  15.322  0.00  0.00    +0.007 A 
ATOM     18  C   UNL     1     -10.531  -7.388  17.026  0.00  0.00    +0.007 A 
ATOM     20  C   UNL     1     -10.826  -8.522  14.494  0.00  0.00    +0.023 A 
ATOM     21  C   UNL     1     -11.577  -6.981  16.197  0.00  0.00    +0.023 A 
ATOM     23  C   UNL     1     -11.724  -7.549  14.931  0.00  0.00    +0.033 A 
BRANCH  23   7
ATOM      3  O   UNL     1     -12.044  -5.062  13.265  0.00  0.00    -0.276 OA
ATOM      7  N   UNL     1     -12.770  -7.143  14.102  0.00  0.00    -0.286 N 
ATOM     29  C   UNL     1     -12.868  -5.967  13.346  0.00  0.00    +0.214 C 
ATOM     31  C   UNL     1     -14.165  -5.901  12.579  0.00  0.00    +0.109 C 
ATOM     33  H   UNL     1     -13.556  -7.788  14.046  0.00  0.00    +0.155 HD
ENDBRANCH  23   7
ENDBRANCH  14  16
ENDBRANCH   4  14
TORSDOF 8
ENDMDL
MODEL 10
REMARK VINA RESULT:      -6.3     12.473     16.658
REMARK  Name = 45783397
REMARK  10 active torsions:
REMARK  status: ('A' for Active; 'I' for Inactive)
REMARK    1  A    between atoms: O_2  and  C_30
REMARK    2  A    between atoms: O_2  and  C_32
REMARK    3  A    between atoms: N_4  and  C_14
REMARK    4  A    between atoms: N_7  and  C_23
REMARK    5  A    between atoms: N_8  and  C_27
REMARK    6  A    between atoms: C_10  and  C_15
REMARK    7  A    between atoms: C_14  and  C_16
REMARK    8  A    between atoms: C_19  and  C_22
REMARK    9  A    between atoms: C_27  and  C_30
REMARK   10  A    between atoms: C_29  and  C_31
REMARK                            x       y       z     vdW  Elec       q    Type
REMARK                         _______ _______ _______ _____ _____    ______ ____
ROOT
ATOM      4  N   UNL     1       9.966   5.301   6.322  0.00  0.00    -0.287 NA
ATOM     10  C   UNL     1       9.377   6.392   7.124  0.00  0.00    +0.146 C 
ATOM     11  C   UNL     1       9.383   5.862   8.570  0.00  0.00    +0.030 C 
ATOM     12  C   UNL     1       9.936   4.447   8.473  0.00  0.00    +0.017 C 
ATOM     13  C   UNL     1       9.668   4.057   7.033  0.00  0.00    +0.085 C 
ENDROOT
BRANCH  10  15
ATOM      1  O   UNL     1       9.406   8.772   6.570  0.00  0.00    -0.336 OA
ATOM      5  N   UNL     1      11.399   7.950   7.180  0.00  0.00    -0.190 NA
ATOM      6  N   UNL     1      10.305   9.844   6.506  0.00  0.00    -0.056 NA
ATOM     15  C   UNL     1      10.131   7.696   6.976  0.00  0.00    +0.245 A 
ATOM     19  C   UNL     1      11.459   9.280   6.880  0.00  0.00    +0.205 A 
BRANCH  19  22
ATOM      8  N   UNL     1      11.681  11.654   8.421  0.00  0.00    -0.326 N 
ATOM      9  N   UNL     1      13.955  11.892   7.812  0.00  0.00    -0.240 NA
ATOM     22  C   UNL     1      12.686  10.017   6.965  0.00  0.00    +0.062 A 
ATOM     24  C   UNL     1      12.812  11.176   7.713  0.00  0.00    +0.130 A 
ATOM     25  C   UNL     1      13.805   9.561   6.276  0.00  0.00    +0.016 A 
ATOM     26  C   UNL     1      14.999  10.270   6.355  0.00  0.00    +0.020 A 
ATOM     28  C   UNL     1      15.022  11.418   7.129  0.00  0.00    +0.113 A 
ATOM     34  H   UNL     1      10.970  10.967   8.643  0.00  0.00    +0.148 HD
BRANCH   8  27
ATOM     27  C   UNL     1      11.716  12.839   9.215  0.00  0.00    +0.131 C 
BRANCH  27  30
ATOM     30  C   UNL     1      11.546  12.485  10.683  0.00  0.00    +0.178 C 
BRANCH  30   2
ATOM      2  O   UNL     1      12.734  11.867  11.161  0.00  0.00    -0.381 OA
ATOM     32  C   UNL     1      13.403  12.687  12.111  0.00  0.00    +0.194 C 
ENDBRANCH  30   2
ENDBRANCH  27  30
ENDBRANCH   8  27
ENDBRANCH  19  22
ENDBRANCH  10  15
BRANCH   4  14
ATOM     14  C   UNL     1       9.487   5.274   4.946  0.00  0.00    +0.120 C 
BRANCH  14  16
ATOM     16  C   UNL     1      10.620   5.182   3.959  0.00  0.00    -0.033 A 
ATOM     17  C   UNL     1      11.542   6.224   3.856  0.00  0.00    +0.007 A 
ATOM     18  C   UNL     1      10.748   4.055   3.148  0.00  0.00    +0.007 A 
ATOM     20  C   UNL     1      12.592   6.139   2.942  0.00  0.00    +0.023 A 
ATOM     21  C   UNL     1      11.798   3.970   2.233  0.00  0.00    +0.023 A 
ATOM     23  C   UNL     1      12.720   5.012   2.130  0.00  0.00    +0.033 A 
BRANCH  23   7
ATOM      3  O   UNL     1      15.050   3.110   2.000  0.00  0.00    -0.276 OA
ATOM      7  N   UNL     1      13.769   4.927   1.215  0.00  0.00    -0.286 N 
ATOM     29  C   UNL     1      14.835   4.016   1.203  0.00  0.00    +0.214 C 
ATOM     31  C   UNL     1      15.764   4.258   0.040  0.00  0.00    +0.109 C 
ATOM     33  H   UNL     1      13.750   5.616   0.466  0.00  0.00    +0.155 HD
ENDBRANCH  23   7
ENDBRANCH  14  16
ENDBRANCH   4  14
TORSDOF 8
ENDMDL
