MODEL 1
REMARK VINA RESULT:      -7.2      0.000      0.000
REMARK  Name = 75536304
REMARK  6 active torsions:
REMARK  status: ('A' for Active; 'I' for Inactive)
REMARK    1  A    between atoms: O_2  and  C_10
REMARK    2  A    between atoms: N_6  and  C_14
REMARK    3  A    between atoms: C_9  and  C_14
REMARK    4  A    between atoms: C_11  and  C_15
REMARK    5  A    between atoms: C_15  and  C_16
REMARK    6  A    between atoms: C_23  and  C_24
REMARK                            x       y       z     vdW  Elec       q    Type
REMARK                         _______ _______ _______ _____ _____    ______ ____
ROOT
ATOM      1  O   UNL     1      12.806   3.290   0.746  0.00  0.00    -0.369 OA
ATOM      9  C   UNL     1      13.277   4.132   1.807  0.00  0.00    +0.164 C 
ATOM     10  C   UNL     1      14.788   4.375   1.698  0.00  0.00    +0.145 C 
ATOM     11  C   UNL     1      13.106   3.751  -0.573  0.00  0.00    +0.125 C 
ATOM     12  C   UNL     1      15.206   4.817   0.299  0.00  0.00    +0.036 C 
ATOM     13  C   UNL     1      14.615   3.896  -0.764  0.00  0.00    +0.034 C 
ENDROOT
BRANCH  10   2
ATOM      2  O   UNL     1      15.474   3.155   1.994  0.00  0.00    -0.389 OA
ATOM     31  H   UNL     1      16.033   2.940   1.227  0.00  0.00    +0.210 HD
ENDBRANCH  10   2
BRANCH   9  14
ATOM     14  C   UNL     1      12.469   5.425   1.885  0.00  0.00    +0.140 C 
BRANCH  14   6
ATOM      3  O   UNL     1      10.827   6.075   8.055  0.00  0.00    -0.377 OA
ATOM      5  O   UNL     1      10.167   4.719   3.343  0.00  0.00    -0.253 OA
ATOM      6  N   UNL     1      12.198   5.784   3.258  0.00  0.00    -0.297 N 
ATOM      7  N   UNL     1      10.911   5.826   5.241  0.00  0.00    -0.281 N 
ATOM     17  C   UNL     1      11.033   5.394   3.909  0.00  0.00    +0.302 C 
ATOM     18  C   UNL     1       9.711   5.466   6.001  0.00  0.00    +0.137 C 
ATOM     19  C   UNL     1      11.813   6.752   5.940  0.00  0.00    +0.137 C 
ATOM     21  C   UNL     1      10.068   5.046   7.418  0.00  0.00    +0.179 C 
ATOM     22  C   UNL     1      12.062   6.291   7.371  0.00  0.00    +0.179 C 
ATOM     30  H   UNL     1      12.896   6.356   3.713  0.00  0.00    +0.150 HD
ENDBRANCH  14   6
ENDBRANCH   9  14
BRANCH  11  15
ATOM     15  C   UNL     1      12.529   2.738  -1.555  0.00  0.00    +0.090 C 
BRANCH  15  16
ATOM      4  O   UNL     1       9.357   3.134  -3.219  0.00  0.00    -0.354 OA
ATOM      8  N   UNL     1      10.418   2.362  -2.761  0.00  0.00    -0.083 NA
ATOM     16  C   UNL     1      11.249   3.228  -2.175  0.00  0.00    +0.087 A 
ATOM     20  C   UNL     1      10.770   4.549  -2.232  0.00  0.00    +0.076 A 
ATOM     23  C   UNL     1       9.578   4.434  -2.897  0.00  0.00    +0.167 A 
BRANCH  23  24
ATOM     24  C   UNL     1       8.559   5.358  -3.305  0.00  0.00    +0.020 A 
ATOM     25  C   UNL     1       7.835   5.126  -4.474  0.00  0.00    +0.011 A 
ATOM     26  C   UNL     1       8.292   6.488  -2.532  0.00  0.00    +0.011 A 
ATOM     27  C   UNL     1       6.845   6.024  -4.871  0.00  0.00    +0.001 A 
ATOM     28  C   UNL     1       7.302   7.386  -2.928  0.00  0.00    +0.001 A 
ATOM     29  C   UNL     1       6.577   7.155  -4.097  0.00  0.00    +0.000 A 
ENDBRANCH  23  24
ENDBRANCH  15  16
ENDBRANCH  11  15
TORSDOF 6
ENDMDL
MODEL 2
REMARK VINA RESULT:      -6.9     36.543     39.918
REMARK  Name = 75536304
REMARK  6 active torsions:
REMARK  status: ('A' for Active; 'I' for Inactive)
REMARK    1  A    between atoms: O_2  and  C_10
REMARK    2  A    between atoms: N_6  and  C_14
REMARK    3  A    between atoms: C_9  and  C_14
REMARK    4  A    between atoms: C_11  and  C_15
REMARK    5  A    between atoms: C_15  and  C_16
REMARK    6  A    between atoms: C_23  and  C_24
REMARK                            x       y       z     vdW  Elec       q    Type
REMARK                         _______ _______ _______ _____ _____    ______ ____
ROOT
ATOM      1  O   UNL     1     -14.539   3.000  31.033  0.00  0.00    -0.369 OA
ATOM      9  C   UNL     1     -14.754   2.316  29.791  0.00  0.00    +0.164 C 
ATOM     10  C   UNL     1     -14.437   0.820  29.916  0.00  0.00    +0.145 C 
ATOM     11  C   UNL     1     -15.253   2.467  32.151  0.00  0.00    +0.125 C 
ATOM     12  C   UNL     1     -15.115   0.180  31.123  0.00  0.00    +0.036 C 
ATOM     13  C   UNL     1     -14.877   1.005  32.385  0.00  0.00    +0.034 C 
ENDROOT
BRANCH  10   2
ATOM      2  O   UNL     1     -13.024   0.660  30.074  0.00  0.00    -0.389 OA
ATOM     31  H   UNL     1     -12.756  -0.116  29.552  0.00  0.00    +0.210 HD
ENDBRANCH  10   2
BRANCH   9  14
ATOM     14  C   UNL     1     -16.156   2.585  29.249  0.00  0.00    +0.140 C 
BRANCH  14   6
ATOM      3  O   UNL     1     -17.167   1.964  22.942  0.00  0.00    -0.377 OA
ATOM      5  O   UNL     1     -17.310   0.551  27.681  0.00  0.00    -0.253 OA
ATOM      6  N   UNL     1     -16.170   2.539  27.805  0.00  0.00    -0.297 N 
ATOM      7  N   UNL     1     -16.690   1.591  25.702  0.00  0.00    -0.281 N 
ATOM     17  C   UNL     1     -16.763   1.497  27.103  0.00  0.00    +0.302 C 
ATOM     18  C   UNL     1     -17.283   0.531  24.883  0.00  0.00    +0.137 C 
ATOM     19  C   UNL     1     -15.933   2.593  24.939  0.00  0.00    +0.137 C 
ATOM     21  C   UNL     1     -18.032   1.114  23.696  0.00  0.00    +0.179 C 
ATOM     22  C   UNL     1     -16.731   3.071  23.731  0.00  0.00    +0.179 C 
ATOM     30  H   UNL     1     -15.703   3.301  27.333  0.00  0.00    +0.150 HD
ENDBRANCH  14   6
ENDBRANCH   9  14
BRANCH  11  15
ATOM     15  C   UNL     1     -14.903   3.319  33.366  0.00  0.00    +0.090 C 
BRANCH  15  16
ATOM      4  O   UNL     1     -15.532   6.789  32.623  0.00  0.00    -0.354 OA
ATOM      8  N   UNL     1     -15.951   5.508  32.962  0.00  0.00    -0.083 NA
ATOM     16  C   UNL     1     -14.831   4.781  33.020  0.00  0.00    +0.087 A 
ATOM     20  C   UNL     1     -13.686   5.542  32.730  0.00  0.00    +0.076 A 
ATOM     23  C   UNL     1     -14.180   6.796  32.489  0.00  0.00    +0.167 A 
BRANCH  23  24
ATOM     24  C   UNL     1     -13.597   8.060  32.141  0.00  0.00    +0.020 A 
ATOM     25  C   UNL     1     -14.398   9.080  31.628  0.00  0.00    +0.011 A 
ATOM     26  C   UNL     1     -12.229   8.268  32.318  0.00  0.00    +0.011 A 
ATOM     27  C   UNL     1     -13.830  10.308  31.290  0.00  0.00    +0.001 A 
ATOM     28  C   UNL     1     -11.661   9.497  31.981  0.00  0.00    +0.001 A 
ATOM     29  C   UNL     1     -12.461  10.518  31.467  0.00  0.00    +0.000 A 
ENDBRANCH  23  24
ENDBRANCH  15  16
ENDBRANCH  11  15
TORSDOF 6
ENDMDL
MODEL 3
REMARK VINA RESULT:      -6.8      3.966      7.323
REMARK  Name = 75536304
REMARK  6 active torsions:
REMARK  status: ('A' for Active; 'I' for Inactive)
REMARK    1  A    between atoms: O_2  and  C_10
REMARK    2  A    between atoms: N_6  and  C_14
REMARK    3  A    between atoms: C_9  and  C_14
REMARK    4  A    between atoms: C_11  and  C_15
REMARK    5  A    between atoms: C_15  and  C_16
REMARK    6  A    between atoms: C_23  and  C_24
REMARK                            x       y       z     vdW  Elec       q    Type
REMARK                         _______ _______ _______ _____ _____    ______ ____
ROOT
ATOM      1  O   UNL     1      13.178   4.797   2.220  0.00  0.00    -0.369 OA
ATOM      9  C   UNL     1      14.558   5.141   2.037  0.00  0.00    +0.164 C 
ATOM     10  C   UNL     1      15.266   4.137   1.118  0.00  0.00    +0.145 C 
ATOM     11  C   UNL     1      12.422   4.659   1.015  0.00  0.00    +0.125 C 
ATOM     12  C   UNL     1      14.494   3.886  -0.173  0.00  0.00    +0.036 C 
ATOM     13  C   UNL     1      13.027   3.581   0.118  0.00  0.00    +0.034 C 
ENDROOT
BRANCH  10   2
ATOM      2  O   UNL     1      15.386   2.889   1.805  0.00  0.00    -0.389 OA
ATOM     31  H   UNL     1      16.335   2.715   1.935  0.00  0.00    +0.210 HD
ENDBRANCH  10   2
BRANCH   9  14
ATOM     14  C   UNL     1      14.708   6.587   1.568  0.00  0.00    +0.140 C 
BRANCH  14   6
ATOM      3  O   UNL     1      19.406   9.007   5.209  0.00  0.00    -0.377 OA
ATOM      5  O   UNL     1      14.729   7.850   4.083  0.00  0.00    -0.253 OA
ATOM      6  N   UNL     1      15.853   7.215   2.186  0.00  0.00    -0.297 N 
ATOM      7  N   UNL     1      16.977   8.392   3.901  0.00  0.00    -0.281 N 
ATOM     17  C   UNL     1      15.781   7.819   3.436  0.00  0.00    +0.302 C 
ATOM     18  C   UNL     1      16.990   9.057   5.207  0.00  0.00    +0.137 C 
ATOM     19  C   UNL     1      18.226   8.533   3.138  0.00  0.00    +0.137 C 
ATOM     21  C   UNL     1      18.247   8.703   5.986  0.00  0.00    +0.179 C 
ATOM     22  C   UNL     1      19.435   8.226   4.015  0.00  0.00    +0.179 C 
ATOM     30  H   UNL     1      16.707   7.209   1.646  0.00  0.00    +0.150 HD
ENDBRANCH  14   6
ENDBRANCH   9  14
BRANCH  11  15
ATOM     15  C   UNL     1      10.994   4.299   1.409  0.00  0.00    +0.090 C 
BRANCH  15  16
ATOM      4  O   UNL     1       9.912   6.587   3.975  0.00  0.00    -0.354 OA
ATOM      8  N   UNL     1      10.238   6.278   2.660  0.00  0.00    -0.083 NA
ATOM     16  C   UNL     1      10.576   4.986   2.681  0.00  0.00    +0.087 A 
ATOM     20  C   UNL     1      10.484   4.431   3.969  0.00  0.00    +0.076 A 
ATOM     23  C   UNL     1      10.063   5.478   4.745  0.00  0.00    +0.167 A 
BRANCH  23  24
ATOM     24  C   UNL     1       9.758   5.642   6.137  0.00  0.00    +0.020 A 
ATOM     25  C   UNL     1       9.248   6.854   6.601  0.00  0.00    +0.011 A 
ATOM     26  C   UNL     1       9.971   4.588   7.026  0.00  0.00    +0.011 A 
ATOM     27  C   UNL     1       8.951   7.012   7.955  0.00  0.00    +0.001 A 
ATOM     28  C   UNL     1       9.675   4.746   8.380  0.00  0.00    +0.001 A 
ATOM     29  C   UNL     1       9.164   5.959   8.845  0.00  0.00    +0.000 A 
ENDBRANCH  23  24
ENDBRANCH  15  16
ENDBRANCH  11  15
TORSDOF 6
ENDMDL
MODEL 4
REMARK VINA RESULT:      -6.7     34.952     39.868
REMARK  Name = 75536304
REMARK  6 active torsions:
REMARK  status: ('A' for Active; 'I' for Inactive)
REMARK    1  A    between atoms: O_2  and  C_10
REMARK    2  A    between atoms: N_6  and  C_14
REMARK    3  A    between atoms: C_9  and  C_14
REMARK    4  A    between atoms: C_11  and  C_15
REMARK    5  A    between atoms: C_15  and  C_16
REMARK    6  A    between atoms: C_23  and  C_24
REMARK                            x       y       z     vdW  Elec       q    Type
REMARK                         _______ _______ _______ _____ _____    ______ ____
ROOT
ATOM      1  O   UNL     1     -15.429   4.281  30.518  0.00  0.00    -0.369 OA
ATOM      9  C   UNL     1     -14.937   3.453  29.455  0.00  0.00    +0.164 C 
ATOM     10  C   UNL     1     -14.054   2.320  29.994  0.00  0.00    +0.145 C 
ATOM     11  C   UNL     1     -16.141   3.589  31.547  0.00  0.00    +0.125 C 
ATOM     12  C   UNL     1     -14.716   1.562  31.139  0.00  0.00    +0.036 C 
ATOM     13  C   UNL     1     -15.255   2.525  32.193  0.00  0.00    +0.034 C 
ENDROOT
BRANCH  10   2
ATOM      2  O   UNL     1     -12.835   2.881  30.488  0.00  0.00    -0.389 OA
ATOM     31  H   UNL     1     -12.429   2.225  31.080  0.00  0.00    +0.210 HD
ENDBRANCH  10   2
BRANCH   9  14
ATOM     14  C   UNL     1     -16.079   2.952  28.573  0.00  0.00    +0.140 C 
BRANCH  14   6
ATOM      3  O   UNL     1     -15.505   5.622  22.765  0.00  0.00    -0.377 OA
ATOM      5  O   UNL     1     -17.675   4.765  27.129  0.00  0.00    -0.253 OA
ATOM      6  N   UNL     1     -15.877   3.341  27.196  0.00  0.00    -0.297 N 
ATOM      7  N   UNL     1     -16.392   4.519  25.212  0.00  0.00    -0.281 N 
ATOM     17  C   UNL     1     -16.713   4.246  26.553  0.00  0.00    +0.302 C 
ATOM     18  C   UNL     1     -17.225   5.457  24.455  0.00  0.00    +0.137 C 
ATOM     19  C   UNL     1     -15.366   3.838  24.410  0.00  0.00    +0.137 C 
ATOM     21  C   UNL     1     -16.369   6.386  23.608  0.00  0.00    +0.179 C 
ATOM     22  C   UNL     1     -14.604   4.834  23.544  0.00  0.00    +0.179 C 
ATOM     30  H   UNL     1     -15.104   2.898  26.719  0.00  0.00    +0.150 HD
ENDBRANCH  14   6
ENDBRANCH   9  14
BRANCH  11  15
ATOM     15  C   UNL     1     -16.583   4.624  32.574  0.00  0.00    +0.090 C 
BRANCH  15  16
ATOM      4  O   UNL     1     -13.880   6.116  34.433  0.00  0.00    -0.354 OA
ATOM      8  N   UNL     1     -14.914   5.199  34.288  0.00  0.00    -0.083 NA
ATOM     16  C   UNL     1     -15.424   5.442  33.078  0.00  0.00    +0.087 A 
ATOM     20  C   UNL     1     -14.760   6.491  32.419  0.00  0.00    +0.076 A 
ATOM     23  C   UNL     1     -13.798   6.879  33.313  0.00  0.00    +0.167 A 
BRANCH  23  24
ATOM     24  C   UNL     1     -12.766   7.876  33.313  0.00  0.00    +0.020 A 
ATOM     25  C   UNL     1     -12.054   8.142  32.144  0.00  0.00    +0.011 A 
ATOM     26  C   UNL     1     -12.478   8.581  34.482  0.00  0.00    +0.011 A 
ATOM     27  C   UNL     1     -11.051   9.112  32.145  0.00  0.00    +0.001 A 
ATOM     28  C   UNL     1     -11.476   9.551  34.483  0.00  0.00    +0.001 A 
ATOM     29  C   UNL     1     -10.762   9.817  33.314  0.00  0.00    +0.000 A 
ENDBRANCH  23  24
ENDBRANCH  15  16
ENDBRANCH  11  15
TORSDOF 6
ENDMDL
MODEL 5
REMARK VINA RESULT:      -6.7     23.062     26.203
REMARK  Name = 75536304
REMARK  6 active torsions:
REMARK  status: ('A' for Active; 'I' for Inactive)
REMARK    1  A    between atoms: O_2  and  C_10
REMARK    2  A    between atoms: N_6  and  C_14
REMARK    3  A    between atoms: C_9  and  C_14
REMARK    4  A    between atoms: C_11  and  C_15
REMARK    5  A    between atoms: C_15  and  C_16
REMARK    6  A    between atoms: C_23  and  C_24
REMARK                            x       y       z     vdW  Elec       q    Type
REMARK                         _______ _______ _______ _____ _____    ______ ____
ROOT
ATOM      1  O   UNL     1      -3.140  -9.632  10.195  0.00  0.00    -0.369 OA
ATOM      9  C   UNL     1      -4.215  -9.304   9.306  0.00  0.00    +0.164 C 
ATOM     10  C   UNL     1      -4.947 -10.564   8.826  0.00  0.00    +0.145 C 
ATOM     11  C   UNL     1      -3.511 -10.414  11.333  0.00  0.00    +0.125 C 
ATOM     12  C   UNL     1      -5.331 -11.487   9.977  0.00  0.00    +0.036 C 
ATOM     13  C   UNL     1      -4.139 -11.736  10.898  0.00  0.00    +0.034 C 
ENDROOT
BRANCH  10   2
ATOM      2  O   UNL     1      -4.083 -11.293   7.950  0.00  0.00    -0.389 OA
ATOM     31  H   UNL     1      -4.477 -12.172   7.813  0.00  0.00    +0.210 HD
ENDBRANCH  10   2
BRANCH   9  14
ATOM     14  C   UNL     1      -5.152  -8.272   9.931  0.00  0.00    +0.140 C 
BRANCH  14   6
ATOM      3  O   UNL     1     -10.754  -7.007   7.067  0.00  0.00    -0.377 OA
ATOM      5  O   UNL     1      -7.821  -8.885  10.581  0.00  0.00    -0.253 OA
ATOM      6  N   UNL     1      -6.300  -8.037   9.086  0.00  0.00    -0.297 N 
ATOM      7  N   UNL     1      -8.602  -8.085   8.548  0.00  0.00    -0.281 N 
ATOM     17  C   UNL     1      -7.590  -8.369   9.482  0.00  0.00    +0.302 C 
ATOM     18  C   UNL     1      -9.992  -8.409   8.880  0.00  0.00    +0.137 C 
ATOM     19  C   UNL     1      -8.403  -7.616   7.169  0.00  0.00    +0.137 C 
ATOM     21  C   UNL     1     -10.929  -7.290   8.455  0.00  0.00    +0.179 C 
ATOM     22  C   UNL     1      -9.427  -6.547   6.807  0.00  0.00    +0.179 C 
ATOM     30  H   UNL     1      -6.108  -7.636   8.178  0.00  0.00    +0.150 HD
ENDBRANCH  14   6
ENDBRANCH   9  14
BRANCH  11  15
ATOM     15  C   UNL     1      -2.249 -10.657  12.153  0.00  0.00    +0.090 C 
BRANCH  15  16
ATOM      4  O   UNL     1      -2.147 -10.374  15.745  0.00  0.00    -0.354 OA
ATOM      8  N   UNL     1      -1.559 -10.298  14.487  0.00  0.00    -0.083 NA
ATOM     16  C   UNL     1      -2.529 -10.630  13.631  0.00  0.00    +0.087 A 
ATOM     20  C   UNL     1      -3.739 -10.924  14.284  0.00  0.00    +0.076 A 
ATOM     23  C   UNL     1      -3.445 -10.747  15.610  0.00  0.00    +0.167 A 
BRANCH  23  24
ATOM     24  C   UNL     1      -4.189 -10.866  16.830  0.00  0.00    +0.020 A 
ATOM     25  C   UNL     1      -5.395 -10.181  16.981  0.00  0.00    +0.011 A 
ATOM     26  C   UNL     1      -3.707 -11.667  17.865  0.00  0.00    +0.011 A 
ATOM     27  C   UNL     1      -6.118 -10.297  18.169  0.00  0.00    +0.001 A 
ATOM     28  C   UNL     1      -4.430 -11.783  19.053  0.00  0.00    +0.001 A 
ATOM     29  C   UNL     1      -5.636 -11.098  19.205  0.00  0.00    +0.000 A 
ENDBRANCH  23  24
ENDBRANCH  15  16
ENDBRANCH  11  15
TORSDOF 6
ENDMDL
MODEL 6
REMARK VINA RESULT:      -6.6      3.979      6.610
REMARK  Name = 75536304
REMARK  6 active torsions:
REMARK  status: ('A' for Active; 'I' for Inactive)
REMARK    1  A    between atoms: O_2  and  C_10
REMARK    2  A    between atoms: N_6  and  C_14
REMARK    3  A    between atoms: C_9  and  C_14
REMARK    4  A    between atoms: C_11  and  C_15
REMARK    5  A    between atoms: C_15  and  C_16
REMARK    6  A    between atoms: C_23  and  C_24
REMARK                            x       y       z     vdW  Elec       q    Type
REMARK                         _______ _______ _______ _____ _____    ______ ____
ROOT
ATOM      1  O   UNL     1      13.082   4.906   2.171  0.00  0.00    -0.369 OA
ATOM      9  C   UNL     1      14.429   5.343   1.942  0.00  0.00    +0.164 C 
ATOM     10  C   UNL     1      15.211   4.323   1.103  0.00  0.00    +0.145 C 
ATOM     11  C   UNL     1      12.333   4.605   0.991  0.00  0.00    +0.125 C 
ATOM     12  C   UNL     1      14.454   3.900  -0.151  0.00  0.00    +0.036 C 
ATOM     13  C   UNL     1      13.019   3.505   0.183  0.00  0.00    +0.034 C 
ENDROOT
BRANCH  10   2
ATOM      2  O   UNL     1      15.435   3.152   1.894  0.00  0.00    -0.389 OA
ATOM     31  H   UNL     1      16.385   3.116   2.103  0.00  0.00    +0.210 HD
ENDBRANCH  10   2
BRANCH   9  14
ATOM     14  C   UNL     1      14.459   6.750   1.349  0.00  0.00    +0.140 C 
BRANCH  14   6
ATOM      3  O   UNL     1      10.178  10.438   4.391  0.00  0.00    -0.377 OA
ATOM      5  O   UNL     1      12.190   8.170   0.481  0.00  0.00    -0.253 OA
ATOM      6  N   UNL     1      13.680   7.666   2.151  0.00  0.00    -0.297 N 
ATOM      7  N   UNL     1      11.919   9.192   2.546  0.00  0.00    -0.281 N 
ATOM     17  C   UNL     1      12.569   8.329   1.646  0.00  0.00    +0.302 C 
ATOM     18  C   UNL     1      10.741   9.938   2.095  0.00  0.00    +0.137 C 
ATOM     19  C   UNL     1      12.386   9.555   3.891  0.00  0.00    +0.137 C 
ATOM     21  C   UNL     1       9.655   9.938   3.159  0.00  0.00    +0.179 C 
ATOM     22  C   UNL     1      11.224   9.596   4.877  0.00  0.00    +0.179 C 
ATOM     30  H   UNL     1      14.005   7.813   3.097  0.00  0.00    +0.150 HD
ENDBRANCH  14   6
ENDBRANCH   9  14
BRANCH  11  15
ATOM     15  C   UNL     1      10.941   4.167   1.433  0.00  0.00    +0.090 C 
BRANCH  15  16
ATOM      4  O   UNL     1       9.746   6.491   3.914  0.00  0.00    -0.354 OA
ATOM      8  N   UNL     1      10.065   6.143   2.607  0.00  0.00    -0.083 NA
ATOM     16  C   UNL     1      10.500   4.882   2.681  0.00  0.00    +0.087 A 
ATOM     20  C   UNL     1      10.480   4.387   3.996  0.00  0.00    +0.076 A 
ATOM     23  C   UNL     1       9.997   5.437   4.732  0.00  0.00    +0.167 A 
BRANCH  23  24
ATOM     24  C   UNL     1       9.712   5.645   6.122  0.00  0.00    +0.020 A 
ATOM     25  C   UNL     1       9.929   4.618   7.040  0.00  0.00    +0.011 A 
ATOM     26  C   UNL     1       9.220   6.876   6.556  0.00  0.00    +0.011 A 
ATOM     27  C   UNL     1       9.653   4.821   8.392  0.00  0.00    +0.001 A 
ATOM     28  C   UNL     1       8.943   7.079   7.908  0.00  0.00    +0.001 A 
ATOM     29  C   UNL     1       9.160   6.052   8.826  0.00  0.00    +0.000 A 
ENDBRANCH  23  24
ENDBRANCH  15  16
ENDBRANCH  11  15
TORSDOF 6
ENDMDL
MODEL 7
REMARK VINA RESULT:      -6.6     24.646     27.938
REMARK  Name = 75536304
REMARK  6 active torsions:
REMARK  status: ('A' for Active; 'I' for Inactive)
REMARK    1  A    between atoms: O_2  and  C_10
REMARK    2  A    between atoms: N_6  and  C_14
REMARK    3  A    between atoms: C_9  and  C_14
REMARK    4  A    between atoms: C_11  and  C_15
REMARK    5  A    between atoms: C_15  and  C_16
REMARK    6  A    between atoms: C_23  and  C_24
REMARK                            x       y       z     vdW  Elec       q    Type
REMARK                         _______ _______ _______ _____ _____    ______ ____
ROOT
ATOM      1  O   UNL     1      -6.674 -11.588  17.082  0.00  0.00    -0.369 OA
ATOM      9  C   UNL     1      -7.687 -10.878  17.808  0.00  0.00    +0.164 C 
ATOM     10  C   UNL     1      -7.444 -10.949  19.321  0.00  0.00    +0.145 C 
ATOM     11  C   UNL     1      -5.332 -11.178  17.356  0.00  0.00    +0.125 C 
ATOM     12  C   UNL     1      -6.013 -10.581  19.697  0.00  0.00    +0.036 C 
ATOM     13  C   UNL     1      -5.008 -11.345  18.839  0.00  0.00    +0.034 C 
ENDROOT
BRANCH  10   2
ATOM      2  O   UNL     1      -7.682 -12.288  19.763  0.00  0.00    -0.389 OA
ATOM     31  H   UNL     1      -8.289 -12.244  20.521  0.00  0.00    +0.210 HD
ENDBRANCH  10   2
BRANCH   9  14
ATOM     14  C   UNL     1      -7.832  -9.447  17.294  0.00  0.00    +0.140 C 
BRANCH  14   6
ATOM      3  O   UNL     1     -12.535  -7.982  13.180  0.00  0.00    -0.377 OA
ATOM      5  O   UNL     1      -9.950  -7.595  17.381  0.00  0.00    -0.253 OA
ATOM      6  N   UNL     1      -8.906  -9.349  16.332  0.00  0.00    -0.297 N 
ATOM      7  N   UNL     1     -10.895  -8.436  15.436  0.00  0.00    -0.281 N 
ATOM     17  C   UNL     1      -9.918  -8.402  16.446  0.00  0.00    +0.302 C 
ATOM     18  C   UNL     1     -12.002  -7.478  15.482  0.00  0.00    +0.137 C 
ATOM     19  C   UNL     1     -11.017  -9.451  14.381  0.00  0.00    +0.137 C 
ATOM     21  C   UNL     1     -12.295  -6.916  14.100  0.00  0.00    +0.179 C 
ATOM     22  C   UNL     1     -11.378  -8.807  13.047  0.00  0.00    +0.179 C 
ATOM     30  H   UNL     1      -8.892 -10.025  15.581  0.00  0.00    +0.150 HD
ENDBRANCH  14   6
ENDBRANCH   9  14
BRANCH  11  15
ATOM     15  C   UNL     1      -4.408 -12.035  16.498  0.00  0.00    +0.090 C 
BRANCH  15  16
ATOM      4  O   UNL     1      -2.848 -10.426  13.676  0.00  0.00    -0.354 OA
ATOM      8  N   UNL     1      -2.806 -11.013  14.935  0.00  0.00    -0.083 NA
ATOM     16  C   UNL     1      -4.070 -11.361  15.196  0.00  0.00    +0.087 A 
ATOM     20  C   UNL     1      -4.944 -11.021  14.150  0.00  0.00    +0.076 A 
ATOM     23  C   UNL     1      -4.127 -10.437  13.219  0.00  0.00    +0.167 A 
BRANCH  23  24
ATOM     24  C   UNL     1      -4.328  -9.863  11.920  0.00  0.00    +0.020 A 
ATOM     25  C   UNL     1      -5.545  -9.258  11.607  0.00  0.00    +0.011 A 
ATOM     26  C   UNL     1      -3.307  -9.908  10.971  0.00  0.00    +0.011 A 
ATOM     27  C   UNL     1      -5.741  -8.699  10.344  0.00  0.00    +0.001 A 
ATOM     28  C   UNL     1      -3.502  -9.349   9.708  0.00  0.00    +0.001 A 
ATOM     29  C   UNL     1      -4.720  -8.744   9.394  0.00  0.00    +0.000 A 
ENDBRANCH  23  24
ENDBRANCH  15  16
ENDBRANCH  11  15
TORSDOF 6
ENDMDL
MODEL 8
REMARK VINA RESULT:      -6.6      3.630      7.630
REMARK  Name = 75536304
REMARK  6 active torsions:
REMARK  status: ('A' for Active; 'I' for Inactive)
REMARK    1  A    between atoms: O_2  and  C_10
REMARK    2  A    between atoms: N_6  and  C_14
REMARK    3  A    between atoms: C_9  and  C_14
REMARK    4  A    between atoms: C_11  and  C_15
REMARK    5  A    between atoms: C_15  and  C_16
REMARK    6  A    between atoms: C_23  and  C_24
REMARK                            x       y       z     vdW  Elec       q    Type
REMARK                         _______ _______ _______ _____ _____    ______ ____
ROOT
ATOM      1  O   UNL     1      10.508   7.213   6.121  0.00  0.00    -0.369 OA
ATOM      9  C   UNL     1      10.667   5.788   6.137  0.00  0.00    +0.164 C 
ATOM     10  C   UNL     1      10.414   5.213   7.537  0.00  0.00    +0.145 C 
ATOM     11  C   UNL     1       9.246   7.688   6.594  0.00  0.00    +0.125 C 
ATOM     12  C   UNL     1       9.108   5.717   8.144  0.00  0.00    +0.036 C 
ATOM     13  C   UNL     1       9.004   7.235   8.033  0.00  0.00    +0.034 C 
ENDROOT
BRANCH  10   2
ATOM      2  O   UNL     1      11.480   5.616   8.400  0.00  0.00    -0.389 OA
ATOM     31  H   UNL     1      11.723   6.528   8.162  0.00  0.00    +0.210 HD
ENDBRANCH  10   2
BRANCH   9  14
ATOM     14  C   UNL     1       9.814   5.126   5.057  0.00  0.00    +0.140 C 
BRANCH  14   6
ATOM      3  O   UNL     1      13.704   3.917   0.098  0.00  0.00    -0.377 OA
ATOM      5  O   UNL     1      10.193   6.379   2.566  0.00  0.00    -0.253 OA
ATOM      6  N   UNL     1      10.639   4.627   3.980  0.00  0.00    -0.297 N 
ATOM      7  N   UNL     1      11.605   4.695   1.823  0.00  0.00    -0.281 N 
ATOM     17  C   UNL     1      10.774   5.309   2.776  0.00  0.00    +0.302 C 
ATOM     18  C   UNL     1      11.799   5.341   0.523  0.00  0.00    +0.137 C 
ATOM     19  C   UNL     1      12.209   3.359   1.931  0.00  0.00    +0.137 C 
ATOM     21  C   UNL     1      13.255   5.272   0.091  0.00  0.00    +0.179 C 
ATOM     22  C   UNL     1      13.643   3.369   1.415  0.00  0.00    +0.179 C 
ATOM     30  H   UNL     1      11.094   3.741   4.144  0.00  0.00    +0.150 HD
ENDBRANCH  14   6
ENDBRANCH   9  14
BRANCH  11  15
ATOM     15  C   UNL     1       9.264   9.209   6.499  0.00  0.00    +0.090 C 
BRANCH  15  16
ATOM      4  O   UNL     1       7.756  11.097   3.824  0.00  0.00    -0.354 OA
ATOM      8  N   UNL     1       8.586  10.982   4.934  0.00  0.00    -0.083 NA
ATOM     16  C   UNL     1       8.488   9.703   5.308  0.00  0.00    +0.087 A 
ATOM     20  C   UNL     1       7.620   8.970   4.481  0.00  0.00    +0.076 A 
ATOM     23  C   UNL     1       7.187   9.891   3.565  0.00  0.00    +0.167 A 
BRANCH  23  24
ATOM     24  C   UNL     1       6.301   9.851   2.438  0.00  0.00    +0.020 A 
ATOM     25  C   UNL     1       4.931  10.039   2.622  0.00  0.00    +0.011 A 
ATOM     26  C   UNL     1       6.809   9.626   1.159  0.00  0.00    +0.011 A 
ATOM     27  C   UNL     1       4.069  10.000   1.525  0.00  0.00    +0.001 A 
ATOM     28  C   UNL     1       5.948   9.588   0.062  0.00  0.00    +0.001 A 
ATOM     29  C   UNL     1       4.577   9.775   0.245  0.00  0.00    +0.000 A 
ENDBRANCH  23  24
ENDBRANCH  15  16
ENDBRANCH  11  15
TORSDOF 6
ENDMDL
MODEL 9
REMARK VINA RESULT:      -6.5     24.518     27.424
REMARK  Name = 75536304
REMARK  6 active torsions:
REMARK  status: ('A' for Active; 'I' for Inactive)
REMARK    1  A    between atoms: O_2  and  C_10
REMARK    2  A    between atoms: N_6  and  C_14
REMARK    3  A    between atoms: C_9  and  C_14
REMARK    4  A    between atoms: C_11  and  C_15
REMARK    5  A    between atoms: C_15  and  C_16
REMARK    6  A    between atoms: C_23  and  C_24
REMARK                            x       y       z     vdW  Elec       q    Type
REMARK                         _______ _______ _______ _____ _____    ______ ____
ROOT
ATOM      1  O   UNL     1      -4.111 -12.736  15.775  0.00  0.00    -0.369 OA
ATOM      9  C   UNL     1      -5.280 -13.055  16.542  0.00  0.00    +0.164 C 
ATOM     10  C   UNL     1      -5.073 -12.745  18.031  0.00  0.00    +0.145 C 
ATOM     11  C   UNL     1      -3.647 -11.391  15.908  0.00  0.00    +0.125 C 
ATOM     12  C   UNL     1      -4.521 -11.341  18.260  0.00  0.00    +0.036 C 
ATOM     13  C   UNL     1      -3.315 -11.075  17.365  0.00  0.00    +0.034 C 
ENDROOT
BRANCH  10   2
ATOM      2  O   UNL     1      -4.132 -13.677  18.569  0.00  0.00    -0.389 OA
ATOM     31  H   UNL     1      -3.965 -14.353  17.888  0.00  0.00    +0.210 HD
ENDBRANCH  10   2
BRANCH   9  14
ATOM     14  C   UNL     1      -6.522 -12.382  15.960  0.00  0.00    +0.140 C 
BRANCH  14   6
ATOM      3  O   UNL     1     -11.030 -10.003  19.859  0.00  0.00    -0.377 OA
ATOM      5  O   UNL     1      -8.296 -10.208  15.741  0.00  0.00    -0.253 OA
ATOM      6  N   UNL     1      -7.382 -11.887  17.011  0.00  0.00    -0.297 N 
ATOM      7  N   UNL     1      -9.003 -10.437  17.938  0.00  0.00    -0.281 N 
ATOM     17  C   UNL     1      -8.233 -10.805  16.821  0.00  0.00    +0.302 C 
ATOM     18  C   UNL     1      -9.923  -9.302  17.830  0.00  0.00    +0.137 C 
ATOM     19  C   UNL     1      -8.882 -10.990  19.295  0.00  0.00    +0.137 C 
ATOM     21  C   UNL     1     -11.250  -9.608  18.504  0.00  0.00    +0.179 C 
ATOM     22  C   UNL     1     -10.257 -11.202  19.919  0.00  0.00    +0.179 C 
ATOM     30  H   UNL     1      -7.313 -12.361  17.900  0.00  0.00    +0.150 HD
ENDBRANCH  14   6
ENDBRANCH   9  14
BRANCH  11  15
ATOM     15  C   UNL     1      -2.412 -11.244  15.026  0.00  0.00    +0.090 C 
BRANCH  15  16
ATOM      4  O   UNL     1      -2.460 -10.046  11.626  0.00  0.00    -0.354 OA
ATOM      8  N   UNL     1      -1.797 -10.455  12.778  0.00  0.00    -0.083 NA
ATOM     16  C   UNL     1      -2.766 -10.757  13.646  0.00  0.00    +0.087 A 
ATOM     20  C   UNL     1      -4.049 -10.560  13.105  0.00  0.00    +0.076 A 
ATOM     23  C   UNL     1      -3.801 -10.114  11.834  0.00  0.00    +0.167 A 
BRANCH  23  24
ATOM     24  C   UNL     1      -4.623  -9.723  10.726  0.00  0.00    +0.020 A 
ATOM     25  C   UNL     1      -4.201  -9.979   9.421  0.00  0.00    +0.011 A 
ATOM     26  C   UNL     1      -5.844  -9.089  10.953  0.00  0.00    +0.011 A 
ATOM     27  C   UNL     1      -5.001  -9.599   8.343  0.00  0.00    +0.001 A 
ATOM     28  C   UNL     1      -6.644  -8.709   9.875  0.00  0.00    +0.001 A 
ATOM     29  C   UNL     1      -6.223  -8.964   8.570  0.00  0.00    +0.000 A 
ENDBRANCH  23  24
ENDBRANCH  15  16
ENDBRANCH  11  15
TORSDOF 6
ENDMDL
MODEL 10
REMARK VINA RESULT:      -6.5      3.870      5.428
REMARK  Name = 75536304
REMARK  6 active torsions:
REMARK  status: ('A' for Active; 'I' for Inactive)
REMARK    1  A    between atoms: O_2  and  C_10
REMARK    2  A    between atoms: N_6  and  C_14
REMARK    3  A    between atoms: C_9  and  C_14
REMARK    4  A    between atoms: C_11  and  C_15
REMARK    5  A    between atoms: C_15  and  C_16
REMARK    6  A    between atoms: C_23  and  C_24
REMARK                            x       y       z     vdW  Elec       q    Type
REMARK                         _______ _______ _______ _____ _____    ______ ____
ROOT
ATOM      1  O   UNL     1      14.559   4.437   0.957  0.00  0.00    -0.369 OA
ATOM      9  C   UNL     1      15.722   5.239   0.707  0.00  0.00    +0.164 C 
ATOM     10  C   UNL     1      16.369   4.881  -0.637  0.00  0.00    +0.145 C 
ATOM     11  C   UNL     1      13.560   4.483  -0.065  0.00  0.00    +0.125 C 
ATOM     12  C   UNL     1      15.357   4.850  -1.779  0.00  0.00    +0.036 C 
ATOM     13  C   UNL     1      14.134   4.020  -1.402  0.00  0.00    +0.034 C 
ENDROOT
BRANCH  10   2
ATOM      2  O   UNL     1      16.952   3.579  -0.536  0.00  0.00    -0.389 OA
ATOM     31  H   UNL     1      17.728   3.649   0.047  0.00  0.00    +0.210 HD
ENDBRANCH  10   2
BRANCH   9  14
ATOM     14  C   UNL     1      15.405   6.727   0.839  0.00  0.00    +0.140 C 
BRANCH  14   6
ATOM      3  O   UNL     1      13.571   7.808   6.893  0.00  0.00    -0.377 OA
ATOM      5  O   UNL     1      12.925   7.361   2.009  0.00  0.00    -0.253 OA
ATOM      6  N   UNL     1      15.193   7.090   2.222  0.00  0.00    -0.297 N 
ATOM      7  N   UNL     1      13.888   7.731   4.086  0.00  0.00    -0.281 N 
ATOM     17  C   UNL     1      13.932   7.389   2.723  0.00  0.00    +0.302 C 
ATOM     18  C   UNL     1      12.600   8.068   4.697  0.00  0.00    +0.137 C 
ATOM     19  C   UNL     1      15.047   7.936   4.967  0.00  0.00    +0.137 C 
ATOM     21  C   UNL     1      12.465   7.434   6.072  0.00  0.00    +0.179 C 
ATOM     22  C   UNL     1      14.798   7.328   6.342  0.00  0.00    +0.179 C 
ATOM     30  H   UNL     1      16.021   7.136   2.799  0.00  0.00    +0.150 HD
ENDBRANCH  14   6
ENDBRANCH   9  14
BRANCH  11  15
ATOM     15  C   UNL     1      12.413   3.581   0.376  0.00  0.00    +0.090 C 
BRANCH  15  16
ATOM      4  O   UNL     1       9.861   5.561   1.976  0.00  0.00    -0.354 OA
ATOM      8  N   UNL     1      10.521   5.082   0.850  0.00  0.00    -0.083 NA
ATOM     16  C   UNL     1      11.483   4.285   1.327  0.00  0.00    +0.087 A 
ATOM     20  C   UNL     1      11.478   4.224   2.731  0.00  0.00    +0.076 A 
ATOM     23  C   UNL     1      10.440   5.043   3.089  0.00  0.00    +0.167 A 
BRANCH  23  24
ATOM     24  C   UNL     1       9.861   5.447   4.338  0.00  0.00    +0.020 A 
ATOM     25  C   UNL     1      10.110   4.707   5.493  0.00  0.00    +0.011 A 
ATOM     26  C   UNL     1       9.050   6.580   4.396  0.00  0.00    +0.011 A 
ATOM     27  C   UNL     1       9.547   5.101   6.707  0.00  0.00    +0.001 A 
ATOM     28  C   UNL     1       8.487   6.974   5.610  0.00  0.00    +0.001 A 
ATOM     29  C   UNL     1       8.736   6.235   6.766  0.00  0.00    +0.000 A 
ENDBRANCH  23  24
ENDBRANCH  15  16
ENDBRANCH  11  15
TORSDOF 6
ENDMDL
