MODEL 1
REMARK VINA RESULT:      -7.2      0.000      0.000
REMARK  Name = 75536852
REMARK  6 active torsions:
REMARK  status: ('A' for Active; 'I' for Inactive)
REMARK    1  A    between atoms: O_5  and  C_10
REMARK    2  A    between atoms: O_5  and  C_19
REMARK    3  A    between atoms: C_15  and  C_16
REMARK    4  A    between atoms: C_17  and  C_21
REMARK    5  A    between atoms: C_20  and  C_23
REMARK    6  A    between atoms: C_24  and  C_27
REMARK                            x       y       z     vdW  Elec       q    Type
REMARK                         _______ _______ _______ _____ _____    ______ ____
ROOT
ATOM      4  O   UNL     1      10.956   7.894  22.569  0.00  0.00    -0.375 OA
ATOM      7  O   UNL     1      14.040   6.977  18.970  0.00  0.00    -0.270 OA
ATOM      8  N   UNL     1      13.183   8.563  20.468  0.00  0.00    -0.292 N 
ATOM     10  C   UNL     1      11.729  10.106  21.890  0.00  0.00    +0.218 C 
ATOM     11  C   UNL     1      12.675   9.921  20.700  0.00  0.00    +0.155 C 
ATOM     12  C   UNL     1      13.181   7.619  21.587  0.00  0.00    +0.136 C 
ATOM     13  C   UNL     1      10.582   9.099  21.908  0.00  0.00    +0.206 C 
ATOM     14  C   UNL     1      11.793   7.031  21.806  0.00  0.00    +0.179 C 
ATOM     15  C   UNL     1      13.637   8.113  19.217  0.00  0.00    +0.250 C 
ENDROOT
BRANCH  15  16
ATOM      6  O   UNL     1      12.928  10.204  16.291  0.00  0.00    -0.455 OA
ATOM     16  C   UNL     1      13.639   9.063  18.093  0.00  0.00    +0.087 A 
ATOM     17  C   UNL     1      12.602   9.256  17.210  0.00  0.00    +0.220 A 
ATOM     18  C   UNL     1      14.668   9.948  17.691  0.00  0.00    +0.058 A 
ATOM     20  C   UNL     1      14.187  10.619  16.592  0.00  0.00    +0.103 A 
ATOM     23  C   UNL     1      14.754  11.658  15.720  0.00  0.00    +0.086 C 
BRANCH  17  21
ATOM      1  F   UNL     1      10.455   8.826  18.171  0.00  0.00    -0.163 F 
ATOM      2  F   UNL     1      10.523   9.164  16.030  0.00  0.00    -0.163 F 
ATOM      3  F   UNL     1      11.290   7.306  16.860  0.00  0.00    -0.163 F 
ATOM     21  C   UNL     1      11.264   8.661  17.073  0.00  0.00    +0.451 C 
ENDBRANCH  17  21
ENDBRANCH  15  16
BRANCH  10   5
ATOM      5  O   UNL     1      11.189  11.425  21.785  0.00  0.00    -0.469 OA
BRANCH   5  19
ATOM      9  N   UNL     1      10.518  13.360  22.869  0.00  0.00    -0.218 NA
ATOM     19  C   UNL     1      10.976  12.092  22.959  0.00  0.00    +0.215 A 
ATOM     22  C   UNL     1      11.238  11.444  24.156  0.00  0.00    +0.067 A 
ATOM     24  C   UNL     1      10.312  14.009  24.038  0.00  0.00    +0.042 A 
ATOM     25  C   UNL     1      11.015  12.145  25.337  0.00  0.00    +0.007 A 
ATOM     26  C   UNL     1      10.543  13.451  25.285  0.00  0.00    +0.023 A 
ATOM     27  C   UNL     1       9.809  15.410  23.945  0.00  0.00    +0.066 C 
ENDBRANCH   5  19
ENDBRANCH  10   5
TORSDOF 4
ENDMDL
MODEL 2
REMARK VINA RESULT:      -6.7      3.227      4.208
REMARK  Name = 75536852
REMARK  6 active torsions:
REMARK  status: ('A' for Active; 'I' for Inactive)
REMARK    1  A    between atoms: O_5  and  C_10
REMARK    2  A    between atoms: O_5  and  C_19
REMARK    3  A    between atoms: C_15  and  C_16
REMARK    4  A    between atoms: C_17  and  C_21
REMARK    5  A    between atoms: C_20  and  C_23
REMARK    6  A    between atoms: C_24  and  C_27
REMARK                            x       y       z     vdW  Elec       q    Type
REMARK                         _______ _______ _______ _____ _____    ______ ____
ROOT
ATOM      4  O   UNL     1      10.982  10.838  22.402  0.00  0.00    -0.375 OA
ATOM      7  O   UNL     1      11.746   6.398  20.666  0.00  0.00    -0.270 OA
ATOM      8  N   UNL     1      12.629   8.235  21.823  0.00  0.00    -0.292 N 
ATOM     10  C   UNL     1      13.394  10.538  22.617  0.00  0.00    +0.218 C 
ATOM     11  C   UNL     1      13.744   9.168  22.029  0.00  0.00    +0.155 C 
ATOM     12  C   UNL     1      11.403   8.434  22.598  0.00  0.00    +0.136 C 
ATOM     13  C   UNL     1      12.248  11.231  21.883  0.00  0.00    +0.206 C 
ATOM     14  C   UNL     1      10.549   9.543  21.997  0.00  0.00    +0.179 C 
ATOM     15  C   UNL     1      12.666   7.182  20.893  0.00  0.00    +0.250 C 
ENDROOT
BRANCH  15  16
ATOM      6  O   UNL     1      15.334   7.023  18.386  0.00  0.00    -0.455 OA
ATOM     16  C   UNL     1      13.899   6.982  20.115  0.00  0.00    +0.087 A 
ATOM     17  C   UNL     1      14.083   7.352  18.803  0.00  0.00    +0.220 A 
ATOM     18  C   UNL     1      15.115   6.388  20.531  0.00  0.00    +0.058 A 
ATOM     20  C   UNL     1      15.955   6.437  19.444  0.00  0.00    +0.103 A 
ATOM     23  C   UNL     1      17.339   5.996  19.221  0.00  0.00    +0.086 C 
BRANCH  17  21
ATOM      1  F   UNL     1      13.824   8.216  16.588  0.00  0.00    -0.163 F 
ATOM      2  F   UNL     1      12.076   7.314  17.502  0.00  0.00    -0.163 F 
ATOM      3  F   UNL     1      12.786   9.249  18.195  0.00  0.00    -0.163 F 
ATOM     21  C   UNL     1      13.224   8.008  17.806  0.00  0.00    +0.451 C 
ENDBRANCH  17  21
ENDBRANCH  15  16
BRANCH  10   5
ATOM      5  O   UNL     1      14.569  11.343  22.512  0.00  0.00    -0.469 OA
BRANCH   5  19
ATOM      9  N   UNL     1      16.383  12.289  23.604  0.00  0.00    -0.218 NA
ATOM     19  C   UNL     1      15.164  11.710  23.687  0.00  0.00    +0.215 A 
ATOM     22  C   UNL     1      14.498  11.473  24.879  0.00  0.00    +0.067 A 
ATOM     24  C   UNL     1      16.960  12.645  24.773  0.00  0.00    +0.042 A 
ATOM     25  C   UNL     1      15.124  11.853  26.061  0.00  0.00    +0.007 A 
ATOM     26  C   UNL     1      16.378  12.451  26.016  0.00  0.00    +0.023 A 
ATOM     27  C   UNL     1      18.306  13.282  24.687  0.00  0.00    +0.066 C 
ENDBRANCH   5  19
ENDBRANCH  10   5
TORSDOF 4
ENDMDL
MODEL 3
REMARK VINA RESULT:      -6.4     13.650     17.864
REMARK  Name = 75536852
REMARK  6 active torsions:
REMARK  status: ('A' for Active; 'I' for Inactive)
REMARK    1  A    between atoms: O_5  and  C_10
REMARK    2  A    between atoms: O_5  and  C_19
REMARK    3  A    between atoms: C_15  and  C_16
REMARK    4  A    between atoms: C_17  and  C_21
REMARK    5  A    between atoms: C_20  and  C_23
REMARK    6  A    between atoms: C_24  and  C_27
REMARK                            x       y       z     vdW  Elec       q    Type
REMARK                         _______ _______ _______ _____ _____    ______ ____
ROOT
ATOM      4  O   UNL     1       8.786   9.094   2.321  0.00  0.00    -0.375 OA
ATOM      7  O   UNL     1      10.447   9.649   6.820  0.00  0.00    -0.270 OA
ATOM      8  N   UNL     1      10.530   8.409   4.833  0.00  0.00    -0.292 N 
ATOM     10  C   UNL     1      10.035   7.039   2.736  0.00  0.00    +0.218 C 
ATOM     11  C   UNL     1      10.554   7.096   4.176  0.00  0.00    +0.155 C 
ATOM     12  C   UNL     1      10.499   9.607   3.993  0.00  0.00    +0.136 C 
ATOM     13  C   UNL     1       8.668   7.696   2.564  0.00  0.00    +0.206 C 
ATOM     14  C   UNL     1       9.094   9.875   3.471  0.00  0.00    +0.179 C 
ATOM     15  C   UNL     1      10.499   8.572   6.228  0.00  0.00    +0.250 C 
ENDROOT
BRANCH  15  16
ATOM      6  O   UNL     1      11.338   5.590   8.187  0.00  0.00    -0.455 OA
ATOM     16  C   UNL     1      10.531   7.367   7.072  0.00  0.00    +0.087 A 
ATOM     17  C   UNL     1      11.657   6.645   7.391  0.00  0.00    +0.220 A 
ATOM     18  C   UNL     1       9.451   6.714   7.713  0.00  0.00    +0.058 A 
ATOM     20  C   UNL     1       9.993   5.640   8.378  0.00  0.00    +0.103 A 
ATOM     23  C   UNL     1       9.418   4.583   9.222  0.00  0.00    +0.086 C 
BRANCH  17  21
ATOM      1  F   UNL     1      13.369   6.598   5.722  0.00  0.00    -0.163 F 
ATOM      2  F   UNL     1      13.612   8.023   7.338  0.00  0.00    -0.163 F 
ATOM      3  F   UNL     1      13.891   5.899   7.713  0.00  0.00    -0.163 F 
ATOM     21  C   UNL     1      13.081   6.788   7.052  0.00  0.00    +0.451 C 
ENDBRANCH  17  21
ENDBRANCH  15  16
BRANCH  10   5
ATOM      5  O   UNL     1       9.935   5.657   2.389  0.00  0.00    -0.469 OA
BRANCH   5  19
ATOM      9  N   UNL     1      11.451   5.683   0.635  0.00  0.00    -0.218 NA
ATOM     19  C   UNL     1      11.025   5.101   1.779  0.00  0.00    +0.215 A 
ATOM     22  C   UNL     1      11.623   3.991   2.354  0.00  0.00    +0.067 A 
ATOM     24  C   UNL     1      12.529   5.122   0.041  0.00  0.00    +0.042 A 
ATOM     25  C   UNL     1      12.728   3.442   1.713  0.00  0.00    +0.007 A 
ATOM     26  C   UNL     1      13.196   4.013   0.535  0.00  0.00    +0.023 A 
ATOM     27  C   UNL     1      13.001   5.758  -1.223  0.00  0.00    +0.066 C 
ENDBRANCH   5  19
ENDBRANCH  10   5
TORSDOF 4
ENDMDL
MODEL 4
REMARK VINA RESULT:      -6.4     13.280     15.549
REMARK  Name = 75536852
REMARK  6 active torsions:
REMARK  status: ('A' for Active; 'I' for Inactive)
REMARK    1  A    between atoms: O_5  and  C_10
REMARK    2  A    between atoms: O_5  and  C_19
REMARK    3  A    between atoms: C_15  and  C_16
REMARK    4  A    between atoms: C_17  and  C_21
REMARK    5  A    between atoms: C_20  and  C_23
REMARK    6  A    between atoms: C_24  and  C_27
REMARK                            x       y       z     vdW  Elec       q    Type
REMARK                         _______ _______ _______ _____ _____    ______ ____
ROOT
ATOM      4  O   UNL     1      11.691   9.795   3.799  0.00  0.00    -0.375 OA
ATOM      7  O   UNL     1       7.858   8.127   6.213  0.00  0.00    -0.270 OA
ATOM      8  N   UNL     1      10.125   8.716   6.290  0.00  0.00    -0.292 N 
ATOM     10  C   UNL     1      12.633   9.001   5.905  0.00  0.00    +0.218 C 
ATOM     11  C   UNL     1      11.490   8.392   6.722  0.00  0.00    +0.155 C 
ATOM     12  C   UNL     1       9.920   9.920   5.483  0.00  0.00    +0.136 C 
ATOM     13  C   UNL     1      12.483   8.777   4.402  0.00  0.00    +0.206 C 
ATOM     14  C   UNL     1      10.291   9.674   4.026  0.00  0.00    +0.179 C 
ATOM     15  C   UNL     1       9.012   7.911   6.581  0.00  0.00    +0.250 C 
ENDROOT
BRANCH  15  16
ATOM      6  O   UNL     1       9.727   4.577   7.926  0.00  0.00    -0.455 OA
ATOM     16  C   UNL     1       9.220   6.701   7.393  0.00  0.00    +0.087 A 
ATOM     17  C   UNL     1       9.638   5.481   6.914  0.00  0.00    +0.220 A 
ATOM     18  C   UNL     1       9.040   6.536   8.787  0.00  0.00    +0.058 A 
ATOM     20  C   UNL     1       9.361   5.227   9.062  0.00  0.00    +0.103 A 
ATOM     23  C   UNL     1       9.384   4.435  10.299  0.00  0.00    +0.086 C 
BRANCH  17  21
ATOM      1  F   UNL     1       9.097   5.321   4.590  0.00  0.00    -0.163 F 
ATOM      2  F   UNL     1      11.200   5.445   5.103  0.00  0.00    -0.163 F 
ATOM      3  F   UNL     1      10.091   3.619   5.508  0.00  0.00    -0.163 F 
ATOM     21  C   UNL     1       9.994   4.987   5.576  0.00  0.00    +0.451 C 
ENDBRANCH  17  21
ENDBRANCH  15  16
BRANCH  10   5
ATOM      5  O   UNL     1      13.837   8.376   6.352  0.00  0.00    -0.469 OA
BRANCH   5  19
ATOM      9  N   UNL     1      16.111   8.541   5.933  0.00  0.00    -0.218 NA
ATOM     19  C   UNL     1      14.968   9.143   6.330  0.00  0.00    +0.215 A 
ATOM     22  C   UNL     1      14.883  10.474   6.709  0.00  0.00    +0.067 A 
ATOM     24  C   UNL     1      17.222   9.311   5.916  0.00  0.00    +0.042 A 
ATOM     25  C   UNL     1      16.048  11.234   6.680  0.00  0.00    +0.007 A 
ATOM     26  C   UNL     1      17.243  10.649   6.277  0.00  0.00    +0.023 A 
ATOM     27  C   UNL     1      18.487   8.651   5.482  0.00  0.00    +0.066 C 
ENDBRANCH   5  19
ENDBRANCH  10   5
TORSDOF 4
ENDMDL
MODEL 5
REMARK VINA RESULT:      -6.4     10.286     12.991
REMARK  Name = 75536852
REMARK  6 active torsions:
REMARK  status: ('A' for Active; 'I' for Inactive)
REMARK    1  A    between atoms: O_5  and  C_10
REMARK    2  A    between atoms: O_5  and  C_19
REMARK    3  A    between atoms: C_15  and  C_16
REMARK    4  A    between atoms: C_17  and  C_21
REMARK    5  A    between atoms: C_20  and  C_23
REMARK    6  A    between atoms: C_24  and  C_27
REMARK                            x       y       z     vdW  Elec       q    Type
REMARK                         _______ _______ _______ _____ _____    ______ ____
ROOT
ATOM      4  O   UNL     1      10.430  11.762   5.746  0.00  0.00    -0.375 OA
ATOM      7  O   UNL     1       8.750   7.253   5.355  0.00  0.00    -0.270 OA
ATOM      8  N   UNL     1       9.131   9.094   6.754  0.00  0.00    -0.292 N 
ATOM     10  C   UNL     1      10.092  11.065   8.060  0.00  0.00    +0.218 C 
ATOM     11  C   UNL     1       9.614   9.611   8.041  0.00  0.00    +0.155 C 
ATOM     12  C   UNL     1       8.677  10.053   5.746  0.00  0.00    +0.136 C 
ATOM     13  C   UNL     1      11.091  11.384   6.950  0.00  0.00    +0.206 C 
ATOM     14  C   UNL     1       9.858  10.681   5.017  0.00  0.00    +0.179 C 
ATOM     15  C   UNL     1       9.116   7.727   6.430  0.00  0.00    +0.250 C 
ENDROOT
BRANCH  15  16
ATOM      6  O   UNL     1      10.952   5.476   8.665  0.00  0.00    -0.455 OA
ATOM     16  C   UNL     1       9.571   6.764   7.445  0.00  0.00    +0.087 A 
ATOM     17  C   UNL     1      10.875   6.381   7.653  0.00  0.00    +0.220 A 
ATOM     18  C   UNL     1       8.796   6.050   8.390  0.00  0.00    +0.058 A 
ATOM     20  C   UNL     1       9.681   5.281   9.108  0.00  0.00    +0.103 A 
ATOM     23  C   UNL     1       9.520   4.331  10.217  0.00  0.00    +0.086 C 
BRANCH  17  21
ATOM      1  F   UNL     1      12.425   8.091   7.026  0.00  0.00    -0.163 F 
ATOM      2  F   UNL     1      13.258   6.173   7.599  0.00  0.00    -0.163 F 
ATOM      3  F   UNL     1      12.226   6.382   5.697  0.00  0.00    -0.163 F 
ATOM     21  C   UNL     1      12.151   6.745   7.018  0.00  0.00    +0.451 C 
ENDBRANCH  17  21
ENDBRANCH  15  16
BRANCH  10   5
ATOM      5  O   UNL     1      10.721  11.275   9.326  0.00  0.00    -0.469 OA
BRANCH   5  19
ATOM      9  N   UNL     1       8.780  12.403   9.903  0.00  0.00    -0.218 NA
ATOM     19  C   UNL     1       9.963  11.877  10.291  0.00  0.00    +0.215 A 
ATOM     22  C   UNL     1      10.439  11.915  11.592  0.00  0.00    +0.067 A 
ATOM     24  C   UNL     1       8.040  12.996  10.867  0.00  0.00    +0.042 A 
ATOM     25  C   UNL     1       9.651  12.535  12.556  0.00  0.00    +0.007 A 
ATOM     26  C   UNL     1       8.427  13.087  12.194  0.00  0.00    +0.023 A 
ATOM     27  C   UNL     1       6.735  13.582  10.443  0.00  0.00    +0.066 C 
ENDBRANCH   5  19
ENDBRANCH  10   5
TORSDOF 4
ENDMDL
MODEL 6
REMARK VINA RESULT:      -6.3     17.592     20.924
REMARK  Name = 75536852
REMARK  6 active torsions:
REMARK  status: ('A' for Active; 'I' for Inactive)
REMARK    1  A    between atoms: O_5  and  C_10
REMARK    2  A    between atoms: O_5  and  C_19
REMARK    3  A    between atoms: C_15  and  C_16
REMARK    4  A    between atoms: C_17  and  C_21
REMARK    5  A    between atoms: C_20  and  C_23
REMARK    6  A    between atoms: C_24  and  C_27
REMARK                            x       y       z     vdW  Elec       q    Type
REMARK                         _______ _______ _______ _____ _____    ______ ____
ROOT
ATOM      4  O   UNL     1      14.575   3.562   1.583  0.00  0.00    -0.375 OA
ATOM      7  O   UNL     1      13.469   5.377  -2.752  0.00  0.00    -0.270 OA
ATOM      8  N   UNL     1      12.902   5.222  -0.483  0.00  0.00    -0.292 N 
ATOM     10  C   UNL     1      12.333   4.473   1.891  0.00  0.00    +0.218 C 
ATOM     11  C   UNL     1      11.867   5.022   0.539  0.00  0.00    +0.155 C 
ATOM     12  C   UNL     1      14.292   5.367  -0.046  0.00  0.00    +0.136 C 
ATOM     13  C   UNL     1      13.203   3.226   1.764  0.00  0.00    +0.206 C 
ATOM     14  C   UNL     1      14.910   4.013   0.275  0.00  0.00    +0.179 C 
ATOM     15  C   UNL     1      12.631   5.245  -1.861  0.00  0.00    +0.250 C 
ENDROOT
BRANCH  15  16
ATOM      6  O   UNL     1       9.340   4.135  -3.034  0.00  0.00    -0.455 OA
ATOM     16  C   UNL     1      11.234   5.099  -2.299  0.00  0.00    +0.087 A 
ATOM     17  C   UNL     1      10.638   3.922  -2.689  0.00  0.00    +0.220 A 
ATOM     18  C   UNL     1      10.238   6.099  -2.411  0.00  0.00    +0.058 A 
ATOM     20  C   UNL     1       9.106   5.463  -2.862  0.00  0.00    +0.103 A 
ATOM     23  C   UNL     1       7.748   5.928  -3.176  0.00  0.00    +0.086 C 
BRANCH  17  21
ATOM      1  F   UNL     1      11.889   2.114  -1.748  0.00  0.00    -0.163 F 
ATOM      2  F   UNL     1      10.113   1.596  -2.879  0.00  0.00    -0.163 F 
ATOM      3  F   UNL     1      11.887   2.312  -3.913  0.00  0.00    -0.163 F 
ATOM     21  C   UNL     1      11.114   2.535  -2.801  0.00  0.00    +0.451 C 
ENDBRANCH  17  21
ENDBRANCH  15  16
BRANCH  10   5
ATOM      5  O   UNL     1      11.155   4.147   2.630  0.00  0.00    -0.469 OA
BRANCH   5  19
ATOM      9  N   UNL     1      11.632   6.001   3.936  0.00  0.00    -0.218 NA
ATOM     19  C   UNL     1      10.948   4.845   3.787  0.00  0.00    +0.215 A 
ATOM     22  C   UNL     1      10.065   4.338   4.727  0.00  0.00    +0.067 A 
ATOM     24  C   UNL     1      11.418   6.681   5.085  0.00  0.00    +0.042 A 
ATOM     25  C   UNL     1       9.872   5.066   5.897  0.00  0.00    +0.007 A 
ATOM     26  C   UNL     1      10.558   6.260   6.086  0.00  0.00    +0.023 A 
ATOM     27  C   UNL     1      12.173   7.957   5.257  0.00  0.00    +0.066 C 
ENDBRANCH   5  19
ENDBRANCH  10   5
TORSDOF 4
ENDMDL
MODEL 7
REMARK VINA RESULT:      -6.2     26.610     28.488
REMARK  Name = 75536852
REMARK  6 active torsions:
REMARK  status: ('A' for Active; 'I' for Inactive)
REMARK    1  A    between atoms: O_5  and  C_10
REMARK    2  A    between atoms: O_5  and  C_19
REMARK    3  A    between atoms: C_15  and  C_16
REMARK    4  A    between atoms: C_17  and  C_21
REMARK    5  A    between atoms: C_20  and  C_23
REMARK    6  A    between atoms: C_24  and  C_27
REMARK                            x       y       z     vdW  Elec       q    Type
REMARK                         _______ _______ _______ _____ _____    ______ ____
ROOT
ATOM      4  O   UNL     1      -8.630 -11.432  19.129  0.00  0.00    -0.375 OA
ATOM      7  O   UNL     1      -3.828 -11.925  19.093  0.00  0.00    -0.270 OA
ATOM      8  N   UNL     1      -5.688 -10.740  18.301  0.00  0.00    -0.292 N 
ATOM     10  C   UNL     1      -7.912  -9.987  17.299  0.00  0.00    +0.218 C 
ATOM     11  C   UNL     1      -6.393 -10.126  17.169  0.00  0.00    +0.155 C 
ATOM     12  C   UNL     1      -6.336 -10.727  19.613  0.00  0.00    +0.136 C 
ATOM     13  C   UNL     1      -8.600 -11.285  17.713  0.00  0.00    +0.206 C 
ATOM     14  C   UNL     1      -7.391 -11.821  19.714  0.00  0.00    +0.179 C 
ATOM     15  C   UNL     1      -4.438 -11.371  18.180  0.00  0.00    +0.250 C 
ENDROOT
BRANCH  15  16
ATOM      6  O   UNL     1      -3.237 -12.043  14.783  0.00  0.00    -0.455 OA
ATOM     16  C   UNL     1      -3.787 -11.383  16.861  0.00  0.00    +0.087 A 
ATOM     17  C   UNL     1      -3.994 -12.322  15.877  0.00  0.00    +0.220 A 
ATOM     18  C   UNL     1      -2.843 -10.468  16.338  0.00  0.00    +0.058 A 
ATOM     20  C   UNL     1      -2.539 -10.912  15.073  0.00  0.00    +0.103 A 
ATOM     23  C   UNL     1      -1.644 -10.415  14.019  0.00  0.00    +0.086 C 
BRANCH  17  21
ATOM      1  F   UNL     1      -4.769 -14.175  14.578  0.00  0.00    -0.163 F 
ATOM      2  F   UNL     1      -4.552 -14.493  16.712  0.00  0.00    -0.163 F 
ATOM      3  F   UNL     1      -6.177 -13.260  15.958  0.00  0.00    -0.163 F 
ATOM     21  C   UNL     1      -4.841 -13.521  15.784  0.00  0.00    +0.451 C 
ENDBRANCH  17  21
ENDBRANCH  15  16
BRANCH  10   5
ATOM      5  O   UNL     1      -8.400  -9.590  16.016  0.00  0.00    -0.469 OA
BRANCH   5  19
ATOM      9  N   UNL     1     -10.244  -8.746  14.892  0.00  0.00    -0.218 NA
ATOM     19  C   UNL     1      -9.480  -8.751  16.008  0.00  0.00    +0.215 A 
ATOM     22  C   UNL     1      -9.729  -7.966  17.123  0.00  0.00    +0.067 A 
ATOM     24  C   UNL     1     -11.308  -7.911  14.897  0.00  0.00    +0.042 A 
ATOM     25  C   UNL     1     -10.832  -7.120  17.089  0.00  0.00    +0.007 A 
ATOM     26  C   UNL     1     -11.641  -7.087  15.959  0.00  0.00    +0.023 A 
ATOM     27  C   UNL     1     -12.152  -7.899  13.667  0.00  0.00    +0.066 C 
ENDBRANCH   5  19
ENDBRANCH  10   5
TORSDOF 4
ENDMDL
MODEL 8
REMARK VINA RESULT:      -6.2     13.664     18.013
REMARK  Name = 75536852
REMARK  6 active torsions:
REMARK  status: ('A' for Active; 'I' for Inactive)
REMARK    1  A    between atoms: O_5  and  C_10
REMARK    2  A    between atoms: O_5  and  C_19
REMARK    3  A    between atoms: C_15  and  C_16
REMARK    4  A    between atoms: C_17  and  C_21
REMARK    5  A    between atoms: C_20  and  C_23
REMARK    6  A    between atoms: C_24  and  C_27
REMARK                            x       y       z     vdW  Elec       q    Type
REMARK                         _______ _______ _______ _____ _____    ______ ____
ROOT
ATOM      4  O   UNL     1      12.708   8.858   2.495  0.00  0.00    -0.375 OA
ATOM      7  O   UNL     1      12.673   8.786   7.322  0.00  0.00    -0.270 OA
ATOM      8  N   UNL     1      12.563   7.545   5.337  0.00  0.00    -0.292 N 
ATOM     10  C   UNL     1      12.020   6.580   3.037  0.00  0.00    +0.218 C 
ATOM     11  C   UNL     1      11.920   6.477   4.561  0.00  0.00    +0.155 C 
ATOM     12  C   UNL     1      13.626   8.323   4.700  0.00  0.00    +0.136 C 
ATOM     13  C   UNL     1      11.611   7.950   2.499  0.00  0.00    +0.206 C 
ATOM     14  C   UNL     1      13.049   9.385   3.773  0.00  0.00    +0.179 C 
ATOM     15  C   UNL     1      12.184   7.880   6.648  0.00  0.00    +0.250 C 
ENDROOT
BRANCH  15  16
ATOM      6  O   UNL     1       9.061   6.487   7.966  0.00  0.00    -0.455 OA
ATOM     16  C   UNL     1      11.116   7.097   7.287  0.00  0.00    +0.087 A 
ATOM     17  C   UNL     1       9.779   7.420   7.285  0.00  0.00    +0.220 A 
ATOM     18  C   UNL     1      11.227   5.889   8.016  0.00  0.00    +0.058 A 
ATOM     20  C   UNL     1       9.951   5.560   8.408  0.00  0.00    +0.103 A 
ATOM     23  C   UNL     1       9.392   4.440   9.178  0.00  0.00    +0.086 C 
BRANCH  17  21
ATOM      1  F   UNL     1       8.965   9.659   7.497  0.00  0.00    -0.163 F 
ATOM      2  F   UNL     1       9.477   8.984   5.501  0.00  0.00    -0.163 F 
ATOM      3  F   UNL     1       7.691   8.221   6.479  0.00  0.00    -0.163 F 
ATOM     21  C   UNL     1       9.007   8.533   6.711  0.00  0.00    +0.451 C 
ENDBRANCH  17  21
ENDBRANCH  15  16
BRANCH  10   5
ATOM      5  O   UNL     1      11.145   5.588   2.498  0.00  0.00    -0.469 OA
BRANCH   5  19
ATOM      9  N   UNL     1      11.040   4.799   0.321  0.00  0.00    -0.218 NA
ATOM     19  C   UNL     1      11.662   4.783   1.522  0.00  0.00    +0.215 A 
ATOM     22  C   UNL     1      12.774   4.008   1.810  0.00  0.00    +0.067 A 
ATOM     24  C   UNL     1      11.561   3.997  -0.635  0.00  0.00    +0.042 A 
ATOM     25  C   UNL     1      13.280   3.196   0.801  0.00  0.00    +0.007 A 
ATOM     26  C   UNL     1      12.668   3.186  -0.447  0.00  0.00    +0.023 A 
ATOM     27  C   UNL     1      10.877   4.008  -1.961  0.00  0.00    +0.066 C 
ENDBRANCH   5  19
ENDBRANCH  10   5
TORSDOF 4
ENDMDL
MODEL 9
REMARK VINA RESULT:      -6.2      4.362      7.605
REMARK  Name = 75536852
REMARK  6 active torsions:
REMARK  status: ('A' for Active; 'I' for Inactive)
REMARK    1  A    between atoms: O_5  and  C_10
REMARK    2  A    between atoms: O_5  and  C_19
REMARK    3  A    between atoms: C_15  and  C_16
REMARK    4  A    between atoms: C_17  and  C_21
REMARK    5  A    between atoms: C_20  and  C_23
REMARK    6  A    between atoms: C_24  and  C_27
REMARK                            x       y       z     vdW  Elec       q    Type
REMARK                         _______ _______ _______ _____ _____    ______ ____
ROOT
ATOM      4  O   UNL     1      16.989  11.012  20.964  0.00  0.00    -0.375 OA
ATOM      7  O   UNL     1      12.291  10.432  21.911  0.00  0.00    -0.270 OA
ATOM      8  N   UNL     1      14.446   9.519  22.027  0.00  0.00    -0.292 N 
ATOM     10  C   UNL     1      16.807   8.657  21.579  0.00  0.00    +0.218 C 
ATOM     11  C   UNL     1      15.328   8.360  21.840  0.00  0.00    +0.155 C 
ATOM     12  C   UNL     1      15.046  10.790  22.437  0.00  0.00    +0.136 C 
ATOM     13  C   UNL     1      17.027   9.678  20.465  0.00  0.00    +0.206 C 
ATOM     14  C   UNL     1      15.684  11.503  21.251  0.00  0.00    +0.179 C 
ATOM     15  C   UNL     1      13.061   9.479  21.798  0.00  0.00    +0.250 C 
ENDROOT
BRANCH  15  16
ATOM      6  O   UNL     1      11.776   6.518  20.063  0.00  0.00    -0.455 OA
ATOM     16  C   UNL     1      12.458   8.201  21.387  0.00  0.00    +0.087 A 
ATOM     17  C   UNL     1      12.397   7.726  20.097  0.00  0.00    +0.220 A 
ATOM     18  C   UNL     1      11.835   7.222  22.197  0.00  0.00    +0.058 A 
ATOM     20  C   UNL     1      11.437   6.219  21.345  0.00  0.00    +0.103 A 
ATOM     23  C   UNL     1      10.746   4.938  21.552  0.00  0.00    +0.086 C 
BRANCH  17  21
ATOM      1  F   UNL     1      14.201   8.522  18.743  0.00  0.00    -0.163 F 
ATOM      2  F   UNL     1      12.635   7.409  17.738  0.00  0.00    -0.163 F 
ATOM      3  F   UNL     1      12.248   9.429  18.445  0.00  0.00    -0.163 F 
ATOM     21  C   UNL     1      12.856   8.251  18.802  0.00  0.00    +0.451 C 
ENDBRANCH  17  21
ENDBRANCH  15  16
BRANCH  10   5
ATOM      5  O   UNL     1      17.415   7.420  21.203  0.00  0.00    -0.469 OA
BRANCH   5  19
ATOM      9  N   UNL     1      19.429   6.331  20.837  0.00  0.00    -0.218 NA
ATOM     19  C   UNL     1      18.735   7.268  21.523  0.00  0.00    +0.215 A 
ATOM     22  C   UNL     1      19.282   8.065  22.516  0.00  0.00    +0.067 A 
ATOM     24  C   UNL     1      20.733   6.190  21.164  0.00  0.00    +0.042 A 
ATOM     25  C   UNL     1      20.627   7.890  22.825  0.00  0.00    +0.007 A 
ATOM     26  C   UNL     1      21.373   6.937  22.140  0.00  0.00    +0.023 A 
ATOM     27  C   UNL     1      21.502   5.156  20.412  0.00  0.00    +0.066 C 
ENDBRANCH   5  19
ENDBRANCH  10   5
TORSDOF 4
ENDMDL
MODEL 10
REMARK VINA RESULT:      -6.1     27.423     29.782
REMARK  Name = 75536852
REMARK  6 active torsions:
REMARK  status: ('A' for Active; 'I' for Inactive)
REMARK    1  A    between atoms: O_5  and  C_10
REMARK    2  A    between atoms: O_5  and  C_19
REMARK    3  A    between atoms: C_15  and  C_16
REMARK    4  A    between atoms: C_17  and  C_21
REMARK    5  A    between atoms: C_20  and  C_23
REMARK    6  A    between atoms: C_24  and  C_27
REMARK                            x       y       z     vdW  Elec       q    Type
REMARK                         _______ _______ _______ _____ _____    ______ ____
ROOT
ATOM      4  O   UNL     1     -14.826   4.130  34.239  0.00  0.00    -0.375 OA
ATOM      7  O   UNL     1     -15.764   8.853  33.895  0.00  0.00    -0.270 OA
ATOM      8  N   UNL     1     -15.645   6.787  32.794  0.00  0.00    -0.292 N 
ATOM     10  C   UNL     1     -14.978   4.517  31.835  0.00  0.00    +0.218 C 
ATOM     11  C   UNL     1     -15.215   6.015  31.622  0.00  0.00    +0.155 C 
ATOM     12  C   UNL     1     -16.278   6.072  33.903  0.00  0.00    +0.136 C 
ATOM     13  C   UNL     1     -14.078   4.216  33.031  0.00  0.00    +0.206 C 
ATOM     14  C   UNL     1     -15.237   5.383  34.776  0.00  0.00    +0.179 C 
ATOM     15  C   UNL     1     -15.448   8.173  32.919  0.00  0.00    +0.250 C 
ENDROOT
BRANCH  15  16
ATOM      6  O   UNL     1     -13.207   9.714  30.463  0.00  0.00    -0.455 OA
ATOM     16  C   UNL     1     -14.813   8.891  31.803  0.00  0.00    +0.087 A 
ATOM     17  C   UNL     1     -13.459   8.977  31.578  0.00  0.00    +0.220 A 
ATOM     18  C   UNL     1     -15.433   9.621  30.761  0.00  0.00    +0.058 A 
ATOM     20  C   UNL     1     -14.414  10.102  29.973  0.00  0.00    +0.103 A 
ATOM     23  C   UNL     1     -14.386  10.919  28.752  0.00  0.00    +0.086 C 
BRANCH  17  21
ATOM      1  F   UNL     1     -12.069   8.989  33.524  0.00  0.00    -0.163 F 
ATOM      2  F   UNL     1     -12.314   7.092  32.504  0.00  0.00    -0.163 F 
ATOM      3  F   UNL     1     -11.104   8.658  31.604  0.00  0.00    -0.163 F 
ATOM     21  C   UNL     1     -12.280   8.447  32.279  0.00  0.00    +0.451 C 
ENDBRANCH  17  21
ENDBRANCH  15  16
BRANCH  10   5
ATOM      5  O   UNL     1     -14.355   4.026  30.647  0.00  0.00    -0.469 OA
BRANCH   5  19
ATOM      9  N   UNL     1     -14.006   1.786  30.165  0.00  0.00    -0.218 NA
ATOM     19  C   UNL     1     -14.839   2.851  30.145  0.00  0.00    +0.215 A 
ATOM     22  C   UNL     1     -16.133   2.814  29.652  0.00  0.00    +0.067 A 
ATOM     24  C   UNL     1     -14.497   0.629  29.665  0.00  0.00    +0.042 A 
ATOM     25  C   UNL     1     -16.602   1.607  29.145  0.00  0.00    +0.007 A 
ATOM     26  C   UNL     1     -15.775   0.489  29.149  0.00  0.00    +0.023 A 
ATOM     27  C   UNL     1     -13.581  -0.548  29.682  0.00  0.00    +0.066 C 
ENDBRANCH   5  19
ENDBRANCH  10   5
TORSDOF 4
ENDMDL
