MODEL 1
REMARK VINA RESULT:      -7.1      0.000      0.000
REMARK  Name = 45784026
REMARK  2 active torsions:
REMARK  status: ('A' for Active; 'I' for Inactive)
REMARK    1  A    between atoms: C_6  and  C_10
REMARK    2  A    between atoms: C_11  and  C_14
REMARK                            x       y       z     vdW  Elec       q    Type
REMARK                         _______ _______ _______ _____ _____    ______ ____
ROOT
ATOM      2  O   UNL     1      -3.897 -12.936  11.274  0.00  0.00    -0.270 OA
ATOM      3  N   UNL     1      -2.876 -11.598  12.875  0.00  0.00    -0.297 N 
ATOM      6  C   UNL     1      -2.090 -10.675  14.922  0.00  0.00    +0.074 C 
ATOM      7  C   UNL     1      -1.390 -12.017  14.659  0.00  0.00    +0.032 C 
ATOM      8  C   UNL     1      -2.619 -10.314  13.528  0.00  0.00    +0.119 C 
ATOM      9  C   UNL     1      -2.273 -12.693  13.619  0.00  0.00    +0.109 C 
ATOM     11  C   UNL     1      -3.647 -11.829  11.746  0.00  0.00    +0.247 C 
ENDROOT
BRANCH   6  10
ATOM      4  N   UNL     1      -2.856 -11.485  17.179  0.00  0.00    -0.342 N 
ATOM      5  N   UNL     1      -4.329 -10.273  16.039  0.00  0.00    -0.232 NA
ATOM     10  C   UNL     1      -3.122 -10.791  16.032  0.00  0.00    +0.113 A 
ATOM     12  C   UNL     1      -3.967 -11.411  17.981  0.00  0.00    +0.066 A 
ATOM     13  C   UNL     1      -4.872 -10.650  17.246  0.00  0.00    +0.089 A 
ATOM     15  C   UNL     1      -4.248 -11.929  19.245  0.00  0.00    +0.028 A 
ATOM     16  C   UNL     1      -6.138 -10.378  17.791  0.00  0.00    +0.030 A 
ATOM     19  C   UNL     1      -5.513 -11.649  19.772  0.00  0.00    +0.002 A 
ATOM     20  C   UNL     1      -6.443 -10.888  19.059  0.00  0.00    +0.002 A 
ATOM     24  H   UNL     1      -1.996 -11.970  17.400  0.00  0.00    +0.167 HD
ENDBRANCH   6  10
BRANCH  11  14
ATOM      1  F   UNL     1      -5.858  -7.376   9.169  0.00  0.00    -0.205 F 
ATOM     14  C   UNL     1      -4.228 -10.659  11.070  0.00  0.00    +0.037 A 
ATOM     17  C   UNL     1      -3.513 -10.009  10.064  0.00  0.00    +0.016 A 
ATOM     18  C   UNL     1      -5.493 -10.198  11.434  0.00  0.00    +0.016 A 
ATOM     21  C   UNL     1      -4.063  -8.900   9.421  0.00  0.00    +0.039 A 
ATOM     22  C   UNL     1      -6.044  -9.089  10.792  0.00  0.00    +0.039 A 
ATOM     23  C   UNL     1      -5.328  -8.440   9.786  0.00  0.00    +0.123 A 
ENDBRANCH  11  14
TORSDOF 2
ENDMDL
MODEL 2
REMARK VINA RESULT:      -7.1     27.076     28.353
REMARK  Name = 45784026
REMARK  2 active torsions:
REMARK  status: ('A' for Active; 'I' for Inactive)
REMARK    1  A    between atoms: C_6  and  C_10
REMARK    2  A    between atoms: C_11  and  C_14
REMARK                            x       y       z     vdW  Elec       q    Type
REMARK                         _______ _______ _______ _____ _____    ______ ____
ROOT
ATOM      2  O   UNL     1      14.437   8.905  18.006  0.00  0.00    -0.270 OA
ATOM      3  N   UNL     1      13.234   8.382  19.922  0.00  0.00    -0.297 N 
ATOM      6  C   UNL     1      11.788   8.465  21.810  0.00  0.00    +0.074 C 
ATOM      7  C   UNL     1      10.956   8.526  20.520  0.00  0.00    +0.032 C 
ATOM      8  C   UNL     1      13.123   7.903  21.301  0.00  0.00    +0.119 C 
ATOM      9  C   UNL     1      11.966   8.919  19.451  0.00  0.00    +0.109 C 
ATOM     11  C   UNL     1      14.375   8.426  19.136  0.00  0.00    +0.247 C 
ENDROOT
BRANCH   6  10
ATOM      4  N   UNL     1      10.711  10.398  23.009  0.00  0.00    -0.342 N 
ATOM      5  N   UNL     1      12.908  10.552  22.712  0.00  0.00    -0.232 NA
ATOM     10  C   UNL     1      11.840   9.813  22.507  0.00  0.00    +0.113 A 
ATOM     12  C   UNL     1      11.073  11.594  23.573  0.00  0.00    +0.066 A 
ATOM     13  C   UNL     1      12.449  11.667  23.374  0.00  0.00    +0.089 A 
ATOM     15  C   UNL     1      10.338  12.588  24.220  0.00  0.00    +0.028 A 
ATOM     16  C   UNL     1      13.150  12.791  23.843  0.00  0.00    +0.030 A 
ATOM     19  C   UNL     1      11.051  13.700  24.680  0.00  0.00    +0.002 A 
ATOM     20  C   UNL     1      12.433  13.802  24.495  0.00  0.00    +0.002 A 
ATOM     24  H   UNL     1       9.774  10.020  22.970  0.00  0.00    +0.167 HD
ENDBRANCH   6  10
BRANCH  11  14
ATOM      1  F   UNL     1      19.089   6.314  21.299  0.00  0.00    -0.205 F 
ATOM     14  C   UNL     1      15.613   7.871  19.704  0.00  0.00    +0.037 A 
ATOM     17  C   UNL     1      16.035   6.592  19.342  0.00  0.00    +0.016 A 
ATOM     18  C   UNL     1      16.365   8.624  20.607  0.00  0.00    +0.016 A 
ATOM     21  C   UNL     1      17.209   6.065  19.880  0.00  0.00    +0.039 A 
ATOM     22  C   UNL     1      17.539   8.097  21.145  0.00  0.00    +0.039 A 
ATOM     23  C   UNL     1      17.961   6.818  20.782  0.00  0.00    +0.123 A 
ENDBRANCH  11  14
TORSDOF 2
ENDMDL
MODEL 3
REMARK VINA RESULT:      -6.8      0.281      1.600
REMARK  Name = 45784026
REMARK  2 active torsions:
REMARK  status: ('A' for Active; 'I' for Inactive)
REMARK    1  A    between atoms: C_6  and  C_10
REMARK    2  A    between atoms: C_11  and  C_14
REMARK                            x       y       z     vdW  Elec       q    Type
REMARK                         _______ _______ _______ _____ _____    ______ ____
ROOT
ATOM      2  O   UNL     1      -3.983 -12.935  11.287  0.00  0.00    -0.270 OA
ATOM      3  N   UNL     1      -2.955 -11.592  12.879  0.00  0.00    -0.297 N 
ATOM      6  C   UNL     1      -2.166 -10.659  14.921  0.00  0.00    +0.074 C 
ATOM      7  C   UNL     1      -1.476 -12.009  14.669  0.00  0.00    +0.032 C 
ATOM      8  C   UNL     1      -2.690 -10.305  13.522  0.00  0.00    +0.119 C 
ATOM      9  C   UNL     1      -2.362 -12.686  13.633  0.00  0.00    +0.109 C 
ATOM     11  C   UNL     1      -3.726 -11.826  11.751  0.00  0.00    +0.247 C 
ENDROOT
BRANCH   6  10
ATOM      4  N   UNL     1      -4.421 -10.153  15.917  0.00  0.00    -0.342 N 
ATOM      5  N   UNL     1      -3.073 -11.399  17.169  0.00  0.00    -0.232 NA
ATOM     10  C   UNL     1      -3.201 -10.759  16.029  0.00  0.00    +0.113 A 
ATOM     12  C   UNL     1      -5.128 -10.420  17.062  0.00  0.00    +0.066 A 
ATOM     13  C   UNL     1      -4.264 -11.198  17.827  0.00  0.00    +0.089 A 
ATOM     15  C   UNL     1      -6.408 -10.057  17.481  0.00  0.00    +0.028 A 
ATOM     16  C   UNL     1      -4.687 -11.653  19.088  0.00  0.00    +0.030 A 
ATOM     19  C   UNL     1      -6.813 -10.517  18.738  0.00  0.00    +0.002 A 
ATOM     20  C   UNL     1      -5.969 -11.301  19.530  0.00  0.00    +0.002 A 
ATOM     24  H   UNL     1      -4.748  -9.604  15.133  0.00  0.00    +0.167 HD
ENDBRANCH   6  10
BRANCH  11  14
ATOM      1  F   UNL     1      -5.893  -7.374   9.135  0.00  0.00    -0.205 F 
ATOM     14  C   UNL     1      -4.295 -10.657  11.063  0.00  0.00    +0.037 A 
ATOM     17  C   UNL     1      -5.570 -10.202  11.401  0.00  0.00    +0.016 A 
ATOM     18  C   UNL     1      -3.561 -10.003  10.073  0.00  0.00    +0.016 A 
ATOM     21  C   UNL     1      -6.110  -9.093  10.750  0.00  0.00    +0.039 A 
ATOM     22  C   UNL     1      -4.101  -8.894   9.422  0.00  0.00    +0.039 A 
ATOM     23  C   UNL     1      -5.376  -8.439   9.760  0.00  0.00    +0.123 A 
ENDBRANCH  11  14
TORSDOF 2
ENDMDL
MODEL 4
REMARK VINA RESULT:      -6.5      2.615      4.048
REMARK  Name = 45784026
REMARK  2 active torsions:
REMARK  status: ('A' for Active; 'I' for Inactive)
REMARK    1  A    between atoms: C_6  and  C_10
REMARK    2  A    between atoms: C_11  and  C_14
REMARK                            x       y       z     vdW  Elec       q    Type
REMARK                         _______ _______ _______ _____ _____    ______ ____
ROOT
ATOM      2  O   UNL     1      -4.092 -13.654  14.371  0.00  0.00    -0.270 OA
ATOM      3  N   UNL     1      -4.174 -11.858  15.842  0.00  0.00    -0.297 N 
ATOM      6  C   UNL     1      -4.832 -10.297  17.512  0.00  0.00    +0.074 C 
ATOM      7  C   UNL     1      -4.533 -11.655  18.165  0.00  0.00    +0.032 C 
ATOM      8  C   UNL     1      -4.120 -10.431  16.160  0.00  0.00    +0.119 C 
ATOM      9  C   UNL     1      -4.576 -12.637  17.003  0.00  0.00    +0.109 C 
ATOM     11  C   UNL     1      -3.964 -12.455  14.608  0.00  0.00    +0.247 C 
ENDROOT
BRANCH   6  10
ATOM      4  N   UNL     1      -6.862  -9.175  16.534  0.00  0.00    -0.342 N 
ATOM      5  N   UNL     1      -7.241 -10.506  18.273  0.00  0.00    -0.232 NA
ATOM     10  C   UNL     1      -6.324 -10.014  17.470  0.00  0.00    +0.113 A 
ATOM     12  C   UNL     1      -8.216  -9.121  16.748  0.00  0.00    +0.066 A 
ATOM     13  C   UNL     1      -8.427  -9.960  17.838  0.00  0.00    +0.089 A 
ATOM     15  C   UNL     1      -9.241  -8.431  16.101  0.00  0.00    +0.028 A 
ATOM     16  C   UNL     1      -9.734 -10.134  18.326  0.00  0.00    +0.030 A 
ATOM     19  C   UNL     1     -10.535  -8.615  16.599  0.00  0.00    +0.002 A 
ATOM     20  C   UNL     1     -10.779  -9.451  17.692  0.00  0.00    +0.002 A 
ATOM     24  H   UNL     1      -6.355  -8.679  15.813  0.00  0.00    +0.167 HD
ENDBRANCH   6  10
BRANCH  11  14
ATOM      1  F   UNL     1      -2.478  -9.134  10.350  0.00  0.00    -0.205 F 
ATOM     14  C   UNL     1      -3.574 -11.582  13.490  0.00  0.00    +0.037 A 
ATOM     17  C   UNL     1      -2.224 -11.364  13.214  0.00  0.00    +0.016 A 
ATOM     18  C   UNL     1      -4.554 -10.972  12.707  0.00  0.00    +0.016 A 
ATOM     21  C   UNL     1      -1.854 -10.538  12.153  0.00  0.00    +0.039 A 
ATOM     22  C   UNL     1      -4.183 -10.145  11.646  0.00  0.00    +0.039 A 
ATOM     23  C   UNL     1      -2.833  -9.927  11.370  0.00  0.00    +0.123 A 
ENDBRANCH  11  14
TORSDOF 2
ENDMDL
MODEL 5
REMARK VINA RESULT:      -6.4     26.363     27.334
REMARK  Name = 45784026
REMARK  2 active torsions:
REMARK  status: ('A' for Active; 'I' for Inactive)
REMARK    1  A    between atoms: C_6  and  C_10
REMARK    2  A    between atoms: C_11  and  C_14
REMARK                            x       y       z     vdW  Elec       q    Type
REMARK                         _______ _______ _______ _____ _____    ______ ____
ROOT
ATOM      2  O   UNL     1      12.051   6.334  19.363  0.00  0.00    -0.270 OA
ATOM      3  N   UNL     1      13.532   7.932  20.167  0.00  0.00    -0.297 N 
ATOM      6  C   UNL     1      14.675   9.513  21.529  0.00  0.00    +0.074 C 
ATOM      7  C   UNL     1      14.875   8.100  22.100  0.00  0.00    +0.032 C 
ATOM      8  C   UNL     1      14.232   9.215  20.090  0.00  0.00    +0.119 C 
ATOM      9  C   UNL     1      13.770   7.282  21.447  0.00  0.00    +0.109 C 
ATOM     11  C   UNL     1      12.677   7.383  19.224  0.00  0.00    +0.247 C 
ENDROOT
BRANCH   6  10
ATOM      4  N   UNL     1      14.091  10.820  23.599  0.00  0.00    -0.342 N 
ATOM      5  N   UNL     1      12.479  10.654  22.078  0.00  0.00    -0.232 NA
ATOM     10  C   UNL     1      13.716  10.329  22.380  0.00  0.00    +0.113 A 
ATOM     12  C   UNL     1      13.024  11.507  24.120  0.00  0.00    +0.066 A 
ATOM     13  C   UNL     1      12.030  11.388  23.152  0.00  0.00    +0.089 A 
ATOM     15  C   UNL     1      12.847  12.200  25.318  0.00  0.00    +0.028 A 
ATOM     16  C   UNL     1      10.781  11.991  23.375  0.00  0.00    +0.030 A 
ATOM     19  C   UNL     1      11.598  12.793  25.524  0.00  0.00    +0.002 A 
ATOM     20  C   UNL     1      10.581  12.691  24.570  0.00  0.00    +0.002 A 
ATOM     24  H   UNL     1      14.992  10.699  24.043  0.00  0.00    +0.167 HD
ENDBRANCH   6  10
BRANCH  11  14
ATOM      1  F   UNL     1      11.962  10.192  14.433  0.00  0.00    -0.205 F 
ATOM     14  C   UNL     1      12.489   8.121  17.966  0.00  0.00    +0.037 A 
ATOM     17  C   UNL     1      13.597   8.522  17.220  0.00  0.00    +0.016 A 
ATOM     18  C   UNL     1      11.202   8.421  17.518  0.00  0.00    +0.016 A 
ATOM     21  C   UNL     1      13.420   9.221  16.027  0.00  0.00    +0.039 A 
ATOM     22  C   UNL     1      11.024   9.121  16.325  0.00  0.00    +0.039 A 
ATOM     23  C   UNL     1      12.133   9.521  15.579  0.00  0.00    +0.123 A 
ENDBRANCH  11  14
TORSDOF 2
ENDMDL
MODEL 6
REMARK VINA RESULT:      -6.3     22.925     25.826
REMARK  Name = 45784026
REMARK  2 active torsions:
REMARK  status: ('A' for Active; 'I' for Inactive)
REMARK    1  A    between atoms: C_6  and  C_10
REMARK    2  A    between atoms: C_11  and  C_14
REMARK                            x       y       z     vdW  Elec       q    Type
REMARK                         _______ _______ _______ _____ _____    ______ ____
ROOT
ATOM      2  O   UNL     1       8.399   7.857   5.135  0.00  0.00    -0.270 OA
ATOM      3  N   UNL     1      10.719   7.850   5.039  0.00  0.00    -0.297 N 
ATOM      6  C   UNL     1      12.978   7.760   4.299  0.00  0.00    +0.074 C 
ATOM      7  C   UNL     1      12.313   9.041   3.772  0.00  0.00    +0.032 C 
ATOM      8  C   UNL     1      12.038   7.362   5.444  0.00  0.00    +0.119 C 
ATOM      9  C   UNL     1      10.823   8.764   3.912  0.00  0.00    +0.109 C 
ATOM     11  C   UNL     1       9.488   7.475   5.556  0.00  0.00    +0.247 C 
ENDROOT
BRANCH   6  10
ATOM      4  N   UNL     1      12.364   5.641   3.089  0.00  0.00    -0.342 N 
ATOM      5  N   UNL     1      14.088   6.765   2.249  0.00  0.00    -0.232 NA
ATOM     10  C   UNL     1      13.174   6.737   3.193  0.00  0.00    +0.113 A 
ATOM     12  C   UNL     1      12.783   4.912   2.005  0.00  0.00    +0.066 A 
ATOM     13  C   UNL     1      13.861   5.634   1.499  0.00  0.00    +0.089 A 
ATOM     15  C   UNL     1      12.327   3.719   1.443  0.00  0.00    +0.028 A 
ATOM     16  C   UNL     1      14.534   5.153   0.363  0.00  0.00    +0.030 A 
ATOM     19  C   UNL     1      13.009   3.255   0.313  0.00  0.00    +0.002 A 
ATOM     20  C   UNL     1      14.093   3.958  -0.219  0.00  0.00    +0.002 A 
ATOM     24  H   UNL     1      11.594   5.405   3.701  0.00  0.00    +0.167 HD
ENDBRANCH   6  10
BRANCH  11  14
ATOM      1  F   UNL     1       9.472   3.894   9.862  0.00  0.00    -0.205 F 
ATOM     14  C   UNL     1       9.485   6.535   6.688  0.00  0.00    +0.037 A 
ATOM     17  C   UNL     1       9.138   6.980   7.963  0.00  0.00    +0.016 A 
ATOM     18  C   UNL     1       9.829   5.198   6.484  0.00  0.00    +0.016 A 
ATOM     21  C   UNL     1       9.133   6.088   9.036  0.00  0.00    +0.039 A 
ATOM     22  C   UNL     1       9.825   4.306   7.557  0.00  0.00    +0.039 A 
ATOM     23  C   UNL     1       9.478   4.751   8.832  0.00  0.00    +0.123 A 
ENDBRANCH  11  14
TORSDOF 2
ENDMDL
MODEL 7
REMARK VINA RESULT:      -6.2     22.628     24.968
REMARK  Name = 45784026
REMARK  2 active torsions:
REMARK  status: ('A' for Active; 'I' for Inactive)
REMARK    1  A    between atoms: C_6  and  C_10
REMARK    2  A    between atoms: C_11  and  C_14
REMARK                            x       y       z     vdW  Elec       q    Type
REMARK                         _______ _______ _______ _____ _____    ______ ____
ROOT
ATOM      2  O   UNL     1      13.760   7.437   2.014  0.00  0.00    -0.270 OA
ATOM      3  N   UNL     1      11.482   7.258   2.429  0.00  0.00    -0.297 N 
ATOM      6  C   UNL     1       9.344   7.196   3.471  0.00  0.00    +0.074 C 
ATOM      7  C   UNL     1       9.900   8.627   3.520  0.00  0.00    +0.032 C 
ATOM      8  C   UNL     1      10.197   6.561   2.365  0.00  0.00    +0.119 C 
ATOM      9  C   UNL     1      11.390   8.451   3.257  0.00  0.00    +0.109 C 
ATOM     11  C   UNL     1      12.687   6.856   1.872  0.00  0.00    +0.247 C 
ENDROOT
BRANCH   6  10
ATOM      4  N   UNL     1       9.099   7.222   5.976  0.00  0.00    -0.342 N 
ATOM      5  N   UNL     1       9.710   5.279   5.088  0.00  0.00    -0.232 NA
ATOM     10  C   UNL     1       9.396   6.529   4.836  0.00  0.00    +0.113 A 
ATOM     12  C   UNL     1       9.232   6.361   7.036  0.00  0.00    +0.066 A 
ATOM     13  C   UNL     1       9.615   5.155   6.455  0.00  0.00    +0.089 A 
ATOM     15  C   UNL     1       9.056   6.530   8.410  0.00  0.00    +0.028 A 
ATOM     16  C   UNL     1       9.839   4.039   7.279  0.00  0.00    +0.030 A 
ATOM     19  C   UNL     1       9.283   5.409   9.214  0.00  0.00    +0.002 A 
ATOM     20  C   UNL     1       9.668   4.185   8.661  0.00  0.00    +0.002 A 
ATOM     24  H   UNL     1       8.831   8.196   6.032  0.00  0.00    +0.167 HD
ENDBRANCH   6  10
BRANCH  11  14
ATOM      1  F   UNL     1      12.674   2.182  -1.213  0.00  0.00    -0.205 F 
ATOM     14  C   UNL     1      12.684   5.628   1.062  0.00  0.00    +0.037 A 
ATOM     17  C   UNL     1      13.017   4.406   1.646  0.00  0.00    +0.016 A 
ATOM     18  C   UNL     1      12.349   5.687  -0.292  0.00  0.00    +0.016 A 
ATOM     21  C   UNL     1      13.013   3.242   0.878  0.00  0.00    +0.039 A 
ATOM     22  C   UNL     1      12.346   4.522  -1.060  0.00  0.00    +0.039 A 
ATOM     23  C   UNL     1      12.678   3.300  -0.475  0.00  0.00    +0.123 A 
ENDBRANCH  11  14
TORSDOF 2
ENDMDL
MODEL 8
REMARK VINA RESULT:      -6.0      3.829      6.005
REMARK  Name = 45784026
REMARK  2 active torsions:
REMARK  status: ('A' for Active; 'I' for Inactive)
REMARK    1  A    between atoms: C_6  and  C_10
REMARK    2  A    between atoms: C_11  and  C_14
REMARK                            x       y       z     vdW  Elec       q    Type
REMARK                         _______ _______ _______ _____ _____    ______ ____
ROOT
ATOM      2  O   UNL     1      -5.335 -13.483  15.734  0.00  0.00    -0.270 OA
ATOM      3  N   UNL     1      -5.851 -11.615  17.013  0.00  0.00    -0.297 N 
ATOM      6  C   UNL     1      -6.992  -9.858  18.141  0.00  0.00    +0.074 C 
ATOM      7  C   UNL     1      -7.347 -11.204  18.791  0.00  0.00    +0.032 C 
ATOM      8  C   UNL     1      -5.708 -10.204  17.374  0.00  0.00    +0.119 C 
ATOM      9  C   UNL     1      -6.947 -12.233  17.743  0.00  0.00    +0.109 C 
ATOM     11  C   UNL     1      -5.131 -12.315  16.057  0.00  0.00    +0.247 C 
ENDROOT
BRANCH   6  10
ATOM      4  N   UNL     1      -9.022  -8.400  17.844  0.00  0.00    -0.342 N 
ATOM      5  N   UNL     1      -8.442  -9.617  16.077  0.00  0.00    -0.232 NA
ATOM     10  C   UNL     1      -8.147  -9.311  17.320  0.00  0.00    +0.113 A 
ATOM     12  C   UNL     1      -9.944  -8.099  16.874  0.00  0.00    +0.066 A 
ATOM     13  C   UNL     1      -9.561  -8.872  15.781  0.00  0.00    +0.089 A 
ATOM     15  C   UNL     1     -11.047  -7.245  16.860  0.00  0.00    +0.028 A 
ATOM     16  C   UNL     1     -10.310  -8.800  14.594  0.00  0.00    +0.030 A 
ATOM     19  C   UNL     1     -11.781  -7.185  15.671  0.00  0.00    +0.002 A 
ATOM     20  C   UNL     1     -11.421  -7.949  14.557  0.00  0.00    +0.002 A 
ATOM     24  H   UNL     1      -8.998  -8.016  18.779  0.00  0.00    +0.167 HD
ENDBRANCH   6  10
BRANCH  11  14
ATOM      1  F   UNL     1      -1.015  -9.592  13.411  0.00  0.00    -0.205 F 
ATOM     14  C   UNL     1      -4.050 -11.600  15.362  0.00  0.00    +0.037 A 
ATOM     17  C   UNL     1      -4.206 -11.228  14.027  0.00  0.00    +0.016 A 
ATOM     18  C   UNL     1      -2.868 -11.296  16.038  0.00  0.00    +0.016 A 
ATOM     21  C   UNL     1      -3.181 -10.549  13.368  0.00  0.00    +0.039 A 
ATOM     22  C   UNL     1      -1.843 -10.617  15.378  0.00  0.00    +0.039 A 
ATOM     23  C   UNL     1      -1.999 -10.244  14.043  0.00  0.00    +0.123 A 
ENDBRANCH  11  14
TORSDOF 2
ENDMDL
MODEL 9
REMARK VINA RESULT:      -6.0      3.500      7.159
REMARK  Name = 45784026
REMARK  2 active torsions:
REMARK  status: ('A' for Active; 'I' for Inactive)
REMARK    1  A    between atoms: C_6  and  C_10
REMARK    2  A    between atoms: C_11  and  C_14
REMARK                            x       y       z     vdW  Elec       q    Type
REMARK                         _______ _______ _______ _____ _____    ______ ____
ROOT
ATOM      2  O   UNL     1      -5.238 -10.338  18.541  0.00  0.00    -0.270 OA
ATOM      3  N   UNL     1      -5.756 -11.602  16.664  0.00  0.00    -0.297 N 
ATOM      6  C   UNL     1      -5.739 -12.613  14.510  0.00  0.00    +0.074 C 
ATOM      7  C   UNL     1      -4.554 -13.137  15.335  0.00  0.00    +0.032 C 
ATOM      8  C   UNL     1      -6.658 -12.045  15.599  0.00  0.00    +0.119 C 
ATOM      9  C   UNL     1      -4.412 -12.120  16.459  0.00  0.00    +0.109 C 
ATOM     11  C   UNL     1      -6.049 -10.742  17.710  0.00  0.00    +0.247 C 
ENDROOT
BRANCH   6  10
ATOM      4  N   UNL     1      -4.064 -11.773  12.830  0.00  0.00    -0.342 N 
ATOM      5  N   UNL     1      -5.961 -10.622  12.958  0.00  0.00    -0.232 NA
ATOM     10  C   UNL     1      -5.285 -11.645  13.431  0.00  0.00    +0.113 A 
ATOM     12  C   UNL     1      -3.943 -10.764  11.908  0.00  0.00    +0.066 A 
ATOM     13  C   UNL     1      -5.139 -10.059  12.008  0.00  0.00    +0.089 A 
ATOM     15  C   UNL     1      -2.920 -10.418  11.024  0.00  0.00    +0.028 A 
ATOM     16  C   UNL     1      -5.346  -8.940  11.183  0.00  0.00    +0.030 A 
ATOM     19  C   UNL     1      -3.142  -9.302  10.211  0.00  0.00    +0.002 A 
ATOM     20  C   UNL     1      -4.333  -8.574  10.288  0.00  0.00    +0.002 A 
ATOM     24  H   UNL     1      -3.371 -12.482  13.028  0.00  0.00    +0.167 HD
ENDBRANCH   6  10
BRANCH  11  14
ATOM      1  F   UNL     1     -11.321  -8.906  18.155  0.00  0.00    -0.205 F 
ATOM     14  C   UNL     1      -7.434 -10.260  17.827  0.00  0.00    +0.037 A 
ATOM     17  C   UNL     1      -8.341 -10.936  18.642  0.00  0.00    +0.016 A 
ATOM     18  C   UNL     1      -7.840  -9.126  17.122  0.00  0.00    +0.016 A 
ATOM     21  C   UNL     1      -9.655 -10.480  18.753  0.00  0.00    +0.039 A 
ATOM     22  C   UNL     1      -9.153  -8.670  17.233  0.00  0.00    +0.039 A 
ATOM     23  C   UNL     1     -10.061  -9.346  18.048  0.00  0.00    +0.123 A 
ENDBRANCH  11  14
TORSDOF 2
ENDMDL
MODEL 10
REMARK VINA RESULT:      -5.9     24.021     26.429
REMARK  Name = 45784026
REMARK  2 active torsions:
REMARK  status: ('A' for Active; 'I' for Inactive)
REMARK    1  A    between atoms: C_6  and  C_10
REMARK    2  A    between atoms: C_11  and  C_14
REMARK                            x       y       z     vdW  Elec       q    Type
REMARK                         _______ _______ _______ _____ _____    ______ ____
ROOT
ATOM      2  O   UNL     1      13.033   7.497   2.948  0.00  0.00    -0.270 OA
ATOM      3  N   UNL     1      12.778   5.265   2.359  0.00  0.00    -0.297 N 
ATOM      6  C   UNL     1      12.689   3.209   1.164  0.00  0.00    +0.074 C 
ATOM      7  C   UNL     1      14.144   3.693   1.250  0.00  0.00    +0.032 C 
ATOM      8  C   UNL     1      12.019   4.016   2.285  0.00  0.00    +0.119 C 
ATOM      9  C   UNL     1      14.020   5.168   1.607  0.00  0.00    +0.109 C 
ATOM     11  C   UNL     1      12.395   6.447   2.974  0.00  0.00    +0.247 C 
ENDROOT
BRANCH   6  10
ATOM      4  N   UNL     1      12.765   2.886  -1.331  0.00  0.00    -0.342 N 
ATOM      5  N   UNL     1      11.009   4.009  -0.557  0.00  0.00    -0.232 NA
ATOM     10  C   UNL     1      12.122   3.389  -0.234  0.00  0.00    +0.113 A 
ATOM     12  C   UNL     1      12.017   3.204  -2.437  0.00  0.00    +0.066 A 
ATOM     13  C   UNL     1      10.928   3.905  -1.927  0.00  0.00    +0.089 A 
ATOM     15  C   UNL     1      12.197   2.948  -3.796  0.00  0.00    +0.028 A 
ATOM     16  C   UNL     1       9.947   4.384  -2.812  0.00  0.00    +0.030 A 
ATOM     19  C   UNL     1      11.212   3.432  -4.663  0.00  0.00    +0.002 A 
ATOM     20  C   UNL     1      10.106   4.139  -4.182  0.00  0.00    +0.002 A 
ATOM     24  H   UNL     1      13.636   2.374  -1.331  0.00  0.00    +0.167 HD
ENDBRANCH   6  10
BRANCH  11  14
ATOM      1  F   UNL     1       7.522   6.462   5.735  0.00  0.00    -0.205 F 
ATOM     14  C   UNL     1      11.115   6.451   3.699  0.00  0.00    +0.037 A 
ATOM     17  C   UNL     1       9.997   7.067   3.137  0.00  0.00    +0.016 A 
ATOM     18  C   UNL     1      11.020   5.841   4.950  0.00  0.00    +0.016 A 
ATOM     21  C   UNL     1       8.783   7.071   3.824  0.00  0.00    +0.039 A 
ATOM     22  C   UNL     1       9.806   5.845   5.637  0.00  0.00    +0.039 A 
ATOM     23  C   UNL     1       8.688   6.460   5.075  0.00  0.00    +0.123 A 
ENDBRANCH  11  14
TORSDOF 2
ENDMDL
