MODEL 1
REMARK VINA RESULT:      -6.8      0.000      0.000
REMARK  Name = 40779189
REMARK  7 active torsions:
REMARK  status: ('A' for Active; 'I' for Inactive)
REMARK    1  A    between atoms: S_1  and  N_6
REMARK    2  A    between atoms: S_1  and  C_21
REMARK    3  A    between atoms: N_5  and  C_19
REMARK    4  A    between atoms: N_6  and  C_15
REMARK    5  A    between atoms: C_9  and  C_16
REMARK    6  A    between atoms: C_10  and  C_15
REMARK    7  A    between atoms: C_18  and  C_20
REMARK                            x       y       z     vdW  Elec       q    Type
REMARK                         _______ _______ _______ _____ _____    ______ ____
ROOT
ATOM      4  N   UNL     1      12.914   6.912  21.154  0.00  0.00    -0.297 NA
ATOM      8  C   UNL     1      11.354   8.860  20.408  0.00  0.00    +0.002 C 
ATOM      9  C   UNL     1      11.962   8.146  19.169  0.00  0.00    +0.055 C 
ATOM     10  C   UNL     1      13.265   8.155  21.891  0.00  0.00    +0.072 C 
ATOM     11  C   UNL     1      12.495   9.365  21.317  0.00  0.00    +0.024 C 
ATOM     12  C   UNL     1      10.580   7.788  21.205  0.00  0.00    +0.019 C 
ATOM     13  C   UNL     1      13.027   7.139  19.692  0.00  0.00    +0.094 C 
ATOM     14  C   UNL     1      11.502   6.585  21.464  0.00  0.00    +0.085 C 
ENDROOT
BRANCH   9  16
ATOM      5  N   UNL     1      11.844   9.139  16.837  0.00  0.00    -0.270 N 
ATOM      7  N   UNL     1      12.474   9.943  15.964  0.00  0.00    -0.171 NA
ATOM     16  C   UNL     1      12.490   9.007  18.031  0.00  0.00    +0.044 A 
ATOM     17  C   UNL     1      13.622   9.779  17.933  0.00  0.00    +0.053 A 
ATOM     18  C   UNL     1      13.560  10.331  16.639  0.00  0.00    +0.093 A 
ATOM     19  C   UNL     1      10.601   8.513  16.450  0.00  0.00    +0.172 C 
BRANCH  18  20
ATOM     20  C   UNL     1      14.517  11.221  16.036  0.00  0.00    +0.002 A 
ATOM     22  C   UNL     1      14.390  11.573  14.692  0.00  0.00    +0.010 A 
ATOM     23  C   UNL     1      15.571  11.732  16.795  0.00  0.00    +0.010 A 
ATOM     24  C   UNL     1      15.319  12.436  14.107  0.00  0.00    +0.001 A 
ATOM     25  C   UNL     1      16.498  12.594  16.210  0.00  0.00    +0.001 A 
ATOM     26  C   UNL     1      16.371  12.946  14.866  0.00  0.00    +0.000 A 
ENDBRANCH  18  20
ENDBRANCH   9  16
BRANCH  10  15
ATOM     15  C   UNL     1      14.774   8.406  21.926  0.00  0.00    +0.124 C 
BRANCH  15   6
ATOM      6  N   UNL     1      15.480   7.113  21.937  0.00  0.00    -0.193 NA
ATOM     27  H   UNL     1      14.852   6.303  22.026  0.00  0.00    +0.148 HD
BRANCH   6   1
ATOM      1  S   UNL     1      16.850   6.901  20.940  0.00  0.00    +0.027 S 
ATOM      2  O   UNL     1      16.432   6.496  19.611  0.00  0.00    -0.158 OA
ATOM      3  O   UNL     1      17.840   6.135  21.672  0.00  0.00    -0.158 OA
ATOM     21  C   UNL     1      17.442   8.575  20.841  0.00  0.00    +0.214 C 
ENDBRANCH   6   1
ENDBRANCH  15   6
ENDBRANCH  10  15
TORSDOF 5
ENDMDL
MODEL 2
REMARK VINA RESULT:      -6.5      3.402      6.480
REMARK  Name = 40779189
REMARK  7 active torsions:
REMARK  status: ('A' for Active; 'I' for Inactive)
REMARK    1  A    between atoms: S_1  and  N_6
REMARK    2  A    between atoms: S_1  and  C_21
REMARK    3  A    between atoms: N_5  and  C_19
REMARK    4  A    between atoms: N_6  and  C_15
REMARK    5  A    between atoms: C_9  and  C_16
REMARK    6  A    between atoms: C_10  and  C_15
REMARK    7  A    between atoms: C_18  and  C_20
REMARK                            x       y       z     vdW  Elec       q    Type
REMARK                         _______ _______ _______ _____ _____    ______ ____
ROOT
ATOM      4  N   UNL     1      12.075  10.699  20.482  0.00  0.00    -0.297 NA
ATOM      8  C   UNL     1      13.316  10.419  22.756  0.00  0.00    +0.002 C 
ATOM      9  C   UNL     1      14.318  10.812  21.634  0.00  0.00    +0.055 C 
ATOM     10  C   UNL     1      11.700   9.405  21.110  0.00  0.00    +0.072 C 
ATOM     11  C   UNL     1      12.577   9.126  22.350  0.00  0.00    +0.024 C 
ATOM     12  C   UNL     1      12.259  11.543  22.822  0.00  0.00    +0.019 C 
ATOM     13  C   UNL     1      13.545  10.761  20.285  0.00  0.00    +0.094 C 
ATOM     14  C   UNL     1      11.687  11.785  21.414  0.00  0.00    +0.085 C 
ENDROOT
BRANCH   9  16
ATOM      5  N   UNL     1      16.829  10.632  21.953  0.00  0.00    -0.270 N 
ATOM      7  N   UNL     1      17.886   9.816  21.816  0.00  0.00    -0.171 NA
ATOM     16  C   UNL     1      15.646  10.072  21.568  0.00  0.00    +0.044 A 
ATOM     17  C   UNL     1      15.952   8.800  21.149  0.00  0.00    +0.053 A 
ATOM     18  C   UNL     1      17.345   8.697  21.324  0.00  0.00    +0.093 A 
ATOM     19  C   UNL     1      17.029  11.967  22.468  0.00  0.00    +0.172 C 
BRANCH  18  20
ATOM     20  C   UNL     1      18.167   7.553  21.031  0.00  0.00    +0.002 A 
ATOM     22  C   UNL     1      19.370   7.366  21.713  0.00  0.00    +0.010 A 
ATOM     23  C   UNL     1      17.761   6.631  20.065  0.00  0.00    +0.010 A 
ATOM     24  C   UNL     1      20.168   6.257  21.428  0.00  0.00    +0.001 A 
ATOM     25  C   UNL     1      18.559   5.522  19.782  0.00  0.00    +0.001 A 
ATOM     26  C   UNL     1      19.762   5.336  20.463  0.00  0.00    +0.000 A 
ENDBRANCH  18  20
ENDBRANCH   9  16
BRANCH  10  15
ATOM     15  C   UNL     1      11.736   8.243  20.115  0.00  0.00    +0.124 C 
BRANCH  15   6
ATOM      6  N   UNL     1      10.906   8.580  18.946  0.00  0.00    -0.193 NA
ATOM     27  H   UNL     1      10.417   9.480  19.035  0.00  0.00    +0.148 HD
BRANCH   6   1
ATOM      1  S   UNL     1      11.463   8.175  17.383  0.00  0.00    +0.027 S 
ATOM      2  O   UNL     1      10.359   8.217  16.443  0.00  0.00    -0.158 OA
ATOM      3  O   UNL     1      12.307   7.000  17.484  0.00  0.00    -0.158 OA
ATOM     21  C   UNL     1      12.523   9.562  17.045  0.00  0.00    +0.214 C 
ENDBRANCH   6   1
ENDBRANCH  15   6
ENDBRANCH  10  15
TORSDOF 5
ENDMDL
MODEL 3
REMARK VINA RESULT:      -6.5     26.160     28.398
REMARK  Name = 40779189
REMARK  7 active torsions:
REMARK  status: ('A' for Active; 'I' for Inactive)
REMARK    1  A    between atoms: S_1  and  N_6
REMARK    2  A    between atoms: S_1  and  C_21
REMARK    3  A    between atoms: N_5  and  C_19
REMARK    4  A    between atoms: N_6  and  C_15
REMARK    5  A    between atoms: C_9  and  C_16
REMARK    6  A    between atoms: C_10  and  C_15
REMARK    7  A    between atoms: C_18  and  C_20
REMARK                            x       y       z     vdW  Elec       q    Type
REMARK                         _______ _______ _______ _____ _____    ______ ____
ROOT
ATOM      4  N   UNL     1      -6.469 -10.543  17.860  0.00  0.00    -0.297 NA
ATOM      8  C   UNL     1      -4.375 -11.998  17.326  0.00  0.00    +0.002 C 
ATOM      9  C   UNL     1      -4.284 -10.628  16.599  0.00  0.00    +0.055 C 
ATOM     10  C   UNL     1      -6.890 -11.902  17.429  0.00  0.00    +0.072 C 
ATOM     11  C   UNL     1      -5.681 -12.710  16.912  0.00  0.00    +0.024 C 
ATOM     12  C   UNL     1      -4.484 -11.695  18.836  0.00  0.00    +0.019 C 
ATOM     13  C   UNL     1      -5.648  -9.906  16.800  0.00  0.00    +0.094 C 
ATOM     14  C   UNL     1      -5.626 -10.692  19.071  0.00  0.00    +0.085 C 
ENDROOT
BRANCH   9  16
ATOM      5  N   UNL     1      -2.521 -10.547  14.776  0.00  0.00    -0.270 N 
ATOM      7  N   UNL     1      -2.331 -10.546  13.447  0.00  0.00    -0.171 NA
ATOM     16  C   UNL     1      -3.832 -10.615  15.146  0.00  0.00    +0.044 A 
ATOM     17  C   UNL     1      -4.550 -10.661  13.976  0.00  0.00    +0.053 A 
ATOM     18  C   UNL     1      -3.574 -10.616  12.962  0.00  0.00    +0.093 A 
ATOM     19  C   UNL     1      -1.375 -10.476  15.653  0.00  0.00    +0.172 C 
BRANCH  18  20
ATOM     20  C   UNL     1      -3.806 -10.638  11.542  0.00  0.00    +0.002 A 
ATOM     22  C   UNL     1      -3.943 -11.856  10.877  0.00  0.00    +0.010 A 
ATOM     23  C   UNL     1      -3.897  -9.440  10.831  0.00  0.00    +0.010 A 
ATOM     24  C   UNL     1      -4.168 -11.878   9.500  0.00  0.00    +0.001 A 
ATOM     25  C   UNL     1      -4.123  -9.462   9.455  0.00  0.00    +0.001 A 
ATOM     26  C   UNL     1      -4.258 -10.681   8.790  0.00  0.00    +0.000 A 
ENDBRANCH  18  20
ENDBRANCH   9  16
BRANCH  10  15
ATOM     15  C   UNL     1      -8.028 -11.863  16.406  0.00  0.00    +0.124 C 
BRANCH  15   6
ATOM      6  N   UNL     1      -9.105 -10.995  16.912  0.00  0.00    -0.193 NA
ATOM     27  H   UNL     1      -9.082 -10.863  17.932  0.00  0.00    +0.148 HD
BRANCH   6   1
ATOM      1  S   UNL     1      -9.594  -9.645  15.987  0.00  0.00    +0.027 S 
ATOM      2  O   UNL     1     -11.010  -9.740  15.691  0.00  0.00    -0.158 OA
ATOM      3  O   UNL     1      -8.626  -9.438  14.926  0.00  0.00    -0.158 OA
ATOM     21  C   UNL     1      -9.367  -8.339  17.172  0.00  0.00    +0.214 C 
ENDBRANCH   6   1
ENDBRANCH  15   6
ENDBRANCH  10  15
TORSDOF 5
ENDMDL
MODEL 4
REMARK VINA RESULT:      -6.4     26.344     29.116
REMARK  Name = 40779189
REMARK  7 active torsions:
REMARK  status: ('A' for Active; 'I' for Inactive)
REMARK    1  A    between atoms: S_1  and  N_6
REMARK    2  A    between atoms: S_1  and  C_21
REMARK    3  A    between atoms: N_5  and  C_19
REMARK    4  A    between atoms: N_6  and  C_15
REMARK    5  A    between atoms: C_9  and  C_16
REMARK    6  A    between atoms: C_10  and  C_15
REMARK    7  A    between atoms: C_18  and  C_20
REMARK                            x       y       z     vdW  Elec       q    Type
REMARK                         _______ _______ _______ _____ _____    ______ ____
ROOT
ATOM      4  N   UNL     1      -5.344 -12.645  17.096  0.00  0.00    -0.297 NA
ATOM      8  C   UNL     1      -5.796 -10.734  18.807  0.00  0.00    +0.002 C 
ATOM      9  C   UNL     1      -7.116 -11.478  18.462  0.00  0.00    +0.055 C 
ATOM     10  C   UNL     1      -4.730 -11.379  16.617  0.00  0.00    +0.072 C 
ATOM     11  C   UNL     1      -5.160 -10.193  17.508  0.00  0.00    +0.024 C 
ATOM     12  C   UNL     1      -4.826 -11.789  19.381  0.00  0.00    +0.019 C 
ATOM     13  C   UNL     1      -6.803 -12.459  17.297  0.00  0.00    +0.094 C 
ATOM     14  C   UNL     1      -4.736 -12.977  18.407  0.00  0.00    +0.085 C 
ENDROOT
BRANCH   9  16
ATOM      5  N   UNL     1      -9.523 -10.802  18.896  0.00  0.00    -0.270 N 
ATOM      7  N   UNL     1     -10.505  -9.971  18.511  0.00  0.00    -0.171 NA
ATOM     16  C   UNL     1      -8.361 -10.645  18.198  0.00  0.00    +0.044 A 
ATOM     17  C   UNL     1      -8.601  -9.641  17.292  0.00  0.00    +0.053 A 
ATOM     18  C   UNL     1      -9.937  -9.264  17.530  0.00  0.00    +0.093 A 
ATOM     19  C   UNL     1      -9.773 -11.743  19.963  0.00  0.00    +0.172 C 
BRANCH  18  20
ATOM     20  C   UNL     1     -10.679  -8.243  16.838  0.00  0.00    +0.002 A 
ATOM     22  C   UNL     1     -10.006  -7.180  16.236  0.00  0.00    +0.010 A 
ATOM     23  C   UNL     1     -12.071  -8.317  16.769  0.00  0.00    +0.010 A 
ATOM     24  C   UNL     1     -10.725  -6.189  15.566  0.00  0.00    +0.001 A 
ATOM     25  C   UNL     1     -12.789  -7.327  16.098  0.00  0.00    +0.001 A 
ATOM     26  C   UNL     1     -12.116  -6.264  15.497  0.00  0.00    +0.000 A 
ENDBRANCH  18  20
ENDBRANCH   9  16
BRANCH  10  15
ATOM     15  C   UNL     1      -5.020 -11.113  15.138  0.00  0.00    +0.124 C 
BRANCH  15   6
ATOM      6  N   UNL     1      -3.961 -10.252  14.584  0.00  0.00    -0.193 NA
ATOM     27  H   UNL     1      -3.900  -9.332  15.039  0.00  0.00    +0.148 HD
BRANCH   6   1
ATOM      1  S   UNL     1      -2.482 -10.955  14.099  0.00  0.00    +0.027 S 
ATOM      2  O   UNL     1      -2.006 -10.310  12.890  0.00  0.00    -0.158 OA
ATOM      3  O   UNL     1      -2.612 -12.398  14.168  0.00  0.00    -0.158 OA
ATOM     21  C   UNL     1      -1.428 -10.453  15.440  0.00  0.00    +0.214 C 
ENDBRANCH   6   1
ENDBRANCH  15   6
ENDBRANCH  10  15
TORSDOF 5
ENDMDL
MODEL 5
REMARK VINA RESULT:      -5.9     26.591     28.979
REMARK  Name = 40779189
REMARK  7 active torsions:
REMARK  status: ('A' for Active; 'I' for Inactive)
REMARK    1  A    between atoms: S_1  and  N_6
REMARK    2  A    between atoms: S_1  and  C_21
REMARK    3  A    between atoms: N_5  and  C_19
REMARK    4  A    between atoms: N_6  and  C_15
REMARK    5  A    between atoms: C_9  and  C_16
REMARK    6  A    between atoms: C_10  and  C_15
REMARK    7  A    between atoms: C_18  and  C_20
REMARK                            x       y       z     vdW  Elec       q    Type
REMARK                         _______ _______ _______ _____ _____    ______ ____
ROOT
ATOM      4  N   UNL     1      -5.643 -11.010   9.899  0.00  0.00    -0.297 NA
ATOM      8  C   UNL     1      -4.170  -9.202  11.060  0.00  0.00    +0.002 C 
ATOM      9  C   UNL     1      -4.060 -10.558  11.811  0.00  0.00    +0.055 C 
ATOM     10  C   UNL     1      -6.440  -9.777  10.130  0.00  0.00    +0.072 C 
ATOM     11  C   UNL     1      -5.652  -8.773  10.998  0.00  0.00    +0.024 C 
ATOM     12  C   UNL     1      -3.712  -9.459   9.608  0.00  0.00    +0.019 C 
ATOM     13  C   UNL     1      -5.111 -11.520  11.188  0.00  0.00    +0.094 C 
ATOM     14  C   UNL     1      -4.494 -10.653   9.033  0.00  0.00    +0.085 C 
ENDROOT
BRANCH   9  16
ATOM      5  N   UNL     1      -3.007 -10.527  14.120  0.00  0.00    -0.270 N 
ATOM      7  N   UNL     1      -3.273 -10.516  15.436  0.00  0.00    -0.171 NA
ATOM     16  C   UNL     1      -4.120 -10.543  13.332  0.00  0.00    +0.044 A 
ATOM     17  C   UNL     1      -5.190 -10.543  14.193  0.00  0.00    +0.053 A 
ATOM     18  C   UNL     1      -4.609 -10.526  15.476  0.00  0.00    +0.093 A 
ATOM     19  C   UNL     1      -1.632 -10.524  13.678  0.00  0.00    +0.172 C 
BRANCH  18  20
ATOM     20  C   UNL     1      -5.304 -10.520  16.736  0.00  0.00    +0.002 A 
ATOM     22  C   UNL     1      -6.555  -9.910  16.838  0.00  0.00    +0.010 A 
ATOM     23  C   UNL     1      -4.729 -11.125  17.854  0.00  0.00    +0.010 A 
ATOM     24  C   UNL     1      -7.229  -9.904  18.060  0.00  0.00    +0.001 A 
ATOM     25  C   UNL     1      -5.404 -11.119  19.074  0.00  0.00    +0.001 A 
ATOM     26  C   UNL     1      -6.654 -10.508  19.177  0.00  0.00    +0.000 A 
ENDBRANCH  18  20
ENDBRANCH   9  16
BRANCH  10  15
ATOM     15  C   UNL     1      -7.821 -10.076  10.718  0.00  0.00    +0.124 C 
BRANCH  15   6
ATOM      6  N   UNL     1      -7.951  -9.399  12.019  0.00  0.00    -0.193 NA
ATOM     27  H   UNL     1      -7.952  -8.373  11.950  0.00  0.00    +0.148 HD
BRANCH   6   1
ATOM      1  S   UNL     1      -8.964 -10.077  13.215  0.00  0.00    +0.027 S 
ATOM      2  O   UNL     1      -9.078  -9.164  14.336  0.00  0.00    -0.158 OA
ATOM      3  O   UNL     1      -8.574 -11.459  13.421  0.00  0.00    -0.158 OA
ATOM     21  C   UNL     1     -10.520 -10.087  12.356  0.00  0.00    +0.214 C 
ENDBRANCH   6   1
ENDBRANCH  15   6
ENDBRANCH  10  15
TORSDOF 5
ENDMDL
MODEL 6
REMARK VINA RESULT:      -5.9     26.893     29.130
REMARK  Name = 40779189
REMARK  7 active torsions:
REMARK  status: ('A' for Active; 'I' for Inactive)
REMARK    1  A    between atoms: S_1  and  N_6
REMARK    2  A    between atoms: S_1  and  C_21
REMARK    3  A    between atoms: N_5  and  C_19
REMARK    4  A    between atoms: N_6  and  C_15
REMARK    5  A    between atoms: C_9  and  C_16
REMARK    6  A    between atoms: C_10  and  C_15
REMARK    7  A    between atoms: C_18  and  C_20
REMARK                            x       y       z     vdW  Elec       q    Type
REMARK                         _______ _______ _______ _____ _____    ______ ____
ROOT
ATOM      4  N   UNL     1      -5.954 -10.566   9.793  0.00  0.00    -0.297 NA
ATOM      8  C   UNL     1      -4.091  -9.150  10.939  0.00  0.00    +0.002 C 
ATOM      9  C   UNL     1      -4.256 -10.517  11.659  0.00  0.00    +0.055 C 
ATOM     10  C   UNL     1      -6.457  -9.195  10.074  0.00  0.00    +0.072 C 
ATOM     11  C   UNL     1      -5.445  -8.409  10.936  0.00  0.00    +0.024 C 
ATOM     12  C   UNL     1      -3.741  -9.461   9.468  0.00  0.00    +0.019 C 
ATOM     13  C   UNL     1      -5.508 -11.212  11.053  0.00  0.00    +0.094 C 
ATOM     14  C   UNL     1      -4.779 -10.442   8.896  0.00  0.00    +0.085 C 
ENDROOT
BRANCH   9  16
ATOM      5  N   UNL     1      -3.134 -10.620  13.933  0.00  0.00    -0.270 N 
ATOM      7  N   UNL     1      -3.358 -10.616  15.258  0.00  0.00    -0.171 NA
ATOM     16  C   UNL     1      -4.268 -10.530  13.181  0.00  0.00    +0.044 A 
ATOM     17  C   UNL     1      -5.308 -10.462  14.077  0.00  0.00    +0.053 A 
ATOM     18  C   UNL     1      -4.688 -10.520  15.340  0.00  0.00    +0.093 A 
ATOM     19  C   UNL     1      -1.777 -10.718  13.447  0.00  0.00    +0.172 C 
BRANCH  18  20
ATOM     20  C   UNL     1      -5.342 -10.485  16.622  0.00  0.00    +0.002 A 
ATOM     22  C   UNL     1      -6.626  -9.951  16.734  0.00  0.00    +0.010 A 
ATOM     23  C   UNL     1      -4.693 -10.986  17.750  0.00  0.00    +0.010 A 
ATOM     24  C   UNL     1      -7.261  -9.916  17.977  0.00  0.00    +0.001 A 
ATOM     25  C   UNL     1      -5.328 -10.952  18.992  0.00  0.00    +0.001 A 
ATOM     26  C   UNL     1      -6.612 -10.417  19.105  0.00  0.00    +0.000 A 
ENDBRANCH  18  20
ENDBRANCH   9  16
BRANCH  10  15
ATOM     15  C   UNL     1      -7.853  -9.205  10.702  0.00  0.00    +0.124 C 
BRANCH  15   6
ATOM      6  N   UNL     1      -8.850  -9.505   9.661  0.00  0.00    -0.193 NA
ATOM     27  H   UNL     1      -9.703  -9.950  10.025  0.00  0.00    +0.148 HD
BRANCH   6   1
ATOM      1  S   UNL     1      -9.063  -8.409   8.369  0.00  0.00    +0.027 S 
ATOM      2  O   UNL     1      -8.308  -8.858   7.215  0.00  0.00    -0.158 OA
ATOM      3  O   UNL     1      -8.908  -7.059   8.878  0.00  0.00    -0.158 OA
ATOM     21  C   UNL     1     -10.790  -8.648   8.021  0.00  0.00    +0.214 C 
ENDBRANCH   6   1
ENDBRANCH  15   6
ENDBRANCH  10  15
TORSDOF 5
ENDMDL
MODEL 7
REMARK VINA RESULT:      -5.8     30.436     32.382
REMARK  Name = 40779189
REMARK  7 active torsions:
REMARK  status: ('A' for Active; 'I' for Inactive)
REMARK    1  A    between atoms: S_1  and  N_6
REMARK    2  A    between atoms: S_1  and  C_21
REMARK    3  A    between atoms: N_5  and  C_19
REMARK    4  A    between atoms: N_6  and  C_15
REMARK    5  A    between atoms: C_9  and  C_16
REMARK    6  A    between atoms: C_10  and  C_15
REMARK    7  A    between atoms: C_18  and  C_20
REMARK                            x       y       z     vdW  Elec       q    Type
REMARK                         _______ _______ _______ _____ _____    ______ ____
ROOT
ATOM      4  N   UNL     1     -15.961   4.284  31.081  0.00  0.00    -0.297 NA
ATOM      8  C   UNL     1     -16.693   5.061  33.458  0.00  0.00    +0.002 C 
ATOM      9  C   UNL     1     -16.037   6.235  32.680  0.00  0.00    +0.055 C 
ATOM     10  C   UNL     1     -15.459   3.330  32.105  0.00  0.00    +0.072 C 
ATOM     11  C   UNL     1     -15.702   3.879  33.528  0.00  0.00    +0.024 C 
ATOM     12  C   UNL     1     -17.901   4.590  32.619  0.00  0.00    +0.019 C 
ATOM     13  C   UNL     1     -15.450   5.648  31.364  0.00  0.00    +0.094 C 
ATOM     14  C   UNL     1     -17.440   4.315  31.178  0.00  0.00    +0.085 C 
ENDROOT
BRANCH   9  16
ATOM      5  N   UNL     1     -15.097   8.478  33.405  0.00  0.00    -0.270 N 
ATOM      7  N   UNL     1     -14.123   9.070  34.116  0.00  0.00    -0.171 NA
ATOM     16  C   UNL     1     -15.037   7.115  33.416  0.00  0.00    +0.044 A 
ATOM     17  C   UNL     1     -13.947   6.794  34.187  0.00  0.00    +0.053 A 
ATOM     18  C   UNL     1     -13.423   8.037  34.592  0.00  0.00    +0.093 A 
ATOM     19  C   UNL     1     -16.072   9.298  32.724  0.00  0.00    +0.172 C 
BRANCH  18  20
ATOM     20  C   UNL     1     -12.268   8.255  35.422  0.00  0.00    +0.002 A 
ATOM     22  C   UNL     1     -12.084   7.490  36.574  0.00  0.00    +0.010 A 
ATOM     23  C   UNL     1     -11.332   9.229  35.074  0.00  0.00    +0.010 A 
ATOM     24  C   UNL     1     -10.964   7.701  37.380  0.00  0.00    +0.001 A 
ATOM     25  C   UNL     1     -10.212   9.439  35.879  0.00  0.00    +0.001 A 
ATOM     26  C   UNL     1     -10.029   8.675  37.031  0.00  0.00    +0.000 A 
ENDBRANCH  18  20
ENDBRANCH   9  16
BRANCH  10  15
ATOM     15  C   UNL     1     -13.992   2.956  31.883  0.00  0.00    +0.124 C 
BRANCH  15   6
ATOM      6  N   UNL     1     -13.890   2.070  30.710  0.00  0.00    -0.193 NA
ATOM     27  H   UNL     1     -12.951   2.047  30.293  0.00  0.00    +0.148 HD
BRANCH   6   1
ATOM      1  S   UNL     1     -14.759   0.600  30.697  0.00  0.00    +0.027 S 
ATOM      2  O   UNL     1     -15.963   0.749  29.902  0.00  0.00    -0.158 OA
ATOM      3  O   UNL     1     -14.824   0.090  32.053  0.00  0.00    -0.158 OA
ATOM     21  C   UNL     1     -13.631  -0.436  29.793  0.00  0.00    +0.214 C 
ENDBRANCH   6   1
ENDBRANCH  15   6
ENDBRANCH  10  15
TORSDOF 5
ENDMDL
MODEL 8
REMARK VINA RESULT:      -5.7     26.975     28.902
REMARK  Name = 40779189
REMARK  7 active torsions:
REMARK  status: ('A' for Active; 'I' for Inactive)
REMARK    1  A    between atoms: S_1  and  N_6
REMARK    2  A    between atoms: S_1  and  C_21
REMARK    3  A    between atoms: N_5  and  C_19
REMARK    4  A    between atoms: N_6  and  C_15
REMARK    5  A    between atoms: C_9  and  C_16
REMARK    6  A    between atoms: C_10  and  C_15
REMARK    7  A    between atoms: C_18  and  C_20
REMARK                            x       y       z     vdW  Elec       q    Type
REMARK                         _______ _______ _______ _____ _____    ______ ____
ROOT
ATOM      4  N   UNL     1      -3.367 -12.942  13.752  0.00  0.00    -0.297 NA
ATOM      8  C   UNL     1      -2.903 -10.867  15.256  0.00  0.00    +0.002 C 
ATOM      9  C   UNL     1      -3.788 -11.897  16.010  0.00  0.00    +0.055 C 
ATOM     10  C   UNL     1      -3.665 -11.693  13.002  0.00  0.00    +0.072 C 
ATOM     11  C   UNL     1      -3.596 -10.466  13.937  0.00  0.00    +0.024 C 
ATOM     12  C   UNL     1      -1.595 -11.596  14.878  0.00  0.00    +0.019 C 
ATOM     13  C   UNL     1      -4.186 -13.000  14.988  0.00  0.00    +0.094 C 
ATOM     14  C   UNL     1      -1.938 -12.904  14.146  0.00  0.00    +0.085 C 
ENDROOT
BRANCH   9  16
ATOM      5  N   UNL     1      -5.053 -11.414  18.156  0.00  0.00    -0.270 N 
ATOM      7  N   UNL     1      -6.192 -10.908  18.657  0.00  0.00    -0.171 NA
ATOM     16  C   UNL     1      -4.984 -11.378  16.794  0.00  0.00    +0.044 A 
ATOM     17  C   UNL     1      -6.162 -10.808  16.375  0.00  0.00    +0.053 A 
ATOM     18  C   UNL     1      -6.866 -10.539  17.564  0.00  0.00    +0.093 A 
ATOM     19  C   UNL     1      -4.052 -11.929  19.061  0.00  0.00    +0.172 C 
BRANCH  18  20
ATOM     20  C   UNL     1      -8.169  -9.938  17.675  0.00  0.00    +0.002 A 
ATOM     22  C   UNL     1      -8.461  -8.772  16.967  0.00  0.00    +0.010 A 
ATOM     23  C   UNL     1      -9.140 -10.522  18.490  0.00  0.00    +0.010 A 
ATOM     24  C   UNL     1      -9.725  -8.189  17.075  0.00  0.00    +0.001 A 
ATOM     25  C   UNL     1     -10.403  -9.939  18.597  0.00  0.00    +0.001 A 
ATOM     26  C   UNL     1     -10.694  -8.772  17.889  0.00  0.00    +0.000 A 
ENDBRANCH  18  20
ENDBRANCH   9  16
BRANCH  10  15
ATOM     15  C   UNL     1      -5.000 -11.766  12.256  0.00  0.00    +0.124 C 
BRANCH  15   6
ATOM      6  N   UNL     1      -4.797 -11.349  10.858  0.00  0.00    -0.193 NA
ATOM     27  H   UNL     1      -4.986 -12.095  10.175  0.00  0.00    +0.148 HD
BRANCH   6   1
ATOM      1  S   UNL     1      -5.232  -9.766  10.388  0.00  0.00    +0.027 S 
ATOM      2  O   UNL     1      -5.686  -9.018  11.544  0.00  0.00    -0.158 OA
ATOM      3  O   UNL     1      -6.046  -9.848   9.190  0.00  0.00    -0.158 OA
ATOM     21  C   UNL     1      -3.646  -9.122   9.907  0.00  0.00    +0.214 C 
ENDBRANCH   6   1
ENDBRANCH  15   6
ENDBRANCH  10  15
TORSDOF 5
ENDMDL
MODEL 9
REMARK VINA RESULT:      -5.7     16.185     19.370
REMARK  Name = 40779189
REMARK  7 active torsions:
REMARK  status: ('A' for Active; 'I' for Inactive)
REMARK    1  A    between atoms: S_1  and  N_6
REMARK    2  A    between atoms: S_1  and  C_21
REMARK    3  A    between atoms: N_5  and  C_19
REMARK    4  A    between atoms: N_6  and  C_15
REMARK    5  A    between atoms: C_9  and  C_16
REMARK    6  A    between atoms: C_10  and  C_15
REMARK    7  A    between atoms: C_18  and  C_20
REMARK                            x       y       z     vdW  Elec       q    Type
REMARK                         _______ _______ _______ _____ _____    ______ ____
ROOT
ATOM      4  N   UNL     1      15.079   3.693  -0.157  0.00  0.00    -0.297 NA
ATOM      8  C   UNL     1      14.655   6.263  -0.146  0.00  0.00    +0.002 C 
ATOM      9  C   UNL     1      14.686   5.711   1.307  0.00  0.00    +0.055 C 
ATOM     10  C   UNL     1      13.979   4.031  -1.099  0.00  0.00    +0.072 C 
ATOM     11  C   UNL     1      13.574   5.514  -0.954  0.00  0.00    +0.024 C 
ATOM     12  C   UNL     1      16.019   5.917  -0.783  0.00  0.00    +0.019 C 
ATOM     13  C   UNL     1      14.738   4.159   1.210  0.00  0.00    +0.094 C 
ATOM     14  C   UNL     1      16.295   4.415  -0.602  0.00  0.00    +0.085 C 
ENDROOT
BRANCH   9  16
ATOM      5  N   UNL     1      13.776   7.299   3.064  0.00  0.00    -0.270 N 
ATOM      7  N   UNL     1      12.721   7.556   3.855  0.00  0.00    -0.171 NA
ATOM     16  C   UNL     1      13.621   6.193   2.281  0.00  0.00    +0.044 A 
ATOM     17  C   UNL     1      12.378   5.692   2.582  0.00  0.00    +0.053 A 
ATOM     18  C   UNL     1      11.870   6.571   3.557  0.00  0.00    +0.093 A 
ATOM     19  C   UNL     1      14.925   8.173   3.112  0.00  0.00    +0.172 C 
BRANCH  18  20
ATOM     20  C   UNL     1      10.589   6.487   4.209  0.00  0.00    +0.002 A 
ATOM     22  C   UNL     1      10.366   5.513   5.181  0.00  0.00    +0.010 A 
ATOM     23  C   UNL     1       9.573   7.381   3.869  0.00  0.00    +0.010 A 
ATOM     24  C   UNL     1       9.124   5.430   5.813  0.00  0.00    +0.001 A 
ATOM     25  C   UNL     1       8.333   7.299   4.501  0.00  0.00    +0.001 A 
ATOM     26  C   UNL     1       8.108   6.324   5.473  0.00  0.00    +0.000 A 
ENDBRANCH  18  20
ENDBRANCH   9  16
BRANCH  10  15
ATOM     15  C   UNL     1      12.777   3.096  -0.951  0.00  0.00    +0.124 C 
BRANCH  15   6
ATOM      6  N   UNL     1      12.363   2.625  -2.284  0.00  0.00    -0.193 NA
ATOM     27  H   UNL     1      12.813   1.746  -2.568  0.00  0.00    +0.148 HD
BRANCH   6   1
ATOM      1  S   UNL     1      10.741   2.836  -2.776  0.00  0.00    +0.027 S 
ATOM      2  O   UNL     1      10.173   3.995  -2.113  0.00  0.00    -0.158 OA
ATOM      3  O   UNL     1      10.072   1.550  -2.725  0.00  0.00    -0.158 OA
ATOM     21  C   UNL     1      10.973   3.246  -4.491  0.00  0.00    +0.214 C 
ENDBRANCH   6   1
ENDBRANCH  15   6
ENDBRANCH  10  15
TORSDOF 5
ENDMDL
MODEL 10
REMARK VINA RESULT:      -5.6     13.893     17.040
REMARK  Name = 40779189
REMARK  7 active torsions:
REMARK  status: ('A' for Active; 'I' for Inactive)
REMARK    1  A    between atoms: S_1  and  N_6
REMARK    2  A    between atoms: S_1  and  C_21
REMARK    3  A    between atoms: N_5  and  C_19
REMARK    4  A    between atoms: N_6  and  C_15
REMARK    5  A    between atoms: C_9  and  C_16
REMARK    6  A    between atoms: C_10  and  C_15
REMARK    7  A    between atoms: C_18  and  C_20
REMARK                            x       y       z     vdW  Elec       q    Type
REMARK                         _______ _______ _______ _____ _____    ______ ____
ROOT
ATOM      4  N   UNL     1      12.169   6.672   0.272  0.00  0.00    -0.297 NA
ATOM      8  C   UNL     1      10.248   5.062   0.984  0.00  0.00    +0.002 C 
ATOM      9  C   UNL     1      10.046   6.465   1.622  0.00  0.00    +0.055 C 
ATOM     10  C   UNL     1      12.737   5.393   0.774  0.00  0.00    +0.072 C 
ATOM     11  C   UNL     1      11.631   4.510   1.392  0.00  0.00    +0.024 C 
ATOM     12  C   UNL     1      10.276   5.268  -0.546  0.00  0.00    +0.019 C 
ATOM     13  C   UNL     1      11.324   7.299   1.319  0.00  0.00    +0.094 C 
ATOM     14  C   UNL     1      11.305   6.357  -0.892  0.00  0.00    +0.085 C 
ENDROOT
BRANCH   9  16
ATOM      5  N   UNL     1       8.763   7.458   3.573  0.00  0.00    -0.270 N 
ATOM      7  N   UNL     1       8.541   7.354   4.893  0.00  0.00    -0.171 NA
ATOM     16  C   UNL     1       9.644   6.536   3.087  0.00  0.00    +0.044 A 
ATOM     17  C   UNL     1      10.024   5.776   4.167  0.00  0.00    +0.053 A 
ATOM     18  C   UNL     1       9.314   6.325   5.252  0.00  0.00    +0.093 A 
ATOM     19  C   UNL     1       8.085   8.488   2.822  0.00  0.00    +0.172 C 
BRANCH  18  20
ATOM     20  C   UNL     1       9.361   5.886   6.622  0.00  0.00    +0.002 A 
ATOM     22  C   UNL     1       9.735   4.576   6.921  0.00  0.00    +0.010 A 
ATOM     23  C   UNL     1       9.032   6.770   7.650  0.00  0.00    +0.010 A 
ATOM     24  C   UNL     1       9.780   4.149   8.249  0.00  0.00    +0.001 A 
ATOM     25  C   UNL     1       9.078   6.344   8.977  0.00  0.00    +0.001 A 
ATOM     26  C   UNL     1       9.452   5.033   9.276  0.00  0.00    +0.000 A 
ENDBRANCH  18  20
ENDBRANCH   9  16
BRANCH  10  15
ATOM     15  C   UNL     1      13.898   5.614   1.746  0.00  0.00    +0.124 C 
BRANCH  15   6
ATOM      6  N   UNL     1      14.860   6.554   1.147  0.00  0.00    -0.193 NA
ATOM     27  H   UNL     1      14.628   6.819   0.180  0.00  0.00    +0.148 HD
BRANCH   6   1
ATOM      1  S   UNL     1      15.549   7.777   2.120  0.00  0.00    +0.027 S 
ATOM      2  O   UNL     1      14.762   8.990   2.015  0.00  0.00    -0.158 OA
ATOM      3  O   UNL     1      16.981   7.799   1.887  0.00  0.00    -0.158 OA
ATOM     21  C   UNL     1      15.286   7.091   3.739  0.00  0.00    +0.214 C 
ENDBRANCH   6   1
ENDBRANCH  15   6
ENDBRANCH  10  15
TORSDOF 5
ENDMDL
