MODEL 1
REMARK VINA RESULT:      -5.9      0.000      0.000
REMARK  Name = 11882485
REMARK  13 active torsions:
REMARK  status: ('A' for Active; 'I' for Inactive)
REMARK    1  A    between atoms: S_1  and  N_9
REMARK    2  A    between atoms: S_1  and  C_25
REMARK    3  A    between atoms: N_9  and  C_14
REMARK    4  A    between atoms: N_10  and  C_21
REMARK    5  A    between atoms: N_11  and  C_32
REMARK    6  A    between atoms: C_15  and  C_19
REMARK    7  A    between atoms: C_20  and  C_23
REMARK    8  A    between atoms: C_21  and  C_22
REMARK    9  A    between atoms: C_21  and  C_26
REMARK   10  A    between atoms: C_22  and  C_24
REMARK   11  A    between atoms: C_24  and  C_28
REMARK   12  A    between atoms: C_24  and  C_29
REMARK   13  A    between atoms: C_30  and  C_35
REMARK                            x       y       z     vdW  Elec       q    Type
REMARK                         _______ _______ _______ _____ _____    ______ ____
ROOT
ATOM      4  O   UNL     1      10.127   5.688   4.562  0.00  0.00    -0.268 OA
ATOM      8  N   UNL     1      11.729   7.130   5.444  0.00  0.00    -0.285 N 
ATOM     14  C   UNL     1      13.579   9.395   5.361  0.00  0.00    +0.080 C 
ATOM     15  C   UNL     1      12.010   7.779   4.158  0.00  0.00    +0.164 C 
ATOM     16  C   UNL     1      12.502   9.220   4.288  0.00  0.00    +0.052 C 
ATOM     17  C   UNL     1      13.099   8.799   6.682  0.00  0.00    +0.039 C 
ATOM     18  C   UNL     1      12.715   7.332   6.520  0.00  0.00    +0.110 C 
ATOM     20  C   UNL     1      10.619   6.264   5.533  0.00  0.00    +0.265 C 
ENDROOT
BRANCH  20  23
ATOM     11  N   UNL     1       9.245   6.930   7.518  0.00  0.00    -0.262 N 
ATOM     12  N   UNL     1       8.837   6.490   8.720  0.00  0.00    -0.176 NA
ATOM     23  C   UNL     1      10.039   6.047   6.853  0.00  0.00    +0.123 A 
ATOM     27  C   UNL     1      10.165   4.955   7.671  0.00  0.00    +0.057 A 
ATOM     30  C   UNL     1       9.402   5.282   8.809  0.00  0.00    +0.061 A 
ATOM     32  C   UNL     1       8.822   8.234   7.063  0.00  0.00    +0.173 C 
ATOM     35  C   UNL     1       9.189   4.461  10.011  0.00  0.00    +0.067 C 
ENDBRANCH  20  23
BRANCH  15  19
ATOM      3  O   UNL     1      14.206   6.975   3.670  0.00  0.00    -0.274 OA
ATOM     10  N   UNL     1      12.392   6.062   2.531  0.00  0.00    -0.302 N 
ATOM     19  C   UNL     1      13.001   6.904   3.447  0.00  0.00    +0.234 C 
ATOM     37  H   UNL     1      11.383   5.958   2.561  0.00  0.00    +0.150 HD
BRANCH  10  21
ATOM     21  C   UNL     1      13.128   5.136   1.699  0.00  0.00    +0.159 C 
BRANCH  21  26
ATOM      7  O   UNL     1      13.083   2.707   1.612  0.00  0.00    -0.274 OA
ATOM     13  N   UNL     1      11.317   3.803   2.589  0.00  0.00    -0.328 N 
ATOM     26  C   UNL     1      12.528   3.756   1.932  0.00  0.00    +0.231 C 
ATOM     38  H   UNL     1      10.881   4.676   2.867  0.00  0.00    +0.145 HD
ATOM     39  H   UNL     1      10.816   2.951   2.819  0.00  0.00    +0.145 HD
ENDBRANCH  21  26
BRANCH  21  22
ATOM     22  C   UNL     1      13.053   5.505   0.212  0.00  0.00    +0.034 C 
BRANCH  22  24
ATOM     24  C   UNL     1      14.389   5.392  -0.550  0.00  0.00    -0.015 C 
ATOM     28  C   UNL     1      15.585   5.235   0.390  0.00  0.00    +0.007 C 
ATOM     29  C   UNL     1      14.334   4.206  -1.518  0.00  0.00    +0.007 C 
ENDBRANCH  22  24
ENDBRANCH  21  22
ENDBRANCH  10  21
ENDBRANCH  15  19
BRANCH  14   9
ATOM      9  N   UNL     1      13.918  10.789   5.521  0.00  0.00    -0.186 NA
ATOM     36  H   UNL     1      13.214  11.412   5.936  0.00  0.00    +0.148 HD
BRANCH   9   1
ATOM      1  S   UNL     1      15.575  11.201   5.622  0.00  0.00    +0.065 S 
ATOM      5  O   UNL     1      16.031  11.031   6.988  0.00  0.00    -0.153 OA
ATOM      6  O   UNL     1      15.795  12.440   4.904  0.00  0.00    -0.153 OA
BRANCH   1  25
ATOM      2  S   UNL     1      17.393   8.912   5.606  0.00  0.00    -0.077 S 
ATOM     25  C   UNL     1      16.482   9.989   4.662  0.00  0.00    +0.142 A 
ATOM     31  C   UNL     1      16.576   9.773   3.328  0.00  0.00    +0.036 A 
ATOM     33  C   UNL     1      17.435   8.671   3.049  0.00  0.00    +0.010 A 
ATOM     34  C   UNL     1      17.947   8.110   4.199  0.00  0.00    +0.047 A 
ENDBRANCH   1  25
ENDBRANCH   9   1
ENDBRANCH  14   9
TORSDOF 9
ENDMDL
MODEL 2
REMARK VINA RESULT:      -5.9     25.463     27.704
REMARK  Name = 11882485
REMARK  13 active torsions:
REMARK  status: ('A' for Active; 'I' for Inactive)
REMARK    1  A    between atoms: S_1  and  N_9
REMARK    2  A    between atoms: S_1  and  C_25
REMARK    3  A    between atoms: N_9  and  C_14
REMARK    4  A    between atoms: N_10  and  C_21
REMARK    5  A    between atoms: N_11  and  C_32
REMARK    6  A    between atoms: C_15  and  C_19
REMARK    7  A    between atoms: C_20  and  C_23
REMARK    8  A    between atoms: C_21  and  C_22
REMARK    9  A    between atoms: C_21  and  C_26
REMARK   10  A    between atoms: C_22  and  C_24
REMARK   11  A    between atoms: C_24  and  C_28
REMARK   12  A    between atoms: C_24  and  C_29
REMARK   13  A    between atoms: C_30  and  C_35
REMARK                            x       y       z     vdW  Elec       q    Type
REMARK                         _______ _______ _______ _____ _____    ______ ____
ROOT
ATOM      4  O   UNL     1      -3.703  -8.856   9.223  0.00  0.00    -0.268 OA
ATOM      8  N   UNL     1      -5.152 -10.232  10.421  0.00  0.00    -0.285 N 
ATOM     14  C   UNL     1      -6.464 -11.217  12.843  0.00  0.00    +0.080 C 
ATOM     15  C   UNL     1      -4.662  -9.789  11.732  0.00  0.00    +0.164 C 
ATOM     16  C   UNL     1      -5.704  -9.889  12.845  0.00  0.00    +0.052 C 
ATOM     17  C   UNL     1      -7.038 -11.484  11.454  0.00  0.00    +0.039 C 
ATOM     18  C   UNL     1      -5.945 -11.473  10.391  0.00  0.00    +0.110 C 
ATOM     20  C   UNL     1      -4.737  -9.524   9.273  0.00  0.00    +0.265 C 
ENDROOT
BRANCH  20  23
ATOM     11  N   UNL     1      -6.764  -8.944   7.922  0.00  0.00    -0.262 N 
ATOM     12  N   UNL     1      -7.354  -9.185   6.739  0.00  0.00    -0.176 NA
ATOM     23  C   UNL     1      -5.586  -9.603   8.090  0.00  0.00    +0.123 A 
ATOM     27  C   UNL     1      -5.386 -10.327   6.944  0.00  0.00    +0.057 A 
ATOM     30  C   UNL     1      -6.508 -10.031   6.145  0.00  0.00    +0.061 A 
ATOM     32  C   UNL     1      -7.403  -8.050   8.860  0.00  0.00    +0.173 C 
ATOM     35  C   UNL     1      -6.809 -10.542   4.798  0.00  0.00    +0.067 C 
ENDBRANCH  20  23
BRANCH  15  19
ATOM      3  O   UNL     1      -2.820 -11.190  11.140  0.00  0.00    -0.274 OA
ATOM     10  N   UNL     1      -3.132 -10.622  13.376  0.00  0.00    -0.302 N 
ATOM     19  C   UNL     1      -3.438 -10.605  12.026  0.00  0.00    +0.234 C 
ATOM     37  H   UNL     1      -3.597  -9.959  13.989  0.00  0.00    +0.150 HD
BRANCH  10  21
ATOM     21  C   UNL     1      -2.012 -11.354  13.924  0.00  0.00    +0.159 C 
BRANCH  21  26
ATOM      7  O   UNL     1      -0.994  -9.377  14.905  0.00  0.00    -0.274 OA
ATOM     13  N   UNL     1      -1.521 -11.138  16.281  0.00  0.00    -0.328 N 
ATOM     26  C   UNL     1      -1.439 -10.512  15.056  0.00  0.00    +0.231 C 
ATOM     38  H   UNL     1      -1.913 -12.067  16.395  0.00  0.00    +0.145 HD
ATOM     39  H   UNL     1      -1.186 -10.680  17.123  0.00  0.00    +0.145 HD
ENDBRANCH  21  26
BRANCH  21  22
ATOM     22  C   UNL     1      -2.422 -12.737  14.445  0.00  0.00    +0.034 C 
BRANCH  22  24
ATOM     24  C   UNL     1      -2.309 -13.877  13.412  0.00  0.00    -0.015 C 
ATOM     28  C   UNL     1      -1.635 -15.123  13.989  0.00  0.00    +0.007 C 
ATOM     29  C   UNL     1      -3.702 -14.241  12.888  0.00  0.00    +0.007 C 
ENDBRANCH  22  24
ENDBRANCH  21  22
ENDBRANCH  10  21
ENDBRANCH  15  19
BRANCH  14   9
ATOM      9  N   UNL     1      -7.511 -11.207  13.837  0.00  0.00    -0.186 NA
ATOM     36  H   UNL     1      -8.427 -10.826  13.569  0.00  0.00    +0.148 HD
BRANCH   9   1
ATOM      1  S   UNL     1      -7.409 -12.340  15.115  0.00  0.00    +0.065 S 
ATOM      5  O   UNL     1      -6.675 -13.508  14.665  0.00  0.00    -0.153 OA
ATOM      6  O   UNL     1      -8.712 -12.463  15.737  0.00  0.00    -0.153 OA
BRANCH   1  25
ATOM      2  S   UNL     1      -7.066 -11.724  17.951  0.00  0.00    -0.077 S 
ATOM     25  C   UNL     1      -6.396 -11.603  16.396  0.00  0.00    +0.142 A 
ATOM     31  C   UNL     1      -5.200 -10.969  16.357  0.00  0.00    +0.036 A 
ATOM     33  C   UNL     1      -4.798 -10.556  17.659  0.00  0.00    +0.010 A 
ATOM     34  C   UNL     1      -5.722 -10.903  18.621  0.00  0.00    +0.047 A 
ENDBRANCH   1  25
ENDBRANCH   9   1
ENDBRANCH  14   9
TORSDOF 9
ENDMDL
MODEL 3
REMARK VINA RESULT:      -5.8     14.193     17.408
REMARK  Name = 11882485
REMARK  13 active torsions:
REMARK  status: ('A' for Active; 'I' for Inactive)
REMARK    1  A    between atoms: S_1  and  N_9
REMARK    2  A    between atoms: S_1  and  C_25
REMARK    3  A    between atoms: N_9  and  C_14
REMARK    4  A    between atoms: N_10  and  C_21
REMARK    5  A    between atoms: N_11  and  C_32
REMARK    6  A    between atoms: C_15  and  C_19
REMARK    7  A    between atoms: C_20  and  C_23
REMARK    8  A    between atoms: C_21  and  C_22
REMARK    9  A    between atoms: C_21  and  C_26
REMARK   10  A    between atoms: C_22  and  C_24
REMARK   11  A    between atoms: C_24  and  C_28
REMARK   12  A    between atoms: C_24  and  C_29
REMARK   13  A    between atoms: C_30  and  C_35
REMARK                            x       y       z     vdW  Elec       q    Type
REMARK                         _______ _______ _______ _____ _____    ______ ____
ROOT
ATOM      4  O   UNL     1      10.183  11.157  23.566  0.00  0.00    -0.268 OA
ATOM      8  N   UNL     1      12.153  12.026  22.678  0.00  0.00    -0.285 N 
ATOM     14  C   UNL     1      14.147  12.445  20.578  0.00  0.00    +0.080 C 
ATOM     15  C   UNL     1      12.083  11.221  21.453  0.00  0.00    +0.164 C 
ATOM     16  C   UNL     1      12.767  11.868  20.249  0.00  0.00    +0.052 C 
ATOM     17  C   UNL     1      14.047  13.372  21.787  0.00  0.00    +0.039 C 
ATOM     18  C   UNL     1      13.450  12.651  22.991  0.00  0.00    +0.110 C 
ATOM     20  C   UNL     1      11.031  12.050  23.533  0.00  0.00    +0.265 C 
ENDROOT
BRANCH  20  23
ATOM     11  N   UNL     1      10.304  14.382  24.087  0.00  0.00    -0.262 N 
ATOM     12  N   UNL     1      10.294  15.279  25.087  0.00  0.00    -0.176 NA
ATOM     23  C   UNL     1      10.885  13.197  24.421  0.00  0.00    +0.123 A 
ATOM     27  C   UNL     1      11.286  13.323  25.726  0.00  0.00    +0.057 A 
ATOM     30  C   UNL     1      10.895  14.627  26.086  0.00  0.00    +0.061 A 
ATOM     32  C   UNL     1       9.724  14.739  22.813  0.00  0.00    +0.173 C 
ATOM     35  C   UNL     1      11.082  15.291  27.386  0.00  0.00    +0.067 C 
ENDBRANCH  20  23
BRANCH  15  19
ATOM      3  O   UNL     1      13.689   9.774  22.468  0.00  0.00    -0.274 OA
ATOM     10  N   UNL     1      11.953   8.839  21.230  0.00  0.00    -0.302 N 
ATOM     19  C   UNL     1      12.672   9.883  21.789  0.00  0.00    +0.234 C 
ATOM     37  H   UNL     1      11.034   9.033  20.845  0.00  0.00    +0.150 HD
BRANCH  10  21
ATOM     21  C   UNL     1      12.326   7.451  21.385  0.00  0.00    +0.159 C 
BRANCH  21  26
ATOM      7  O   UNL     1      10.063   7.149  22.220  0.00  0.00    -0.274 OA
ATOM     13  N   UNL     1      11.084   5.390  21.154  0.00  0.00    -0.328 N 
ATOM     26  C   UNL     1      11.045   6.673  21.656  0.00  0.00    +0.231 C 
ATOM     38  H   UNL     1      11.893   5.017  20.669  0.00  0.00    +0.145 HD
ATOM     39  H   UNL     1      10.287   4.768  21.254  0.00  0.00    +0.145 HD
ENDBRANCH  21  26
BRANCH  21  22
ATOM     22  C   UNL     1      13.032   6.897  20.141  0.00  0.00    +0.034 C 
BRANCH  22  24
ATOM     24  C   UNL     1      13.355   7.948  19.059  0.00  0.00    -0.015 C 
ATOM     28  C   UNL     1      14.826   7.920  18.640  0.00  0.00    +0.007 C 
ATOM     29  C   UNL     1      12.466   7.718  17.833  0.00  0.00    +0.007 C 
ENDBRANCH  22  24
ENDBRANCH  21  22
ENDBRANCH  10  21
ENDBRANCH  15  19
BRANCH  14   9
ATOM      9  N   UNL     1      14.691  13.145  19.439  0.00  0.00    -0.186 NA
ATOM     36  H   UNL     1      14.666  14.172  19.446  0.00  0.00    +0.148 HD
BRANCH   9   1
ATOM      1  S   UNL     1      15.865  12.336  18.493  0.00  0.00    +0.065 S 
ATOM      5  O   UNL     1      16.244  11.100  19.149  0.00  0.00    -0.153 OA
ATOM      6  O   UNL     1      16.861  13.296  18.062  0.00  0.00    -0.153 OA
BRANCH   1  25
ATOM      2  S   UNL     1      15.496  12.796  15.630  0.00  0.00    -0.077 S 
ATOM     25  C   UNL     1      15.066  11.842  16.967  0.00  0.00    +0.142 A 
ATOM     31  C   UNL     1      14.186  10.852  16.681  0.00  0.00    +0.036 A 
ATOM     33  C   UNL     1      13.837  10.864  15.300  0.00  0.00    +0.010 A 
ATOM     34  C   UNL     1      14.478  11.871  14.612  0.00  0.00    +0.047 A 
ENDBRANCH   1  25
ENDBRANCH   9   1
ENDBRANCH  14   9
TORSDOF 9
ENDMDL
MODEL 4
REMARK VINA RESULT:      -5.8     25.994     28.501
REMARK  Name = 11882485
REMARK  13 active torsions:
REMARK  status: ('A' for Active; 'I' for Inactive)
REMARK    1  A    between atoms: S_1  and  N_9
REMARK    2  A    between atoms: S_1  and  C_25
REMARK    3  A    between atoms: N_9  and  C_14
REMARK    4  A    between atoms: N_10  and  C_21
REMARK    5  A    between atoms: N_11  and  C_32
REMARK    6  A    between atoms: C_15  and  C_19
REMARK    7  A    between atoms: C_20  and  C_23
REMARK    8  A    between atoms: C_21  and  C_22
REMARK    9  A    between atoms: C_21  and  C_26
REMARK   10  A    between atoms: C_22  and  C_24
REMARK   11  A    between atoms: C_24  and  C_28
REMARK   12  A    between atoms: C_24  and  C_29
REMARK   13  A    between atoms: C_30  and  C_35
REMARK                            x       y       z     vdW  Elec       q    Type
REMARK                         _______ _______ _______ _____ _____    ______ ____
ROOT
ATOM      4  O   UNL     1      -3.172 -10.496  10.363  0.00  0.00    -0.268 OA
ATOM      8  N   UNL     1      -5.361 -10.776  11.107  0.00  0.00    -0.285 N 
ATOM     14  C   UNL     1      -7.646 -10.252  12.858  0.00  0.00    +0.080 C 
ATOM     15  C   UNL     1      -5.160  -9.992  12.331  0.00  0.00    +0.164 C 
ATOM     16  C   UNL     1      -6.431  -9.320  12.849  0.00  0.00    +0.052 C 
ATOM     17  C   UNL     1      -7.819 -10.893  11.484  0.00  0.00    +0.039 C 
ATOM     18  C   UNL     1      -6.557 -11.635  11.055  0.00  0.00    +0.110 C 
ATOM     20  C   UNL     1      -4.351 -10.758  10.122  0.00  0.00    +0.265 C 
ENDROOT
BRANCH  20  23
ATOM     11  N   UNL     1      -4.651 -12.299   8.170  0.00  0.00    -0.262 N 
ATOM     12  N   UNL     1      -5.077 -12.325   6.896  0.00  0.00    -0.176 NA
ATOM     23  C   UNL     1      -4.741 -11.072   8.752  0.00  0.00    +0.123 A 
ATOM     27  C   UNL     1      -5.258 -10.233   7.799  0.00  0.00    +0.057 A 
ATOM     30  C   UNL     1      -5.447 -11.060   6.674  0.00  0.00    +0.061 A 
ATOM     32  C   UNL     1      -4.163 -13.516   8.776  0.00  0.00    +0.173 C 
ATOM     35  C   UNL     1      -5.982 -10.674   5.359  0.00  0.00    +0.067 C 
ENDBRANCH  20  23
BRANCH  15  19
ATOM      3  O   UNL     1      -4.506 -12.138  13.151  0.00  0.00    -0.274 OA
ATOM     10  N   UNL     1      -4.121 -10.261  14.473  0.00  0.00    -0.302 N 
ATOM     19  C   UNL     1      -4.561 -10.926  13.341  0.00  0.00    +0.234 C 
ATOM     37  H   UNL     1      -4.048  -9.249  14.445  0.00  0.00    +0.150 HD
BRANCH  10  21
ATOM     21  C   UNL     1      -3.524 -10.935  15.604  0.00  0.00    +0.159 C 
BRANCH  21  26
ATOM      7  O   UNL     1      -1.484  -9.991  14.679  0.00  0.00    -0.274 OA
ATOM     13  N   UNL     1      -1.390 -11.004  16.738  0.00  0.00    -0.328 N 
ATOM     26  C   UNL     1      -2.039 -10.599  15.591  0.00  0.00    +0.231 C 
ATOM     38  H   UNL     1      -1.867 -11.485  17.494  0.00  0.00    +0.145 HD
ATOM     39  H   UNL     1      -0.398 -10.828  16.865  0.00  0.00    +0.145 HD
ENDBRANCH  21  26
BRANCH  21  22
ATOM     22  C   UNL     1      -4.155 -10.506  16.934  0.00  0.00    +0.034 C 
BRANCH  22  24
ATOM     24  C   UNL     1      -4.853 -11.639  17.714  0.00  0.00    -0.015 C 
ATOM     28  C   UNL     1      -5.011 -12.911  16.880  0.00  0.00    +0.007 C 
ATOM     29  C   UNL     1      -4.063 -11.953  18.988  0.00  0.00    +0.007 C 
ENDBRANCH  22  24
ENDBRANCH  21  22
ENDBRANCH  10  21
ENDBRANCH  15  19
BRANCH  14   9
ATOM      9  N   UNL     1      -8.837  -9.533  13.242  0.00  0.00    -0.186 NA
ATOM     36  H   UNL     1      -9.483  -9.237  12.500  0.00  0.00    +0.148 HD
BRANCH   9   1
ATOM      1  S   UNL     1      -9.426  -9.757  14.833  0.00  0.00    +0.065 S 
ATOM      5  O   UNL     1      -8.308  -9.816  15.756  0.00  0.00    -0.153 OA
ATOM      6  O   UNL     1     -10.443 -10.788  14.815  0.00  0.00    -0.153 OA
BRANCH   1  25
ATOM      2  S   UNL     1     -11.838  -8.140  14.501  0.00  0.00    -0.077 S 
ATOM     25  C   UNL     1     -10.333  -8.276  15.276  0.00  0.00    +0.142 A 
ATOM     31  C   UNL     1     -10.044  -7.248  16.109  0.00  0.00    +0.036 A 
ATOM     33  C   UNL     1     -11.100  -6.291  16.125  0.00  0.00    +0.010 A 
ATOM     34  C   UNL     1     -12.138  -6.653  15.295  0.00  0.00    +0.047 A 
ENDBRANCH   1  25
ENDBRANCH   9   1
ENDBRANCH  14   9
TORSDOF 9
ENDMDL
MODEL 5
REMARK VINA RESULT:      -5.8     25.731     28.552
REMARK  Name = 11882485
REMARK  13 active torsions:
REMARK  status: ('A' for Active; 'I' for Inactive)
REMARK    1  A    between atoms: S_1  and  N_9
REMARK    2  A    between atoms: S_1  and  C_25
REMARK    3  A    between atoms: N_9  and  C_14
REMARK    4  A    between atoms: N_10  and  C_21
REMARK    5  A    between atoms: N_11  and  C_32
REMARK    6  A    between atoms: C_15  and  C_19
REMARK    7  A    between atoms: C_20  and  C_23
REMARK    8  A    between atoms: C_21  and  C_22
REMARK    9  A    between atoms: C_21  and  C_26
REMARK   10  A    between atoms: C_22  and  C_24
REMARK   11  A    between atoms: C_24  and  C_28
REMARK   12  A    between atoms: C_24  and  C_29
REMARK   13  A    between atoms: C_30  and  C_35
REMARK                            x       y       z     vdW  Elec       q    Type
REMARK                         _______ _______ _______ _____ _____    ______ ____
ROOT
ATOM      4  O   UNL     1      -3.019 -10.958  10.700  0.00  0.00    -0.268 OA
ATOM      8  N   UNL     1      -5.306 -11.146  11.098  0.00  0.00    -0.285 N 
ATOM     14  C   UNL     1      -7.835 -10.423  12.380  0.00  0.00    +0.080 C 
ATOM     15  C   UNL     1      -5.292 -10.230  12.245  0.00  0.00    +0.164 C 
ATOM     16  C   UNL     1      -6.616  -9.501  12.468  0.00  0.00    +0.052 C 
ATOM     17  C   UNL     1      -7.794 -11.214  11.075  0.00  0.00    +0.039 C 
ATOM     18  C   UNL     1      -6.495 -12.002  10.945  0.00  0.00    +0.110 C 
ATOM     20  C   UNL     1      -4.148 -11.241  10.298  0.00  0.00    +0.265 C 
ENDROOT
BRANCH  20  23
ATOM     11  N   UNL     1      -4.769 -10.952   7.889  0.00  0.00    -0.262 N 
ATOM     12  N   UNL     1      -4.830 -11.616   6.722  0.00  0.00    -0.176 NA
ATOM     23  C   UNL     1      -4.315 -11.707   8.925  0.00  0.00    +0.123 A 
ATOM     27  C   UNL     1      -4.060 -12.950   8.410  0.00  0.00    +0.057 A 
ATOM     30  C   UNL     1      -4.395 -12.837   7.046  0.00  0.00    +0.061 A 
ATOM     32  C   UNL     1      -5.172  -9.565   7.932  0.00  0.00    +0.173 C 
ATOM     35  C   UNL     1      -4.313 -13.883   6.014  0.00  0.00    +0.067 C 
ENDBRANCH  20  23
BRANCH  15  19
ATOM      3  O   UNL     1      -5.276 -12.199  13.596  0.00  0.00    -0.274 OA
ATOM     10  N   UNL     1      -4.066 -10.339  14.300  0.00  0.00    -0.302 N 
ATOM     19  C   UNL     1      -4.885 -11.046  13.436  0.00  0.00    +0.234 C 
ATOM     37  H   UNL     1      -3.661  -9.465  13.980  0.00  0.00    +0.150 HD
BRANCH  10  21
ATOM     21  C   UNL     1      -3.554 -10.892  15.534  0.00  0.00    +0.159 C 
BRANCH  21  26
ATOM      7  O   UNL     1      -1.459 -10.011  14.674  0.00  0.00    -0.274 OA
ATOM     13  N   UNL     1      -1.464 -11.008  16.743  0.00  0.00    -0.328 N 
ATOM     26  C   UNL     1      -2.061 -10.596  15.571  0.00  0.00    +0.231 C 
ATOM     38  H   UNL     1      -1.979 -11.469  17.485  0.00  0.00    +0.145 HD
ATOM     39  H   UNL     1      -0.472 -10.857  16.902  0.00  0.00    +0.145 HD
ENDBRANCH  21  26
BRANCH  21  22
ATOM     22  C   UNL     1      -4.245 -10.296  16.767  0.00  0.00    +0.034 C 
BRANCH  22  24
ATOM     24  C   UNL     1      -5.296 -11.213  17.426  0.00  0.00    -0.015 C 
ATOM     28  C   UNL     1      -5.044 -12.692  17.134  0.00  0.00    +0.007 C 
ATOM     29  C   UNL     1      -5.307 -10.981  18.941  0.00  0.00    +0.007 C 
ENDBRANCH  22  24
ENDBRANCH  21  22
ENDBRANCH  10  21
ENDBRANCH  15  19
BRANCH  14   9
ATOM      9  N   UNL     1      -9.057  -9.662  12.480  0.00  0.00    -0.186 NA
ATOM     36  H   UNL     1      -9.386  -9.165  11.643  0.00  0.00    +0.148 HD
BRANCH   9   1
ATOM      1  S   UNL     1     -10.180 -10.112  13.690  0.00  0.00    +0.065 S 
ATOM      5  O   UNL     1     -10.192 -11.556  13.823  0.00  0.00    -0.153 OA
ATOM      6  O   UNL     1     -11.405  -9.364  13.494  0.00  0.00    -0.153 OA
BRANCH   1  25
ATOM      2  S   UNL     1     -10.553  -8.332  15.979  0.00  0.00    -0.077 S 
ATOM     25  C   UNL     1      -9.552  -9.494  15.251  0.00  0.00    +0.142 A 
ATOM     31  C   UNL     1      -8.431  -9.779  15.956  0.00  0.00    +0.036 A 
ATOM     33  C   UNL     1      -8.375  -9.014  17.157  0.00  0.00    +0.010 A 
ATOM     34  C   UNL     1      -9.468  -8.186  17.294  0.00  0.00    +0.047 A 
ENDBRANCH   1  25
ENDBRANCH   9   1
ENDBRANCH  14   9
TORSDOF 9
ENDMDL
MODEL 6
REMARK VINA RESULT:      -5.8      4.020      6.600
REMARK  Name = 11882485
REMARK  13 active torsions:
REMARK  status: ('A' for Active; 'I' for Inactive)
REMARK    1  A    between atoms: S_1  and  N_9
REMARK    2  A    between atoms: S_1  and  C_25
REMARK    3  A    between atoms: N_9  and  C_14
REMARK    4  A    between atoms: N_10  and  C_21
REMARK    5  A    between atoms: N_11  and  C_32
REMARK    6  A    between atoms: C_15  and  C_19
REMARK    7  A    between atoms: C_20  and  C_23
REMARK    8  A    between atoms: C_21  and  C_22
REMARK    9  A    between atoms: C_21  and  C_26
REMARK   10  A    between atoms: C_22  and  C_24
REMARK   11  A    between atoms: C_24  and  C_28
REMARK   12  A    between atoms: C_24  and  C_29
REMARK   13  A    between atoms: C_30  and  C_35
REMARK                            x       y       z     vdW  Elec       q    Type
REMARK                         _______ _______ _______ _____ _____    ______ ____
ROOT
ATOM      4  O   UNL     1       9.890   8.477   5.746  0.00  0.00    -0.268 OA
ATOM      8  N   UNL     1      10.269   6.543   4.505  0.00  0.00    -0.285 N 
ATOM     14  C   UNL     1      11.258   5.030   2.204  0.00  0.00    +0.080 C 
ATOM     15  C   UNL     1      10.721   7.268   3.311  0.00  0.00    +0.164 C 
ATOM     16  C   UNL     1      11.698   6.477   2.442  0.00  0.00    +0.052 C 
ATOM     17  C   UNL     1      10.953   4.354   3.539  0.00  0.00    +0.039 C 
ATOM     18  C   UNL     1       9.901   5.128   4.324  0.00  0.00    +0.110 C 
ATOM     20  C   UNL     1      10.098   7.264   5.705  0.00  0.00    +0.265 C 
ENDROOT
BRANCH  20  23
ATOM     11  N   UNL     1      11.316   6.183   7.609  0.00  0.00    -0.262 N 
ATOM     12  N   UNL     1      11.111   5.492   8.742  0.00  0.00    -0.176 NA
ATOM     23  C   UNL     1      10.170   6.516   6.956  0.00  0.00    +0.123 A 
ATOM     27  C   UNL     1       9.141   6.010   7.707  0.00  0.00    +0.057 A 
ATOM     30  C   UNL     1       9.780   5.390   8.798  0.00  0.00    +0.061 A 
ATOM     32  C   UNL     1      12.669   6.495   7.207  0.00  0.00    +0.173 C 
ATOM     35  C   UNL     1       9.147   4.681   9.922  0.00  0.00    +0.067 C 
ENDBRANCH  20  23
BRANCH  15  19
ATOM      3  O   UNL     1       9.146   7.096   1.524  0.00  0.00    -0.274 OA
ATOM     10  N   UNL     1       8.823   8.722   3.159  0.00  0.00    -0.302 N 
ATOM     19  C   UNL     1       9.484   7.662   2.560  0.00  0.00    +0.234 C 
ATOM     37  H   UNL     1       9.087   8.989   4.102  0.00  0.00    +0.150 HD
BRANCH  10  21
ATOM     21  C   UNL     1       7.616   9.307   2.620  0.00  0.00    +0.159 C 
BRANCH  21  26
ATOM      7  O   UNL     1       5.611  10.165   3.692  0.00  0.00    -0.274 OA
ATOM     13  N   UNL     1       7.248   9.237   5.008  0.00  0.00    -0.328 N 
ATOM     26  C   UNL     1       6.715   9.639   3.801  0.00  0.00    +0.231 C 
ATOM     38  H   UNL     1       8.151   8.782   5.082  0.00  0.00    +0.145 HD
ATOM     39  H   UNL     1       6.741   9.386   5.876  0.00  0.00    +0.145 HD
ENDBRANCH  21  26
BRANCH  21  22
ATOM     22  C   UNL     1       7.900  10.569   1.796  0.00  0.00    +0.034 C 
BRANCH  22  24
ATOM     24  C   UNL     1       7.514  10.469   0.306  0.00  0.00    -0.015 C 
ATOM     28  C   UNL     1       8.645   9.903  -0.553  0.00  0.00    +0.007 C 
ATOM     29  C   UNL     1       6.264   9.597   0.153  0.00  0.00    +0.007 C 
ENDBRANCH  22  24
ENDBRANCH  21  22
ENDBRANCH  10  21
ENDBRANCH  15  19
BRANCH  14   9
ATOM      9  N   UNL     1      12.272   4.301   1.480  0.00  0.00    -0.186 NA
ATOM     36  H   UNL     1      12.897   3.685   2.014  0.00  0.00    +0.148 HD
BRANCH   9   1
ATOM      1  S   UNL     1      12.001   3.995  -0.182  0.00  0.00    +0.065 S 
ATOM      5  O   UNL     1      10.574   3.912  -0.430  0.00  0.00    -0.153 OA
ATOM      6  O   UNL     1      12.903   2.949  -0.618  0.00  0.00    -0.153 OA
BRANCH   1  25
ATOM      2  S   UNL     1      14.204   5.388  -1.505  0.00  0.00    -0.077 S 
ATOM     25  C   UNL     1      12.560   5.439  -1.084  0.00  0.00    +0.142 A 
ATOM     31  C   UNL     1      11.918   6.560  -1.492  0.00  0.00    +0.036 A 
ATOM     33  C   UNL     1      12.805   7.432  -2.186  0.00  0.00    +0.010 A 
ATOM     34  C   UNL     1      14.081   6.917  -2.266  0.00  0.00    +0.047 A 
ENDBRANCH   1  25
ENDBRANCH   9   1
ENDBRANCH  14   9
TORSDOF 9
ENDMDL
MODEL 7
REMARK VINA RESULT:      -5.7     24.664     26.166
REMARK  Name = 11882485
REMARK  13 active torsions:
REMARK  status: ('A' for Active; 'I' for Inactive)
REMARK    1  A    between atoms: S_1  and  N_9
REMARK    2  A    between atoms: S_1  and  C_25
REMARK    3  A    between atoms: N_9  and  C_14
REMARK    4  A    between atoms: N_10  and  C_21
REMARK    5  A    between atoms: N_11  and  C_32
REMARK    6  A    between atoms: C_15  and  C_19
REMARK    7  A    between atoms: C_20  and  C_23
REMARK    8  A    between atoms: C_21  and  C_22
REMARK    9  A    between atoms: C_21  and  C_26
REMARK   10  A    between atoms: C_22  and  C_24
REMARK   11  A    between atoms: C_24  and  C_28
REMARK   12  A    between atoms: C_24  and  C_29
REMARK   13  A    between atoms: C_30  and  C_35
REMARK                            x       y       z     vdW  Elec       q    Type
REMARK                         _______ _______ _______ _____ _____    ______ ____
ROOT
ATOM      4  O   UNL     1      -7.009  -8.583   6.050  0.00  0.00    -0.268 OA
ATOM      8  N   UNL     1      -6.572  -9.134   8.270  0.00  0.00    -0.285 N 
ATOM     14  C   UNL     1      -4.853  -9.847  10.528  0.00  0.00    +0.080 C 
ATOM     15  C   UNL     1      -5.170  -9.489   8.019  0.00  0.00    +0.164 C 
ATOM     16  C   UNL     1      -4.258  -9.295   9.230  0.00  0.00    +0.052 C 
ATOM     17  C   UNL     1      -6.258  -9.287  10.734  0.00  0.00    +0.039 C 
ATOM     18  C   UNL     1      -7.158  -9.593   9.542  0.00  0.00    +0.110 C 
ATOM     20  C   UNL     1      -7.299  -8.495   7.244  0.00  0.00    +0.265 C 
ENDROOT
BRANCH  20  23
ATOM     11  N   UNL     1      -9.750  -8.107   7.581  0.00  0.00    -0.262 N 
ATOM     12  N   UNL     1     -10.629  -7.181   7.999  0.00  0.00    -0.176 NA
ATOM     23  C   UNL     1      -8.454  -7.695   7.634  0.00  0.00    +0.123 A 
ATOM     27  C   UNL     1      -8.480  -6.413   8.117  0.00  0.00    +0.057 A 
ATOM     30  C   UNL     1      -9.847  -6.147   8.325  0.00  0.00    +0.061 A 
ATOM     32  C   UNL     1     -10.237  -9.393   7.138  0.00  0.00    +0.173 C 
ATOM     35  C   UNL     1     -10.451  -4.907   8.838  0.00  0.00    +0.067 C 
ENDBRANCH  20  23
BRANCH  15  19
ATOM      3  O   UNL     1      -5.135 -11.860   8.307  0.00  0.00    -0.274 OA
ATOM     10  N   UNL     1      -5.195 -10.987   6.150  0.00  0.00    -0.302 N 
ATOM     19  C   UNL     1      -5.172 -10.908   7.532  0.00  0.00    +0.234 C 
ATOM     37  H   UNL     1      -5.409 -10.149   5.618  0.00  0.00    +0.150 HD
BRANCH  10  21
ATOM     21  C   UNL     1      -5.179 -12.240   5.429  0.00  0.00    +0.159 C 
BRANCH  21  26
ATOM      7  O   UNL     1      -7.086 -13.322   4.379  0.00  0.00    -0.274 OA
ATOM     13  N   UNL     1      -6.851 -11.049   4.152  0.00  0.00    -0.328 N 
ATOM     26  C   UNL     1      -6.452 -12.292   4.596  0.00  0.00    +0.231 C 
ATOM     38  H   UNL     1      -6.331 -10.203   4.359  0.00  0.00    +0.145 HD
ATOM     39  H   UNL     1      -7.694 -10.940   3.597  0.00  0.00    +0.145 HD
ENDBRANCH  21  26
BRANCH  21  22
ATOM     22  C   UNL     1      -3.946 -12.375   4.526  0.00  0.00    +0.034 C 
BRANCH  22  24
ATOM     24  C   UNL     1      -2.727 -13.044   5.191  0.00  0.00    -0.015 C 
ATOM     28  C   UNL     1      -3.131 -14.107   6.214  0.00  0.00    +0.007 C 
ATOM     29  C   UNL     1      -1.834 -13.675   4.118  0.00  0.00    +0.007 C 
ENDBRANCH  22  24
ENDBRANCH  21  22
ENDBRANCH  10  21
ENDBRANCH  15  19
BRANCH  14   9
ATOM      9  N   UNL     1      -4.005  -9.531  11.652  0.00  0.00    -0.186 NA
ATOM     36  H   UNL     1      -4.404  -8.971  12.416  0.00  0.00    +0.148 HD
BRANCH   9   1
ATOM      1  S   UNL     1      -2.681 -10.567  11.969  0.00  0.00    +0.065 S 
ATOM      5  O   UNL     1      -1.459  -9.945  11.498  0.00  0.00    -0.153 OA
ATOM      6  O   UNL     1      -3.039 -11.916  11.579  0.00  0.00    -0.153 OA
BRANCH   1  25
ATOM      2  S   UNL     1      -3.929 -11.146  14.549  0.00  0.00    -0.077 S 
ATOM     25  C   UNL     1      -2.507 -10.674  13.750  0.00  0.00    +0.142 A 
ATOM     31  C   UNL     1      -1.457 -10.449  14.575  0.00  0.00    +0.036 A 
ATOM     33  C   UNL     1      -1.819 -10.671  15.935  0.00  0.00    +0.010 A 
ATOM     34  C   UNL     1      -3.136 -11.055  16.063  0.00  0.00    +0.047 A 
ENDBRANCH   1  25
ENDBRANCH   9   1
ENDBRANCH  14   9
TORSDOF 9
ENDMDL
MODEL 8
REMARK VINA RESULT:      -5.5     25.264     27.753
REMARK  Name = 11882485
REMARK  13 active torsions:
REMARK  status: ('A' for Active; 'I' for Inactive)
REMARK    1  A    between atoms: S_1  and  N_9
REMARK    2  A    between atoms: S_1  and  C_25
REMARK    3  A    between atoms: N_9  and  C_14
REMARK    4  A    between atoms: N_10  and  C_21
REMARK    5  A    between atoms: N_11  and  C_32
REMARK    6  A    between atoms: C_15  and  C_19
REMARK    7  A    between atoms: C_20  and  C_23
REMARK    8  A    between atoms: C_21  and  C_22
REMARK    9  A    between atoms: C_21  and  C_26
REMARK   10  A    between atoms: C_22  and  C_24
REMARK   11  A    between atoms: C_24  and  C_28
REMARK   12  A    between atoms: C_24  and  C_29
REMARK   13  A    between atoms: C_30  and  C_35
REMARK                            x       y       z     vdW  Elec       q    Type
REMARK                         _______ _______ _______ _____ _____    ______ ____
ROOT
ATOM      4  O   UNL     1      -6.730  -8.206   4.829  0.00  0.00    -0.268 OA
ATOM      8  N   UNL     1      -8.821  -7.856   5.793  0.00  0.00    -0.285 N 
ATOM     14  C   UNL     1     -10.685  -6.650   7.700  0.00  0.00    +0.080 C 
ATOM     15  C   UNL     1      -8.291  -7.085   6.925  0.00  0.00    +0.164 C 
ATOM     16  C   UNL     1      -9.281  -6.073   7.501  0.00  0.00    +0.052 C 
ATOM     17  C   UNL     1     -11.168  -7.299   6.405  0.00  0.00    +0.039 C 
ATOM     18  C   UNL     1     -10.195  -8.370   5.925  0.00  0.00    +0.110 C 
ATOM     20  C   UNL     1      -7.956  -8.160   4.721  0.00  0.00    +0.265 C 
ENDROOT
BRANCH  20  23
ATOM     11  N   UNL     1      -8.815  -9.675   2.921  0.00  0.00    -0.262 N 
ATOM     12  N   UNL     1      -9.382  -9.659   1.704  0.00  0.00    -0.176 NA
ATOM     23  C   UNL     1      -8.563  -8.436   3.424  0.00  0.00    +0.123 A 
ATOM     27  C   UNL     1      -8.992  -7.544   2.476  0.00  0.00    +0.057 A 
ATOM     30  C   UNL     1      -9.488  -8.354   1.436  0.00  0.00    +0.061 A 
ATOM     32  C   UNL     1      -8.539 -10.944   3.554  0.00  0.00    +0.173 C 
ATOM     35  C   UNL     1     -10.076  -7.914   0.160  0.00  0.00    +0.067 C 
ENDBRANCH  20  23
BRANCH  15  19
ATOM      3  O   UNL     1      -8.557  -8.414   8.891  0.00  0.00    -0.274 OA
ATOM     10  N   UNL     1      -6.560  -8.548   7.703  0.00  0.00    -0.302 N 
ATOM     19  C   UNL     1      -7.842  -8.086   7.948  0.00  0.00    +0.234 C 
ATOM     37  H   UNL     1      -6.136  -8.351   6.801  0.00  0.00    +0.150 HD
BRANCH  10  21
ATOM     21  C   UNL     1      -5.886  -9.502   8.555  0.00  0.00    +0.159 C 
BRANCH  21  26
ATOM      7  O   UNL     1      -5.919 -11.924   8.360  0.00  0.00    -0.274 OA
ATOM     13  N   UNL     1      -5.828 -10.670   6.439  0.00  0.00    -0.328 N 
ATOM     26  C   UNL     1      -5.864 -10.828   7.808  0.00  0.00    +0.231 C 
ATOM     38  H   UNL     1      -5.807  -9.758   5.995  0.00  0.00    +0.145 HD
ATOM     39  H   UNL     1      -5.824 -11.476   5.821  0.00  0.00    +0.145 HD
ENDBRANCH  21  26
BRANCH  21  22
ATOM     22  C   UNL     1      -4.459  -9.063   8.903  0.00  0.00    +0.034 C 
BRANCH  22  24
ATOM     24  C   UNL     1      -4.169  -8.944  10.414  0.00  0.00    -0.015 C 
ATOM     28  C   UNL     1      -5.447  -8.905  11.251  0.00  0.00    +0.007 C 
ATOM     29  C   UNL     1      -3.291 -10.115  10.866  0.00  0.00    +0.007 C 
ENDBRANCH  22  24
ENDBRANCH  21  22
ENDBRANCH  10  21
ENDBRANCH  15  19
BRANCH  14   9
ATOM      9  N   UNL     1     -11.601  -5.622   8.132  0.00  0.00    -0.186 NA
ATOM     36  H   UNL     1     -11.756  -4.820   7.508  0.00  0.00    +0.148 HD
BRANCH   9   1
ATOM      1  S   UNL     1     -12.807  -6.054   9.267  0.00  0.00    +0.065 S 
ATOM      5  O   UNL     1     -12.571  -7.408   9.728  0.00  0.00    -0.153 OA
ATOM      6  O   UNL     1     -14.099  -5.647   8.754  0.00  0.00    -0.153 OA
BRANCH   1  25
ATOM      2  S   UNL     1     -13.031  -5.751  12.166  0.00  0.00    -0.077 S 
ATOM     25  C   UNL     1     -12.577  -5.011  10.706  0.00  0.00    +0.142 A 
ATOM     31  C   UNL     1     -12.110  -3.748  10.848  0.00  0.00    +0.036 A 
ATOM     33  C   UNL     1     -12.118  -3.350  12.216  0.00  0.00    +0.010 A 
ATOM     34  C   UNL     1     -12.596  -4.346  13.041  0.00  0.00    +0.047 A 
ENDBRANCH   1  25
ENDBRANCH   9   1
ENDBRANCH  14   9
TORSDOF 9
ENDMDL
MODEL 9
REMARK VINA RESULT:      -5.5     28.883     32.369
REMARK  Name = 11882485
REMARK  13 active torsions:
REMARK  status: ('A' for Active; 'I' for Inactive)
REMARK    1  A    between atoms: S_1  and  N_9
REMARK    2  A    between atoms: S_1  and  C_25
REMARK    3  A    between atoms: N_9  and  C_14
REMARK    4  A    between atoms: N_10  and  C_21
REMARK    5  A    between atoms: N_11  and  C_32
REMARK    6  A    between atoms: C_15  and  C_19
REMARK    7  A    between atoms: C_20  and  C_23
REMARK    8  A    between atoms: C_21  and  C_22
REMARK    9  A    between atoms: C_21  and  C_26
REMARK   10  A    between atoms: C_22  and  C_24
REMARK   11  A    between atoms: C_24  and  C_28
REMARK   12  A    between atoms: C_24  and  C_29
REMARK   13  A    between atoms: C_30  and  C_35
REMARK                            x       y       z     vdW  Elec       q    Type
REMARK                         _______ _______ _______ _____ _____    ______ ____
ROOT
ATOM      4  O   UNL     1      -8.673 -10.698  19.578  0.00  0.00    -0.268 OA
ATOM      8  N   UNL     1      -9.371  -9.963  17.481  0.00  0.00    -0.285 N 
ATOM     14  C   UNL     1     -10.881  -8.256  15.646  0.00  0.00    +0.080 C 
ATOM     15  C   UNL     1     -10.410  -9.075  18.018  0.00  0.00    +0.164 C 
ATOM     16  C   UNL     1     -10.723  -7.879  17.121  0.00  0.00    +0.052 C 
ATOM     17  C   UNL     1      -9.666  -9.056  15.182  0.00  0.00    +0.039 C 
ATOM     18  C   UNL     1      -9.455 -10.293  16.048  0.00  0.00    +0.110 C 
ATOM     20  C   UNL     1      -8.446 -10.536  18.378  0.00  0.00    +0.265 C 
ENDROOT
BRANCH  20  23
ATOM     11  N   UNL     1      -6.829 -12.235  17.500  0.00  0.00    -0.262 N 
ATOM     12  N   UNL     1      -5.579 -12.361  17.023  0.00  0.00    -0.176 NA
ATOM     23  C   UNL     1      -7.158 -10.959  17.839  0.00  0.00    +0.123 A 
ATOM     27  C   UNL     1      -6.054 -10.194  17.570  0.00  0.00    +0.057 A 
ATOM     30  C   UNL     1      -5.110 -11.111  17.068  0.00  0.00    +0.061 A 
ATOM     32  C   UNL     1      -7.666 -13.407  17.602  0.00  0.00    +0.173 C 
ATOM     35  C   UNL     1      -3.737 -10.828  16.618  0.00  0.00    +0.067 C 
ENDBRANCH  20  23
BRANCH  15  19
ATOM      3  O   UNL     1     -12.380 -10.252  17.357  0.00  0.00    -0.274 OA
ATOM     10  N   UNL     1     -11.753 -10.275  19.599  0.00  0.00    -0.302 N 
ATOM     19  C   UNL     1     -11.617  -9.932  18.264  0.00  0.00    +0.234 C 
ATOM     37  H   UNL     1     -10.971 -10.112  20.225  0.00  0.00    +0.150 HD
BRANCH  10  21
ATOM     21  C   UNL     1     -12.846 -11.076  20.101  0.00  0.00    +0.159 C 
BRANCH  21  26
ATOM      7  O   UNL     1     -12.890 -13.326  21.020  0.00  0.00    -0.274 OA
ATOM     13  N   UNL     1     -10.863 -12.272  20.796  0.00  0.00    -0.328 N 
ATOM     26  C   UNL     1     -12.237 -12.337  20.700  0.00  0.00    +0.231 C 
ATOM     38  H   UNL     1     -10.333 -11.457  20.505  0.00  0.00    +0.145 HD
ATOM     39  H   UNL     1     -10.329 -13.053  21.165  0.00  0.00    +0.145 HD
ENDBRANCH  21  26
BRANCH  21  22
ATOM     22  C   UNL     1     -13.674 -10.333  21.156  0.00  0.00    +0.034 C 
BRANCH  22  24
ATOM     24  C   UNL     1     -15.143 -10.074  20.762  0.00  0.00    -0.015 C 
ATOM     28  C   UNL     1     -15.568  -8.627  21.015  0.00  0.00    +0.007 C 
ATOM     29  C   UNL     1     -15.350 -10.421  19.285  0.00  0.00    +0.007 C 
ENDBRANCH  22  24
ENDBRANCH  21  22
ENDBRANCH  10  21
ENDBRANCH  15  19
BRANCH  14   9
ATOM      9  N   UNL     1     -11.057  -7.075  14.834  0.00  0.00    -0.186 NA
ATOM     36  H   UNL     1     -10.240  -6.710  14.330  0.00  0.00    +0.148 HD
BRANCH   9   1
ATOM      1  S   UNL     1     -12.630  -6.735  14.253  0.00  0.00    +0.065 S 
ATOM      5  O   UNL     1     -13.401  -6.092  15.299  0.00  0.00    -0.153 OA
ATOM      6  O   UNL     1     -13.133  -7.899  13.554  0.00  0.00    -0.153 OA
BRANCH   1  25
ATOM      2  S   UNL     1     -12.532  -6.149  11.391  0.00  0.00    -0.077 S 
ATOM     25  C   UNL     1     -12.461  -5.505  12.960  0.00  0.00    +0.142 A 
ATOM     31  C   UNL     1     -12.289  -4.162  13.000  0.00  0.00    +0.036 A 
ATOM     33  C   UNL     1     -12.208  -3.618  11.686  0.00  0.00    +0.010 A 
ATOM     34  C   UNL     1     -12.326  -4.590  10.716  0.00  0.00    +0.047 A 
ENDBRANCH   1  25
ENDBRANCH   9   1
ENDBRANCH  14   9
TORSDOF 9
ENDMDL
MODEL 10
REMARK VINA RESULT:      -5.5     12.075     15.553
REMARK  Name = 11882485
REMARK  13 active torsions:
REMARK  status: ('A' for Active; 'I' for Inactive)
REMARK    1  A    between atoms: S_1  and  N_9
REMARK    2  A    between atoms: S_1  and  C_25
REMARK    3  A    between atoms: N_9  and  C_14
REMARK    4  A    between atoms: N_10  and  C_21
REMARK    5  A    between atoms: N_11  and  C_32
REMARK    6  A    between atoms: C_15  and  C_19
REMARK    7  A    between atoms: C_20  and  C_23
REMARK    8  A    between atoms: C_21  and  C_22
REMARK    9  A    between atoms: C_21  and  C_26
REMARK   10  A    between atoms: C_22  and  C_24
REMARK   11  A    between atoms: C_24  and  C_28
REMARK   12  A    between atoms: C_24  and  C_29
REMARK   13  A    between atoms: C_30  and  C_35
REMARK                            x       y       z     vdW  Elec       q    Type
REMARK                         _______ _______ _______ _____ _____    ______ ____
ROOT
ATOM      4  O   UNL     1      -2.966   9.173   6.841  0.00  0.00    -0.268 OA
ATOM      8  N   UNL     1      -2.551   9.780   4.631  0.00  0.00    -0.285 N 
ATOM     14  C   UNL     1      -0.855  10.272   2.299  0.00  0.00    +0.080 C 
ATOM     15  C   UNL     1      -1.093   9.807   4.798  0.00  0.00    +0.164 C 
ATOM     16  C   UNL     1      -0.319   9.511   3.514  0.00  0.00    +0.052 C 
ATOM     17  C   UNL     1      -2.358  10.043   2.164  0.00  0.00    +0.039 C 
ATOM     18  C   UNL     1      -3.096  10.447   3.436  0.00  0.00    +0.110 C 
ATOM     20  C   UNL     1      -3.338   9.238   5.669  0.00  0.00    +0.265 C 
ENDROOT
BRANCH  20  23
ATOM     11  N   UNL     1      -5.831   9.410   5.495  0.00  0.00    -0.262 N 
ATOM     12  N   UNL     1      -6.914   8.727   5.088  0.00  0.00    -0.176 NA
ATOM     23  C   UNL     1      -4.662   8.736   5.318  0.00  0.00    +0.123 A 
ATOM     27  C   UNL     1      -4.996   7.529   4.761  0.00  0.00    +0.057 A 
ATOM     30  C   UNL     1      -6.398   7.579   4.640  0.00  0.00    +0.061 A 
ATOM     32  C   UNL     1      -5.998  10.732   6.052  0.00  0.00    +0.173 C 
ATOM     35  C   UNL     1      -7.288   6.539   4.099  0.00  0.00    +0.067 C 
ENDBRANCH  20  23
BRANCH  15  19
ATOM      3  O   UNL     1      -0.531  12.123   4.649  0.00  0.00    -0.274 OA
ATOM     10  N   UNL     1      -0.709  11.140   6.751  0.00  0.00    -0.302 N 
ATOM     19  C   UNL     1      -0.755  11.153   5.367  0.00  0.00    +0.234 C 
ATOM     37  H   UNL     1      -1.088  10.337   7.243  0.00  0.00    +0.150 HD
BRANCH  10  21
ATOM     21  C   UNL     1      -0.383  12.305   7.542  0.00  0.00    +0.159 C 
BRANCH  21  26
ATOM      7  O   UNL     1      -1.561  13.416   9.354  0.00  0.00    -0.274 OA
ATOM     13  N   UNL     1      -2.599  11.675   8.274  0.00  0.00    -0.328 N 
ATOM     26  C   UNL     1      -1.543  12.533   8.500  0.00  0.00    +0.231 C 
ATOM     38  H   UNL     1      -2.580  10.966   7.550  0.00  0.00    +0.145 HD
ATOM     39  H   UNL     1      -3.444  11.730   8.835  0.00  0.00    +0.145 HD
ENDBRANCH  21  26
BRANCH  21  22
ATOM     22  C   UNL     1       0.926  12.129   8.323  0.00  0.00    +0.034 C 
BRANCH  22  24
ATOM     24  C   UNL     1       2.093  13.014   7.840  0.00  0.00    -0.015 C 
ATOM     28  C   UNL     1       3.239  13.070   8.850  0.00  0.00    +0.007 C 
ATOM     29  C   UNL     1       2.614  12.493   6.496  0.00  0.00    +0.007 C 
ENDBRANCH  22  24
ENDBRANCH  21  22
ENDBRANCH  10  21
ENDBRANCH  15  19
BRANCH  14   9
ATOM      9  N   UNL     1      -0.165   9.865   1.098  0.00  0.00    -0.186 NA
ATOM     36  H   UNL     1      -0.587   9.122   0.527  0.00  0.00    +0.148 HD
BRANCH   9   1
ATOM      1  S   UNL     1       0.898  10.990   0.368  0.00  0.00    +0.065 S 
ATOM      5  O   UNL     1       0.767  12.274   1.029  0.00  0.00    -0.153 OA
ATOM      6  O   UNL     1       0.791  10.869  -1.072  0.00  0.00    -0.153 OA
BRANCH   1  25
ATOM      2  S   UNL     1       3.106  10.834   2.277  0.00  0.00    -0.077 S 
ATOM     25  C   UNL     1       2.569  10.442   0.715  0.00  0.00    +0.142 A 
ATOM     31  C   UNL     1       3.481   9.775  -0.033  0.00  0.00    +0.036 A 
ATOM     33  C   UNL     1       4.686   9.568   0.697  0.00  0.00    +0.010 A 
ATOM     34  C   UNL     1       4.618  10.094   1.969  0.00  0.00    +0.047 A 
ENDBRANCH   1  25
ENDBRANCH   9   1
ENDBRANCH  14   9
TORSDOF 9
ENDMDL
