MODEL 1
REMARK VINA RESULT:      -7.2      0.000      0.000
REMARK  Name = 25314986
REMARK  6 active torsions:
REMARK  status: ('A' for Active; 'I' for Inactive)
REMARK    1  A    between atoms: O_3  and  C_10
REMARK    2  A    between atoms: N_5  and  C_9
REMARK    3  A    between atoms: N_6  and  C_11
REMARK    4  A    between atoms: N_7  and  C_20
REMARK    5  A    between atoms: N_8  and  C_23
REMARK    6  A    between atoms: C_23  and  C_27
REMARK                            x       y       z     vdW  Elec       q    Type
REMARK                         _______ _______ _______ _____ _____    ______ ____
ROOT
ATOM      1  O   UNL     1      12.728   9.110  21.333  0.00  0.00    -0.342 OA
ATOM      2  O   UNL     1      11.503   7.249  21.976  0.00  0.00    -0.347 OA
ATOM      9  C   UNL     1      13.558   6.924  20.742  0.00  0.00    +0.144 C 
ATOM     10  C   UNL     1      12.787   6.973  19.404  0.00  0.00    +0.159 C 
ATOM     11  C   UNL     1      12.078   8.321  19.149  0.00  0.00    +0.136 C 
ATOM     12  C   UNL     1      12.835   7.763  21.812  0.00  0.00    +0.270 C 
ATOM     13  C   UNL     1      11.610   9.015  20.444  0.00  0.00    +0.170 C 
ATOM     14  C   UNL     1      10.660   8.183  21.285  0.00  0.00    +0.196 C 
ENDROOT
BRANCH  11   6
ATOM      4  O   UNL     1      12.044   8.809  16.305  0.00  0.00    -0.253 OA
ATOM      6  N   UNL     1      12.948   9.208  18.405  0.00  0.00    -0.291 N 
ATOM      8  N   UNL     1      13.811  10.287  16.573  0.00  0.00    -0.300 N 
ATOM     19  C   UNL     1      12.859   9.381  17.029  0.00  0.00    +0.300 C 
ATOM     28  H   UNL     1      13.707   9.667  18.901  0.00  0.00    +0.151 HD
ATOM     30  H   UNL     1      14.450  10.704  17.244  0.00  0.00    +0.150 HD
BRANCH   8  23
ATOM     23  C   UNL     1      13.942  10.653  15.182  0.00  0.00    +0.102 C 
ATOM     27  C   UNL     1      15.391  10.652  14.742  0.00  0.00    +0.024 C 
ENDBRANCH   8  23
ENDBRANCH  11   6
BRANCH   9   5
ATOM      5  N   UNL     1      14.921   7.427  20.557  0.00  0.00    -0.290 NA
ATOM      7  N   UNL     1      17.743   7.525  20.983  0.00  0.00    -0.327 N 
ATOM     15  C   UNL     1      15.789   6.371  20.022  0.00  0.00    +0.104 C 
ATOM     16  C   UNL     1      15.463   7.926  21.827  0.00  0.00    +0.104 C 
ATOM     17  C   UNL     1      17.205   6.899  19.772  0.00  0.00    +0.120 C 
ATOM     18  C   UNL     1      16.865   8.505  21.635  0.00  0.00    +0.120 C 
BRANCH   7  20
ATOM     20  C   UNL     1      19.126   7.683  21.127  0.00  0.00    +0.030 A 
ATOM     21  C   UNL     1      19.643   8.868  21.650  0.00  0.00    +0.023 A 
ATOM     22  C   UNL     1      19.988   6.654  20.745  0.00  0.00    +0.023 A 
ATOM     24  C   UNL     1      21.021   9.024  21.792  0.00  0.00    +0.002 A 
ATOM     25  C   UNL     1      21.367   6.811  20.887  0.00  0.00    +0.002 A 
ATOM     26  C   UNL     1      21.884   7.996  21.411  0.00  0.00    +0.000 A 
ENDBRANCH   7  20
ENDBRANCH   9   5
BRANCH  10   3
ATOM      3  O   UNL     1      11.800   5.932  19.430  0.00  0.00    -0.388 OA
ATOM     29  H   UNL     1      12.084   5.273  20.085  0.00  0.00    +0.210 HD
ENDBRANCH  10   3
TORSDOF 5
ENDMDL
MODEL 2
REMARK VINA RESULT:      -6.6     27.875     29.297
REMARK  Name = 25314986
REMARK  6 active torsions:
REMARK  status: ('A' for Active; 'I' for Inactive)
REMARK    1  A    between atoms: O_3  and  C_10
REMARK    2  A    between atoms: N_5  and  C_9
REMARK    3  A    between atoms: N_6  and  C_11
REMARK    4  A    between atoms: N_7  and  C_20
REMARK    5  A    between atoms: N_8  and  C_23
REMARK    6  A    between atoms: C_23  and  C_27
REMARK                            x       y       z     vdW  Elec       q    Type
REMARK                         _______ _______ _______ _____ _____    ______ ____
ROOT
ATOM      1  O   UNL     1      -5.600 -10.307  18.461  0.00  0.00    -0.342 OA
ATOM      2  O   UNL     1      -5.789 -12.549  19.023  0.00  0.00    -0.347 OA
ATOM      9  C   UNL     1      -6.286 -11.868  16.755  0.00  0.00    +0.144 C 
ATOM     10  C   UNL     1      -7.770 -11.647  17.124  0.00  0.00    +0.159 C 
ATOM     11  C   UNL     1      -7.983 -10.555  18.195  0.00  0.00    +0.136 C 
ATOM     12  C   UNL     1      -5.385 -11.642  17.984  0.00  0.00    +0.270 C 
ATOM     13  C   UNL     1      -6.817 -10.453  19.199  0.00  0.00    +0.170 C 
ATOM     14  C   UNL     1      -6.531 -11.741  19.950  0.00  0.00    +0.196 C 
ENDROOT
BRANCH  11   6
ATOM      4  O   UNL     1     -10.298  -9.726  16.685  0.00  0.00    -0.253 OA
ATOM      6  N   UNL     1      -8.197  -9.271  17.561  0.00  0.00    -0.291 N 
ATOM      8  N   UNL     1      -9.294  -7.662  16.347  0.00  0.00    -0.300 N 
ATOM     19  C   UNL     1      -9.350  -8.958  16.850  0.00  0.00    +0.300 C 
ATOM     28  H   UNL     1      -7.439  -8.596  17.573  0.00  0.00    +0.151 HD
ATOM     30  H   UNL     1      -8.465  -7.103  16.527  0.00  0.00    +0.150 HD
BRANCH   8  23
ATOM     23  C   UNL     1     -10.361  -7.077  15.569  0.00  0.00    +0.102 C 
ATOM     27  C   UNL     1     -11.225  -6.162  16.410  0.00  0.00    +0.024 C 
ENDBRANCH   8  23
ENDBRANCH  11   6
BRANCH   9   5
ATOM      5  N   UNL     1      -5.893 -10.956  15.679  0.00  0.00    -0.290 NA
ATOM      7  N   UNL     1      -5.240 -10.215  13.000  0.00  0.00    -0.327 N 
ATOM     15  C   UNL     1      -6.937 -10.895  14.651  0.00  0.00    +0.104 C 
ATOM     16  C   UNL     1      -4.623 -11.385  15.078  0.00  0.00    +0.104 C 
ATOM     17  C   UNL     1      -6.564  -9.902  13.546  0.00  0.00    +0.120 C 
ATOM     18  C   UNL     1      -4.174 -10.409  13.990  0.00  0.00    +0.120 C 
BRANCH   7  20
ATOM     20  C   UNL     1      -4.883  -9.738  11.733  0.00  0.00    +0.030 A 
ATOM     21  C   UNL     1      -5.792  -8.989  10.987  0.00  0.00    +0.023 A 
ATOM     22  C   UNL     1      -3.616 -10.013  11.217  0.00  0.00    +0.023 A 
ATOM     24  C   UNL     1      -5.435  -8.516   9.724  0.00  0.00    +0.002 A 
ATOM     25  C   UNL     1      -3.259  -9.540   9.954  0.00  0.00    +0.002 A 
ATOM     26  C   UNL     1      -4.169  -8.791   9.208  0.00  0.00    +0.000 A 
ENDBRANCH   7  20
ENDBRANCH   9   5
BRANCH  10   3
ATOM      3  O   UNL     1      -8.286 -12.889  17.624  0.00  0.00    -0.388 OA
ATOM     29  H   UNL     1      -8.276 -12.842  18.595  0.00  0.00    +0.210 HD
ENDBRANCH  10   3
TORSDOF 5
ENDMDL
MODEL 3
REMARK VINA RESULT:      -6.5     27.036     29.843
REMARK  Name = 25314986
REMARK  6 active torsions:
REMARK  status: ('A' for Active; 'I' for Inactive)
REMARK    1  A    between atoms: O_3  and  C_10
REMARK    2  A    between atoms: N_5  and  C_9
REMARK    3  A    between atoms: N_6  and  C_11
REMARK    4  A    between atoms: N_7  and  C_20
REMARK    5  A    between atoms: N_8  and  C_23
REMARK    6  A    between atoms: C_23  and  C_27
REMARK                            x       y       z     vdW  Elec       q    Type
REMARK                         _______ _______ _______ _____ _____    ______ ____
ROOT
ATOM      1  O   UNL     1      -8.839 -11.091  20.193  0.00  0.00    -0.342 OA
ATOM      2  O   UNL     1      -9.784 -13.209  20.181  0.00  0.00    -0.347 OA
ATOM      9  C   UNL     1      -8.600 -12.448  18.213  0.00  0.00    +0.144 C 
ATOM     10  C   UNL     1      -9.905 -11.860  17.630  0.00  0.00    +0.159 C 
ATOM     11  C   UNL     1     -10.518 -10.739  18.498  0.00  0.00    +0.136 C 
ATOM     12  C   UNL     1      -8.646 -12.442  19.753  0.00  0.00    +0.270 C 
ATOM     13  C   UNL     1     -10.248 -10.922  20.006  0.00  0.00    +0.170 C 
ATOM     14  C   UNL     1     -10.761 -12.233  20.573  0.00  0.00    +0.196 C 
ENDROOT
BRANCH  11   6
ATOM      4  O   UNL     1     -11.432  -9.197  16.237  0.00  0.00    -0.253 OA
ATOM      6  N   UNL     1     -10.024  -9.449  18.065  0.00  0.00    -0.291 N 
ATOM      8  N   UNL     1      -9.876  -7.561  16.768  0.00  0.00    -0.300 N 
ATOM     19  C   UNL     1     -10.528  -8.776  16.958  0.00  0.00    +0.300 C 
ATOM     28  H   UNL     1      -9.224  -9.052  18.549  0.00  0.00    +0.151 HD
ATOM     30  H   UNL     1      -9.133  -7.300  17.410  0.00  0.00    +0.150 HD
BRANCH   8  23
ATOM     23  C   UNL     1     -10.200  -6.658  15.688  0.00  0.00    +0.102 C 
ATOM     27  C   UNL     1     -11.425  -5.829  16.008  0.00  0.00    +0.024 C 
ENDBRANCH   8  23
ENDBRANCH  11   6
BRANCH   9   5
ATOM      5  N   UNL     1      -7.447 -11.673  17.750  0.00  0.00    -0.290 NA
ATOM      7  N   UNL     1      -5.030 -11.212  16.300  0.00  0.00    -0.327 N 
ATOM     15  C   UNL     1      -7.472 -11.540  16.289  0.00  0.00    +0.104 C 
ATOM     16  C   UNL     1      -6.195 -12.312  18.173  0.00  0.00    +0.104 C 
ATOM     17  C   UNL     1      -6.301 -10.685  15.795  0.00  0.00    +0.120 C 
ATOM     18  C   UNL     1      -4.983 -11.482  17.743  0.00  0.00    +0.120 C 
BRANCH   7  20
ATOM     20  C   UNL     1      -3.835 -10.876  15.655  0.00  0.00    +0.030 A 
ATOM     21  C   UNL     1      -3.795 -10.781  14.264  0.00  0.00    +0.023 A 
ATOM     22  C   UNL     1      -2.682 -10.637  16.404  0.00  0.00    +0.023 A 
ATOM     24  C   UNL     1      -2.603 -10.447  13.622  0.00  0.00    +0.002 A 
ATOM     25  C   UNL     1      -1.490 -10.303  15.761  0.00  0.00    +0.002 A 
ATOM     26  C   UNL     1      -1.450 -10.208  14.370  0.00  0.00    +0.000 A 
ENDBRANCH   7  20
ENDBRANCH   9   5
BRANCH  10   3
ATOM      3  O   UNL     1     -10.856 -12.929  17.521  0.00  0.00    -0.388 OA
ATOM     29  H   UNL     1     -11.652 -12.665  18.012  0.00  0.00    +0.210 HD
ENDBRANCH  10   3
TORSDOF 5
ENDMDL
MODEL 4
REMARK VINA RESULT:      -6.1     13.363     14.714
REMARK  Name = 25314986
REMARK  6 active torsions:
REMARK  status: ('A' for Active; 'I' for Inactive)
REMARK    1  A    between atoms: O_3  and  C_10
REMARK    2  A    between atoms: N_5  and  C_9
REMARK    3  A    between atoms: N_6  and  C_11
REMARK    4  A    between atoms: N_7  and  C_20
REMARK    5  A    between atoms: N_8  and  C_23
REMARK    6  A    between atoms: C_23  and  C_27
REMARK                            x       y       z     vdW  Elec       q    Type
REMARK                         _______ _______ _______ _____ _____    ______ ____
ROOT
ATOM      1  O   UNL     1      10.016   8.281   5.335  0.00  0.00    -0.342 OA
ATOM      2  O   UNL     1       8.969   8.215   7.403  0.00  0.00    -0.347 OA
ATOM      9  C   UNL     1      11.370   7.937   7.301  0.00  0.00    +0.144 C 
ATOM     10  C   UNL     1      11.208   6.406   7.167  0.00  0.00    +0.159 C 
ATOM     11  C   UNL     1      10.446   5.976   5.894  0.00  0.00    +0.136 C 
ATOM     12  C   UNL     1      10.146   8.663   6.711  0.00  0.00    +0.270 C 
ATOM     13  C   UNL     1       9.385   7.001   5.446  0.00  0.00    +0.170 C 
ATOM     14  C   UNL     1       8.332   7.303   6.495  0.00  0.00    +0.196 C 
ENDROOT
BRANCH  11   6
ATOM      4  O   UNL     1       9.984   4.401   3.521  0.00  0.00    -0.253 OA
ATOM      6  N   UNL     1      11.379   5.732   4.814  0.00  0.00    -0.291 N 
ATOM      8  N   UNL     1      12.142   4.886   2.822  0.00  0.00    -0.300 N 
ATOM     19  C   UNL     1      11.068   4.955   3.704  0.00  0.00    +0.300 C 
ATOM     28  H   UNL     1      12.328   6.081   4.909  0.00  0.00    +0.151 HD
ATOM     30  H   UNL     1      13.003   5.369   3.061  0.00  0.00    +0.150 HD
BRANCH   8  23
ATOM     23  C   UNL     1      12.093   4.143   1.584  0.00  0.00    +0.102 C 
ATOM     27  C   UNL     1      13.247   3.168   1.476  0.00  0.00    +0.024 C 
ENDBRANCH   8  23
ENDBRANCH  11   6
BRANCH   9   5
ATOM      5  N   UNL     1      12.585   8.377   6.613  0.00  0.00    -0.290 NA
ATOM      7  N   UNL     1      15.294   9.261   6.416  0.00  0.00    -0.327 N 
ATOM     15  C   UNL     1      13.690   7.448   6.877  0.00  0.00    +0.104 C 
ATOM     16  C   UNL     1      12.957   9.732   7.040  0.00  0.00    +0.104 C 
ATOM     17  C   UNL     1      14.954   7.867   6.119  0.00  0.00    +0.120 C 
ATOM     18  C   UNL     1      14.194  10.225   6.288  0.00  0.00    +0.120 C 
BRANCH   7  20
ATOM     20  C   UNL     1      16.598   9.719   6.197  0.00  0.00    +0.030 A 
ATOM     21  C   UNL     1      16.901  11.070   6.362  0.00  0.00    +0.023 A 
ATOM     22  C   UNL     1      17.596   8.822   5.812  0.00  0.00    +0.023 A 
ATOM     24  C   UNL     1      18.201  11.525   6.142  0.00  0.00    +0.002 A 
ATOM     25  C   UNL     1      18.896   9.278   5.592  0.00  0.00    +0.002 A 
ATOM     26  C   UNL     1      19.198  10.629   5.757  0.00  0.00    +0.000 A 
ENDBRANCH   7  20
ENDBRANCH   9   5
BRANCH  10   3
ATOM      3  O   UNL     1      10.486   5.941   8.315  0.00  0.00    -0.388 OA
ATOM     29  H   UNL     1       9.553   5.849   8.058  0.00  0.00    +0.210 HD
ENDBRANCH  10   3
TORSDOF 5
ENDMDL
MODEL 5
REMARK VINA RESULT:      -6.0     27.007     29.289
REMARK  Name = 25314986
REMARK  6 active torsions:
REMARK  status: ('A' for Active; 'I' for Inactive)
REMARK    1  A    between atoms: O_3  and  C_10
REMARK    2  A    between atoms: N_5  and  C_9
REMARK    3  A    between atoms: N_6  and  C_11
REMARK    4  A    between atoms: N_7  and  C_20
REMARK    5  A    between atoms: N_8  and  C_23
REMARK    6  A    between atoms: C_23  and  C_27
REMARK                            x       y       z     vdW  Elec       q    Type
REMARK                         _______ _______ _______ _____ _____    ______ ____
ROOT
ATOM      1  O   UNL     1      -4.089 -13.009  13.330  0.00  0.00    -0.342 OA
ATOM      2  O   UNL     1      -2.098 -13.470  14.426  0.00  0.00    -0.347 OA
ATOM      9  C   UNL     1      -3.558 -11.765  15.327  0.00  0.00    +0.144 C 
ATOM     10  C   UNL     1      -2.847 -10.682  14.486  0.00  0.00    +0.159 C 
ATOM     11  C   UNL     1      -2.967 -10.906  12.963  0.00  0.00    +0.136 C 
ATOM     12  C   UNL     1      -3.481 -13.132  14.623  0.00  0.00    +0.270 C 
ATOM     13  C   UNL     1      -3.040 -12.396  12.572  0.00  0.00    +0.170 C 
ATOM     14  C   UNL     1      -1.851 -13.217  13.034  0.00  0.00    +0.196 C 
ENDROOT
BRANCH  11   6
ATOM      4  O   UNL     1      -3.209  -9.592  10.405  0.00  0.00    -0.253 OA
ATOM      6  N   UNL     1      -4.126 -10.207  12.447  0.00  0.00    -0.291 N 
ATOM      8  N   UNL     1      -5.385  -9.003  10.953  0.00  0.00    -0.300 N 
ATOM     19  C   UNL     1      -4.152  -9.601  11.196  0.00  0.00    +0.300 C 
ATOM     28  H   UNL     1      -4.929 -10.090  13.057  0.00  0.00    +0.151 HD
ATOM     30  H   UNL     1      -6.102  -9.053  11.670  0.00  0.00    +0.150 HD
BRANCH   8  23
ATOM     23  C   UNL     1      -5.686  -8.300   9.728  0.00  0.00    +0.102 C 
ATOM     27  C   UNL     1      -6.356  -9.209   8.718  0.00  0.00    +0.024 C 
ENDBRANCH   8  23
ENDBRANCH  11   6
BRANCH   9   5
ATOM      5  N   UNL     1      -4.959 -11.398  15.542  0.00  0.00    -0.290 NA
ATOM      7  N   UNL     1      -7.263 -10.693  17.075  0.00  0.00    -0.327 N 
ATOM     15  C   UNL     1      -5.053 -10.079  16.178  0.00  0.00    +0.104 C 
ATOM     16  C   UNL     1      -5.634 -12.403  16.372  0.00  0.00    +0.104 C 
ATOM     17  C   UNL     1      -6.514  -9.658  16.359  0.00  0.00    +0.120 C 
ATOM     18  C   UNL     1      -7.113 -12.059  16.558  0.00  0.00    +0.120 C 
BRANCH   7  20
ATOM     20  C   UNL     1      -8.461 -10.362  17.719  0.00  0.00    +0.030 A 
ATOM     21  C   UNL     1      -9.249  -9.319  17.234  0.00  0.00    +0.023 A 
ATOM     22  C   UNL     1      -8.866 -11.076  18.847  0.00  0.00    +0.023 A 
ATOM     24  C   UNL     1     -10.442  -8.989  17.877  0.00  0.00    +0.002 A 
ATOM     25  C   UNL     1     -10.059 -10.747  19.490  0.00  0.00    +0.002 A 
ATOM     26  C   UNL     1     -10.847  -9.703  19.005  0.00  0.00    +0.000 A 
ENDBRANCH   7  20
ENDBRANCH   9   5
BRANCH  10   3
ATOM      3  O   UNL     1      -1.458 -10.692  14.844  0.00  0.00    -0.388 OA
ATOM     29  H   UNL     1      -1.289  -9.906  15.390  0.00  0.00    +0.210 HD
ENDBRANCH  10   3
TORSDOF 5
ENDMDL
MODEL 6
REMARK VINA RESULT:      -5.8      4.312      8.245
REMARK  Name = 25314986
REMARK  6 active torsions:
REMARK  status: ('A' for Active; 'I' for Inactive)
REMARK    1  A    between atoms: O_3  and  C_10
REMARK    2  A    between atoms: N_5  and  C_9
REMARK    3  A    between atoms: N_6  and  C_11
REMARK    4  A    between atoms: N_7  and  C_20
REMARK    5  A    between atoms: N_8  and  C_23
REMARK    6  A    between atoms: C_23  and  C_27
REMARK                            x       y       z     vdW  Elec       q    Type
REMARK                         _______ _______ _______ _____ _____    ______ ____
ROOT
ATOM      1  O   UNL     1      21.811   7.048  20.089  0.00  0.00    -0.342 OA
ATOM      2  O   UNL     1      22.490   5.136  21.213  0.00  0.00    -0.347 OA
ATOM      9  C   UNL     1      20.184   5.842  21.398  0.00  0.00    +0.144 C 
ATOM     10  C   UNL     1      20.523   6.696  22.641  0.00  0.00    +0.159 C 
ATOM     11  C   UNL     1      21.532   7.830  22.353  0.00  0.00    +0.136 C 
ATOM     12  C   UNL     1      21.409   5.726  20.473  0.00  0.00    +0.270 C 
ATOM     13  C   UNL     1      22.542   7.476  21.243  0.00  0.00    +0.170 C 
ATOM     14  C   UNL     1      23.364   6.232  21.526  0.00  0.00    +0.196 C 
ENDROOT
BRANCH  11   6
ATOM      4  O   UNL     1      20.325   9.721  24.168  0.00  0.00    -0.253 OA
ATOM      6  N   UNL     1      20.827   9.046  22.005  0.00  0.00    -0.291 N 
ATOM      8  N   UNL     1      19.658  10.991  22.345  0.00  0.00    -0.300 N 
ATOM     19  C   UNL     1      20.275   9.901  22.952  0.00  0.00    +0.300 C 
ATOM     28  H   UNL     1      20.664   9.244  21.022  0.00  0.00    +0.151 HD
ATOM     30  H   UNL     1      19.659  11.052  21.332  0.00  0.00    +0.150 HD
BRANCH   8  23
ATOM     23  C   UNL     1      19.002  12.037  23.095  0.00  0.00    +0.102 C 
ATOM     27  C   UNL     1      17.495  11.927  22.998  0.00  0.00    +0.024 C 
ENDBRANCH   8  23
ENDBRANCH  11   6
BRANCH   9   5
ATOM      5  N   UNL     1      19.065   6.439  20.666  0.00  0.00    -0.290 NA
ATOM      7  N   UNL     1      16.340   6.747  19.869  0.00  0.00    -0.327 N 
ATOM     15  C   UNL     1      18.076   6.991  21.600  0.00  0.00    +0.104 C 
ATOM     16  C   UNL     1      18.430   5.443  19.795  0.00  0.00    +0.104 C 
ATOM     17  C   UNL     1      16.927   7.668  20.847  0.00  0.00    +0.120 C 
ATOM     18  C   UNL     1      17.294   6.068  18.983  0.00  0.00    +0.120 C 
BRANCH   7  20
ATOM     20  C   UNL     1      15.047   6.979  19.389  0.00  0.00    +0.030 A 
ATOM     21  C   UNL     1      13.946   6.775  20.221  0.00  0.00    +0.023 A 
ATOM     22  C   UNL     1      14.858   7.413  18.076  0.00  0.00    +0.023 A 
ATOM     24  C   UNL     1      12.657   7.006  19.741  0.00  0.00    +0.002 A 
ATOM     25  C   UNL     1      13.568   7.644  17.596  0.00  0.00    +0.002 A 
ATOM     26  C   UNL     1      12.468   7.440  18.429  0.00  0.00    +0.000 A 
ENDBRANCH   7  20
ENDBRANCH   9   5
BRANCH  10   3
ATOM      3  O   UNL     1      21.083   5.823  23.632  0.00  0.00    -0.388 OA
ATOM     29  H   UNL     1      21.779   6.315  24.098  0.00  0.00    +0.210 HD
ENDBRANCH  10   3
TORSDOF 5
ENDMDL
MODEL 7
REMARK VINA RESULT:      -5.8     27.618     29.839
REMARK  Name = 25314986
REMARK  6 active torsions:
REMARK  status: ('A' for Active; 'I' for Inactive)
REMARK    1  A    between atoms: O_3  and  C_10
REMARK    2  A    between atoms: N_5  and  C_9
REMARK    3  A    between atoms: N_6  and  C_11
REMARK    4  A    between atoms: N_7  and  C_20
REMARK    5  A    between atoms: N_8  and  C_23
REMARK    6  A    between atoms: C_23  and  C_27
REMARK                            x       y       z     vdW  Elec       q    Type
REMARK                         _______ _______ _______ _____ _____    ______ ____
ROOT
ATOM      1  O   UNL     1      -9.947 -11.993  16.560  0.00  0.00    -0.342 OA
ATOM      2  O   UNL     1     -11.468 -10.280  16.923  0.00  0.00    -0.347 OA
ATOM      9  C   UNL     1      -9.262  -9.726  16.101  0.00  0.00    +0.144 C 
ATOM     10  C   UNL     1      -8.738  -9.571  17.546  0.00  0.00    +0.159 C 
ATOM     11  C   UNL     1      -8.819 -10.873  18.374  0.00  0.00    +0.136 C 
ATOM     12  C   UNL     1     -10.421 -10.738  16.051  0.00  0.00    +0.270 C 
ATOM     13  C   UNL     1     -10.005 -11.775  17.974  0.00  0.00    +0.170 C 
ATOM     14  C   UNL     1     -11.361 -11.105  18.093  0.00  0.00    +0.196 C 
ENDROOT
BRANCH  11   6
ATOM      4  O   UNL     1      -6.509 -10.675  20.092  0.00  0.00    -0.253 OA
ATOM      6  N   UNL     1      -7.580 -11.614  18.259  0.00  0.00    -0.291 N 
ATOM      8  N   UNL     1      -5.452 -12.284  18.797  0.00  0.00    -0.300 N 
ATOM     19  C   UNL     1      -6.515 -11.452  19.137  0.00  0.00    +0.300 C 
ATOM     28  H   UNL     1      -7.456 -12.223  17.456  0.00  0.00    +0.151 HD
ATOM     30  H   UNL     1      -5.544 -12.887  17.985  0.00  0.00    +0.150 HD
BRANCH   8  23
ATOM     23  C   UNL     1      -4.216 -12.320  19.543  0.00  0.00    +0.102 C 
ATOM     27  C   UNL     1      -3.082 -11.683  18.767  0.00  0.00    +0.024 C 
ENDBRANCH   8  23
ENDBRANCH  11   6
BRANCH   9   5
ATOM      5  N   UNL     1      -8.180 -10.169  15.218  0.00  0.00    -0.290 NA
ATOM      7  N   UNL     1      -6.061  -9.851  13.330  0.00  0.00    -0.327 N 
ATOM     15  C   UNL     1      -6.905  -9.570  15.628  0.00  0.00    +0.104 C 
ATOM     16  C   UNL     1      -8.475  -9.815  13.824  0.00  0.00    +0.104 C 
ATOM     17  C   UNL     1      -5.755 -10.068  14.747  0.00  0.00    +0.120 C 
ATOM     18  C   UNL     1      -7.379 -10.321  12.885  0.00  0.00    +0.120 C 
BRANCH   7  20
ATOM     20  C   UNL     1      -5.022  -9.822  12.393  0.00  0.00    +0.030 A 
ATOM     21  C   UNL     1      -5.156  -9.070  11.226  0.00  0.00    +0.023 A 
ATOM     22  C   UNL     1      -3.853 -10.546  12.626  0.00  0.00    +0.023 A 
ATOM     24  C   UNL     1      -4.120  -9.043  10.292  0.00  0.00    +0.002 A 
ATOM     25  C   UNL     1      -2.817 -10.519  11.692  0.00  0.00    +0.002 A 
ATOM     26  C   UNL     1      -2.951  -9.767  10.525  0.00  0.00    +0.000 A 
ENDBRANCH   7  20
ENDBRANCH   9   5
BRANCH  10   3
ATOM      3  O   UNL     1      -9.531  -8.566  18.193  0.00  0.00    -0.388 OA
ATOM     29  H   UNL     1      -8.977  -8.146  18.872  0.00  0.00    +0.210 HD
ENDBRANCH  10   3
TORSDOF 5
ENDMDL
MODEL 8
REMARK VINA RESULT:      -5.8     14.444     17.431
REMARK  Name = 25314986
REMARK  6 active torsions:
REMARK  status: ('A' for Active; 'I' for Inactive)
REMARK    1  A    between atoms: O_3  and  C_10
REMARK    2  A    between atoms: N_5  and  C_9
REMARK    3  A    between atoms: N_6  and  C_11
REMARK    4  A    between atoms: N_7  and  C_20
REMARK    5  A    between atoms: N_8  and  C_23
REMARK    6  A    between atoms: C_23  and  C_27
REMARK                            x       y       z     vdW  Elec       q    Type
REMARK                         _______ _______ _______ _____ _____    ______ ____
ROOT
ATOM      1  O   UNL     1      10.370   9.882   5.694  0.00  0.00    -0.342 OA
ATOM      2  O   UNL     1      10.462   9.193   7.906  0.00  0.00    -0.347 OA
ATOM      9  C   UNL     1      10.208   7.524   6.174  0.00  0.00    +0.144 C 
ATOM     10  C   UNL     1       8.670   7.630   6.268  0.00  0.00    +0.159 C 
ATOM     11  C   UNL     1       8.125   9.030   5.911  0.00  0.00    +0.136 C 
ATOM     12  C   UNL     1      10.866   8.859   6.568  0.00  0.00    +0.270 C 
ATOM     13  C   UNL     1       9.095  10.171   6.278  0.00  0.00    +0.170 C 
ATOM     14  C   UNL     1       9.470  10.218   7.747  0.00  0.00    +0.196 C 
ENDROOT
BRANCH  11   6
ATOM      4  O   UNL     1       5.938  10.461   4.688  0.00  0.00    -0.253 OA
ATOM      6  N   UNL     1       7.804   9.094   4.500  0.00  0.00    -0.291 N 
ATOM      8  N   UNL     1       6.648   9.704   2.614  0.00  0.00    -0.300 N 
ATOM     19  C   UNL     1       6.725   9.813   3.999  0.00  0.00    +0.300 C 
ATOM     28  H   UNL     1       8.348   8.528   3.856  0.00  0.00    +0.151 HD
ATOM     30  H   UNL     1       7.338   9.138   2.129  0.00  0.00    +0.150 HD
BRANCH   8  23
ATOM     23  C   UNL     1       5.620  10.352   1.833  0.00  0.00    +0.102 C 
ATOM     27  C   UNL     1       5.317   9.580   0.565  0.00  0.00    +0.024 C 
ENDBRANCH   8  23
ENDBRANCH  11   6
BRANCH   9   5
ATOM      5  N   UNL     1      10.606   7.160   4.813  0.00  0.00    -0.290 NA
ATOM      7  N   UNL     1      11.648   5.458   2.769  0.00  0.00    -0.327 N 
ATOM     15  C   UNL     1       9.833   6.003   4.344  0.00  0.00    +0.104 C 
ATOM     16  C   UNL     1      12.042   6.857   4.759  0.00  0.00    +0.104 C 
ATOM     17  C   UNL     1      10.200   5.645   2.901  0.00  0.00    +0.120 C 
ATOM     18  C   UNL     1      12.481   6.529   3.331  0.00  0.00    +0.120 C 
BRANCH   7  20
ATOM     20  C   UNL     1      12.157   4.726   1.690  0.00  0.00    +0.030 A 
ATOM     21  C   UNL     1      11.336   4.418   0.606  0.00  0.00    +0.023 A 
ATOM     22  C   UNL     1      13.486   4.304   1.700  0.00  0.00    +0.023 A 
ATOM     24  C   UNL     1      11.844   3.688  -0.468  0.00  0.00    +0.002 A 
ATOM     25  C   UNL     1      13.995   3.573   0.626  0.00  0.00    +0.002 A 
ATOM     26  C   UNL     1      13.173   3.266  -0.458  0.00  0.00    +0.000 A 
ENDBRANCH   7  20
ENDBRANCH   9   5
BRANCH  10   3
ATOM      3  O   UNL     1       8.292   7.320   7.617  0.00  0.00    -0.388 OA
ATOM     29  H   UNL     1       9.079   7.428   8.175  0.00  0.00    +0.210 HD
ENDBRANCH  10   3
TORSDOF 5
ENDMDL
MODEL 9
REMARK VINA RESULT:      -5.7     30.628     33.739
REMARK  Name = 25314986
REMARK  6 active torsions:
REMARK  status: ('A' for Active; 'I' for Inactive)
REMARK    1  A    between atoms: O_3  and  C_10
REMARK    2  A    between atoms: N_5  and  C_9
REMARK    3  A    between atoms: N_6  and  C_11
REMARK    4  A    between atoms: N_7  and  C_20
REMARK    5  A    between atoms: N_8  and  C_23
REMARK    6  A    between atoms: C_23  and  C_27
REMARK                            x       y       z     vdW  Elec       q    Type
REMARK                         _______ _______ _______ _____ _____    ______ ____
ROOT
ATOM      1  O   UNL     1      -9.462  -8.552  41.549  0.00  0.00    -0.342 OA
ATOM      2  O   UNL     1      -9.985 -10.218  40.023  0.00  0.00    -0.347 OA
ATOM      9  C   UNL     1      -8.134  -8.736  39.544  0.00  0.00    +0.144 C 
ATOM     10  C   UNL     1      -9.078  -7.760  38.807  0.00  0.00    +0.159 C 
ATOM     11  C   UNL     1     -10.177  -7.162  39.713  0.00  0.00    +0.136 C 
ATOM     12  C   UNL     1      -8.899  -9.505  40.637  0.00  0.00    +0.270 C 
ATOM     13  C   UNL     1     -10.625  -8.118  40.836  0.00  0.00    +0.170 C 
ATOM     14  C   UNL     1     -11.156  -9.451  40.341  0.00  0.00    +0.196 C 
ENDROOT
BRANCH  11   6
ATOM      4  O   UNL     1     -10.883  -4.498  38.858  0.00  0.00    -0.253 OA
ATOM      6  N   UNL     1      -9.722  -5.912  40.286  0.00  0.00    -0.291 N 
ATOM      8  N   UNL     1      -9.534  -3.639  40.538  0.00  0.00    -0.300 N 
ATOM     19  C   UNL     1     -10.117  -4.669  39.806  0.00  0.00    +0.300 C 
ATOM     28  H   UNL     1      -9.025  -5.946  41.024  0.00  0.00    +0.151 HD
ATOM     30  H   UNL     1      -8.906  -3.876  41.300  0.00  0.00    +0.150 HD
BRANCH   8  23
ATOM     23  C   UNL     1      -9.772  -2.243  40.253  0.00  0.00    +0.102 C 
ATOM     27  C   UNL     1      -8.804  -1.716  39.214  0.00  0.00    +0.024 C 
ENDBRANCH   8  23
ENDBRANCH  11   6
BRANCH   9   5
ATOM      5  N   UNL     1      -7.019  -8.001  40.144  0.00  0.00    -0.290 NA
ATOM      7  N   UNL     1      -4.331  -7.058  40.354  0.00  0.00    -0.327 N 
ATOM     15  C   UNL     1      -6.514  -6.984  39.214  0.00  0.00    +0.104 C 
ATOM     16  C   UNL     1      -5.936  -8.920  40.515  0.00  0.00    +0.104 C 
ATOM     17  C   UNL     1      -5.383  -6.170  39.850  0.00  0.00    +0.120 C 
ATOM     18  C   UNL     1      -4.788  -8.171  41.194  0.00  0.00    +0.120 C 
BRANCH   7  20
ATOM     20  C   UNL     1      -3.045  -6.553  40.573  0.00  0.00    +0.030 A 
ATOM     21  C   UNL     1      -2.269  -7.051  41.620  0.00  0.00    +0.023 A 
ATOM     22  C   UNL     1      -2.538  -5.551  39.745  0.00  0.00    +0.023 A 
ATOM     24  C   UNL     1      -0.987  -6.547  41.839  0.00  0.00    +0.002 A 
ATOM     25  C   UNL     1      -1.256  -5.047  39.964  0.00  0.00    +0.002 A 
ATOM     26  C   UNL     1      -0.480  -5.545  41.011  0.00  0.00    +0.000 A 
ENDBRANCH   7  20
ENDBRANCH   9   5
BRANCH  10   3
ATOM      3  O   UNL     1      -9.707  -8.483  37.739  0.00  0.00    -0.388 OA
ATOM     29  H   UNL     1     -10.466  -8.960  38.114  0.00  0.00    +0.210 HD
ENDBRANCH  10   3
TORSDOF 5
ENDMDL
MODEL 10
REMARK VINA RESULT:      -5.7     27.831     30.784
REMARK  Name = 25314986
REMARK  6 active torsions:
REMARK  status: ('A' for Active; 'I' for Inactive)
REMARK    1  A    between atoms: O_3  and  C_10
REMARK    2  A    between atoms: N_5  and  C_9
REMARK    3  A    between atoms: N_6  and  C_11
REMARK    4  A    between atoms: N_7  and  C_20
REMARK    5  A    between atoms: N_8  and  C_23
REMARK    6  A    between atoms: C_23  and  C_27
REMARK                            x       y       z     vdW  Elec       q    Type
REMARK                         _______ _______ _______ _____ _____    ______ ____
ROOT
ATOM      1  O   UNL     1     -10.857 -10.760  16.963  0.00  0.00    -0.342 OA
ATOM      2  O   UNL     1     -11.394  -9.063  18.450  0.00  0.00    -0.347 OA
ATOM      9  C   UNL     1      -9.133  -9.923  18.427  0.00  0.00    +0.144 C 
ATOM     10  C   UNL     1      -9.501 -10.978  19.494  0.00  0.00    +0.159 C 
ATOM     11  C   UNL     1     -10.583 -11.976  19.027  0.00  0.00    +0.136 C 
ATOM     12  C   UNL     1     -10.366  -9.561  17.578  0.00  0.00    +0.270 C 
ATOM     13  C   UNL     1     -11.591 -11.359  18.036  0.00  0.00    +0.170 C 
ATOM     14  C   UNL     1     -12.328 -10.147  18.575  0.00  0.00    +0.196 C 
ENDROOT
BRANCH  11   6
ATOM      4  O   UNL     1     -10.316 -14.596  20.206  0.00  0.00    -0.253 OA
ATOM      6  N   UNL     1      -9.963 -13.141  18.432  0.00  0.00    -0.291 N 
ATOM      8  N   UNL     1      -9.235 -15.313  18.282  0.00  0.00    -0.300 N 
ATOM     19  C   UNL     1      -9.879 -14.369  19.078  0.00  0.00    +0.300 C 
ATOM     28  H   UNL     1      -9.501 -13.036  17.533  0.00  0.00    +0.151 HD
ATOM     30  H   UNL     1      -8.899 -15.032  17.366  0.00  0.00    +0.150 HD
BRANCH   8  23
ATOM     23  C   UNL     1      -9.012 -16.675  18.708  0.00  0.00    +0.102 C 
ATOM     27  C   UNL     1      -8.089 -17.408  17.758  0.00  0.00    +0.024 C 
ENDBRANCH   8  23
ENDBRANCH  11   6
BRANCH   9   5
ATOM      5  N   UNL     1      -8.068 -10.432  17.562  0.00  0.00    -0.290 NA
ATOM      7  N   UNL     1      -5.457 -10.497  16.406  0.00  0.00    -0.327 N 
ATOM     15  C   UNL     1      -6.911 -10.852  18.362  0.00  0.00    +0.104 C 
ATOM     16  C   UNL     1      -7.659  -9.408  16.592  0.00  0.00    +0.104 C 
ATOM     17  C   UNL     1      -5.811 -11.437  17.473  0.00  0.00    +0.120 C 
ATOM     18  C   UNL     1      -6.585  -9.946  15.645  0.00  0.00    +0.120 C 
BRANCH   7  20
ATOM     20  C   UNL     1      -4.222 -10.617  15.757  0.00  0.00    +0.030 A 
ATOM     21  C   UNL     1      -4.169 -10.682  14.365  0.00  0.00    +0.023 A 
ATOM     22  C   UNL     1      -3.045 -10.672  16.504  0.00  0.00    +0.023 A 
ATOM     24  C   UNL     1      -2.938 -10.802  13.720  0.00  0.00    +0.002 A 
ATOM     25  C   UNL     1      -1.815 -10.792  15.859  0.00  0.00    +0.002 A 
ATOM     26  C   UNL     1      -1.761 -10.857  14.466  0.00  0.00    +0.000 A 
ENDBRANCH   7  20
ENDBRANCH   9   5
BRANCH  10   3
ATOM      3  O   UNL     1      -9.987 -10.281  20.650  0.00  0.00    -0.388 OA
ATOM     29  H   UNL     1      -9.271  -9.707  20.970  0.00  0.00    +0.210 HD
ENDBRANCH  10   3
TORSDOF 5
ENDMDL
