MODEL 1
REMARK VINA RESULT:      -6.5      0.000      0.000
REMARK  Name = 56775279
REMARK  3 active torsions:
REMARK  status: ('A' for Active; 'I' for Inactive)
REMARK    1  A    between atoms: N_7  and  C_15
REMARK    2  A    between atoms: C_15  and  C_17
REMARK    3  A    between atoms: C_16  and  C_18
REMARK                            x       y       z     vdW  Elec       q    Type
REMARK                         _______ _______ _______ _____ _____    ______ ____
ROOT
ATOM      2  O   UNL     1      11.968   6.733  20.918  0.00  0.00    -0.364 OA
ATOM      3  O   UNL     1       9.785   9.031  22.534  0.00  0.00    -0.273 OA
ATOM      4  O   UNL     1      14.902   6.918  17.121  0.00  0.00    -0.267 OA
ATOM      6  N   UNL     1      13.738   7.968  18.836  0.00  0.00    -0.291 N 
ATOM      7  N   UNL     1      11.889   9.422  21.619  0.00  0.00    -0.288 N 
ATOM      9  C   UNL     1      13.037   8.889  20.896  0.00  0.00    +0.124 C 
ATOM     10  C   UNL     1      13.227   7.383  21.064  0.00  0.00    +0.158 C 
ATOM     11  C   UNL     1      12.911   9.043  19.378  0.00  0.00    +0.133 C 
ATOM     12  C   UNL     1      14.105   7.012  19.875  0.00  0.00    +0.141 C 
ATOM     13  C   UNL     1      10.835   8.615  22.042  0.00  0.00    +0.242 C 
ATOM     14  C   UNL     1      11.083   7.120  21.945  0.00  0.00    +0.256 C 
ATOM     16  C   UNL     1      14.206   7.842  17.536  0.00  0.00    +0.285 C 
ENDROOT
BRANCH  16  18
ATOM      5  O   UNL     1      12.718   8.761  15.851  0.00  0.00    -0.350 OA
ATOM      8  N   UNL     1      12.567   9.862  15.015  0.00  0.00    -0.086 NA
ATOM     18  C   UNL     1      13.853   8.905  16.581  0.00  0.00    +0.222 A 
ATOM     21  C   UNL     1      14.468  10.084  16.251  0.00  0.00    +0.077 A 
ATOM     25  C   UNL     1      13.624  10.638  15.273  0.00  0.00    +0.157 A 
ENDBRANCH  16  18
BRANCH   7  15
ATOM     15  C   UNL     1      11.801  10.870  21.742  0.00  0.00    +0.143 C 
BRANCH  15  17
ATOM      1  F   UNL     1      13.667  12.679  26.737  0.00  0.00    -0.205 F 
ATOM     17  C   UNL     1      12.299  11.352  23.074  0.00  0.00    -0.030 A 
ATOM     19  C   UNL     1      13.670  11.413  23.325  0.00  0.00    +0.008 A 
ATOM     20  C   UNL     1      11.391  11.739  24.059  0.00  0.00    +0.008 A 
ATOM     22  C   UNL     1      14.132  11.862  24.563  0.00  0.00    +0.038 A 
ATOM     23  C   UNL     1      11.852  12.186  25.297  0.00  0.00    +0.038 A 
ATOM     24  C   UNL     1      13.223  12.248  25.549  0.00  0.00    +0.123 A 
ENDBRANCH  15  17
ENDBRANCH   7  15
TORSDOF 3
ENDMDL
MODEL 2
REMARK VINA RESULT:      -6.5      4.304      5.537
REMARK  Name = 56775279
REMARK  3 active torsions:
REMARK  status: ('A' for Active; 'I' for Inactive)
REMARK    1  A    between atoms: N_7  and  C_15
REMARK    2  A    between atoms: C_15  and  C_17
REMARK    3  A    between atoms: C_16  and  C_18
REMARK                            x       y       z     vdW  Elec       q    Type
REMARK                         _______ _______ _______ _____ _____    ______ ____
ROOT
ATOM      2  O   UNL     1      13.671   9.933  22.415  0.00  0.00    -0.364 OA
ATOM      3  O   UNL     1      16.741  11.689  22.805  0.00  0.00    -0.273 OA
ATOM      4  O   UNL     1      11.471   7.687  18.784  0.00  0.00    -0.267 OA
ATOM      6  N   UNL     1      13.401   8.486  19.802  0.00  0.00    -0.291 N 
ATOM      7  N   UNL     1      16.317   9.756  21.581  0.00  0.00    -0.288 N 
ATOM      9  C   UNL     1      15.339   8.777  21.122  0.00  0.00    +0.124 C 
ATOM     10  C   UNL     1      14.128   8.637  22.041  0.00  0.00    +0.158 C 
ATOM     11  C   UNL     1      14.701   9.153  19.782  0.00  0.00    +0.133 C 
ATOM     12  C   UNL     1      13.082   7.995  21.138  0.00  0.00    +0.141 C 
ATOM     13  C   UNL     1      15.994  10.761  22.490  0.00  0.00    +0.242 C 
ATOM     14  C   UNL     1      14.648  10.608  23.174  0.00  0.00    +0.256 C 
ATOM     16  C   UNL     1      12.560   8.254  18.724  0.00  0.00    +0.285 C 
ENDROOT
BRANCH  16  18
ATOM      5  O   UNL     1      13.562   7.798  16.559  0.00  0.00    -0.350 OA
ATOM      8  N   UNL     1      13.919   8.426  15.370  0.00  0.00    -0.086 NA
ATOM     18  C   UNL     1      13.011   8.711  17.399  0.00  0.00    +0.222 A 
ATOM     21  C   UNL     1      12.992   9.941  16.797  0.00  0.00    +0.077 A 
ATOM     25  C   UNL     1      13.569   9.705  15.536  0.00  0.00    +0.157 A 
ENDBRANCH  16  18
BRANCH   7  15
ATOM     15  C   UNL     1      17.616   9.748  20.924  0.00  0.00    +0.143 C 
BRANCH  15  17
ATOM      1  F   UNL     1      20.937   5.638  22.867  0.00  0.00    -0.205 F 
ATOM     17  C   UNL     1      18.501   8.652  21.442  0.00  0.00    -0.030 A 
ATOM     19  C   UNL     1      18.474   7.392  20.844  0.00  0.00    +0.008 A 
ATOM     20  C   UNL     1      19.352   8.894  22.522  0.00  0.00    +0.008 A 
ATOM     22  C   UNL     1      19.296   6.374  21.325  0.00  0.00    +0.038 A 
ATOM     23  C   UNL     1      20.174   7.875  23.004  0.00  0.00    +0.038 A 
ATOM     24  C   UNL     1      20.146   6.615  22.405  0.00  0.00    +0.123 A 
ENDBRANCH  15  17
ENDBRANCH   7  15
TORSDOF 3
ENDMDL
MODEL 3
REMARK VINA RESULT:      -6.4      3.247      7.207
REMARK  Name = 56775279
REMARK  3 active torsions:
REMARK  status: ('A' for Active; 'I' for Inactive)
REMARK    1  A    between atoms: N_7  and  C_15
REMARK    2  A    between atoms: C_15  and  C_17
REMARK    3  A    between atoms: C_16  and  C_18
REMARK                            x       y       z     vdW  Elec       q    Type
REMARK                         _______ _______ _______ _____ _____    ______ ____
ROOT
ATOM      2  O   UNL     1      11.567   7.588  22.013  0.00  0.00    -0.364 OA
ATOM      3  O   UNL     1      14.552   6.405  20.481  0.00  0.00    -0.273 OA
ATOM      4  O   UNL     1      10.331  11.523  24.475  0.00  0.00    -0.267 OA
ATOM      6  N   UNL     1      11.704  10.435  22.949  0.00  0.00    -0.291 N 
ATOM      7  N   UNL     1      13.709   8.573  20.540  0.00  0.00    -0.288 N 
ATOM      9  C   UNL     1      12.671   9.479  21.015  0.00  0.00    +0.124 C 
ATOM     10  C   UNL     1      11.334   8.795  21.293  0.00  0.00    +0.158 C 
ATOM     11  C   UNL     1      13.006  10.119  22.365  0.00  0.00    +0.133 C 
ATOM     12  C   UNL     1      10.627   9.781  22.214  0.00  0.00    +0.141 C 
ATOM     13  C   UNL     1      13.644   7.197  20.740  0.00  0.00    +0.242 C 
ATOM     14  C   UNL     1      12.306   6.675  21.234  0.00  0.00    +0.256 C 
ATOM     16  C   UNL     1      11.446  11.284  24.013  0.00  0.00    +0.285 C 
ENDROOT
BRANCH  16  18
ATOM      5  O   UNL     1      13.046  11.503  25.827  0.00  0.00    -0.350 OA
ATOM      8  N   UNL     1      14.125  12.277  26.240  0.00  0.00    -0.086 NA
ATOM     18  C   UNL     1      12.593  11.966  24.634  0.00  0.00    +0.222 A 
ATOM     21  C   UNL     1      13.349  13.037  24.238  0.00  0.00    +0.077 A 
ATOM     25  C   UNL     1      14.287  13.186  25.274  0.00  0.00    +0.157 A 
ENDBRANCH  16  18
BRANCH   7  15
ATOM     15  C   UNL     1      14.912   9.180  19.990  0.00  0.00    +0.143 C 
BRANCH  15  17
ATOM      1  F   UNL     1      14.071  11.187  14.796  0.00  0.00    -0.205 F 
ATOM     17  C   UNL     1      14.688   9.715  18.605  0.00  0.00    -0.030 A 
ATOM     19  C   UNL     1      14.243   8.865  17.592  0.00  0.00    +0.008 A 
ATOM     20  C   UNL     1      14.925  11.063  18.331  0.00  0.00    +0.008 A 
ATOM     22  C   UNL     1      14.034   9.362  16.306  0.00  0.00    +0.038 A 
ATOM     23  C   UNL     1      14.718  11.560  17.044  0.00  0.00    +0.038 A 
ATOM     24  C   UNL     1      14.272  10.710  16.032  0.00  0.00    +0.123 A 
ENDBRANCH  15  17
ENDBRANCH   7  15
TORSDOF 3
ENDMDL
MODEL 4
REMARK VINA RESULT:      -6.3      3.700      6.585
REMARK  Name = 56775279
REMARK  3 active torsions:
REMARK  status: ('A' for Active; 'I' for Inactive)
REMARK    1  A    between atoms: N_7  and  C_15
REMARK    2  A    between atoms: C_15  and  C_17
REMARK    3  A    between atoms: C_16  and  C_18
REMARK                            x       y       z     vdW  Elec       q    Type
REMARK                         _______ _______ _______ _____ _____    ______ ____
ROOT
ATOM      2  O   UNL     1      10.921   9.018  22.599  0.00  0.00    -0.364 OA
ATOM      3  O   UNL     1      11.313   5.832  21.064  0.00  0.00    -0.273 OA
ATOM      4  O   UNL     1      13.533  13.042  22.808  0.00  0.00    -0.267 OA
ATOM      6  N   UNL     1      12.955  11.053  21.755  0.00  0.00    -0.291 N 
ATOM      7  N   UNL     1      11.870   7.929  20.223  0.00  0.00    -0.288 N 
ATOM      9  C   UNL     1      11.938   9.368  20.447  0.00  0.00    +0.124 C 
ATOM     10  C   UNL     1      10.926   9.883  21.468  0.00  0.00    +0.158 C 
ATOM     11  C   UNL     1      13.275   9.818  21.043  0.00  0.00    +0.133 C 
ATOM     12  C   UNL     1      11.512  11.226  21.887  0.00  0.00    +0.141 C 
ATOM     13  C   UNL     1      11.279   7.062  21.138  0.00  0.00    +0.242 C 
ATOM     14  C   UNL     1      10.476   7.729  22.240  0.00  0.00    +0.256 C 
ATOM     16  C   UNL     1      13.846  12.013  22.211  0.00  0.00    +0.285 C 
ENDROOT
BRANCH  16  18
ATOM      5  O   UNL     1      15.766  12.117  20.729  0.00  0.00    -0.350 OA
ATOM      8  N   UNL     1      17.127  11.832  20.688  0.00  0.00    -0.086 NA
ATOM     18  C   UNL     1      15.278  11.790  21.952  0.00  0.00    +0.222 A 
ATOM     21  C   UNL     1      16.285  11.291  22.735  0.00  0.00    +0.077 A 
ATOM     25  C   UNL     1      17.413  11.340  21.897  0.00  0.00    +0.157 A 
ENDBRANCH  16  18
BRANCH   7  15
ATOM     15  C   UNL     1      12.595   7.405  19.075  0.00  0.00    +0.143 C 
BRANCH  15  17
ATOM      1  F   UNL     1      11.460  10.285  14.372  0.00  0.00    -0.205 F 
ATOM     17  C   UNL     1      12.292   8.173  17.821  0.00  0.00    -0.030 A 
ATOM     19  C   UNL     1      10.984   8.238  17.342  0.00  0.00    +0.008 A 
ATOM     20  C   UNL     1      13.319   8.822  17.135  0.00  0.00    +0.008 A 
ATOM     22  C   UNL     1      10.702   8.951  16.177  0.00  0.00    +0.038 A 
ATOM     23  C   UNL     1      13.039   9.535  15.970  0.00  0.00    +0.038 A 
ATOM     24  C   UNL     1      11.730   9.599  15.490  0.00  0.00    +0.123 A 
ENDBRANCH  15  17
ENDBRANCH   7  15
TORSDOF 3
ENDMDL
MODEL 5
REMARK VINA RESULT:      -6.2      4.243      6.283
REMARK  Name = 56775279
REMARK  3 active torsions:
REMARK  status: ('A' for Active; 'I' for Inactive)
REMARK    1  A    between atoms: N_7  and  C_15
REMARK    2  A    between atoms: C_15  and  C_17
REMARK    3  A    between atoms: C_16  and  C_18
REMARK                            x       y       z     vdW  Elec       q    Type
REMARK                         _______ _______ _______ _____ _____    ______ ____
ROOT
ATOM      2  O   UNL     1      15.369   6.353  19.026  0.00  0.00    -0.364 OA
ATOM      3  O   UNL     1      18.067   6.521  21.340  0.00  0.00    -0.273 OA
ATOM      4  O   UNL     1      10.980   8.284  18.766  0.00  0.00    -0.267 OA
ATOM      6  N   UNL     1      13.165   8.316  19.555  0.00  0.00    -0.291 N 
ATOM      7  N   UNL     1      16.643   8.224  20.641  0.00  0.00    -0.288 N 
ATOM      9  C   UNL     1      15.492   8.616  19.836  0.00  0.00    +0.124 C 
ATOM     10  C   UNL     1      15.249   7.715  18.627  0.00  0.00    +0.158 C 
ATOM     11  C   UNL     1      14.168   8.517  20.598  0.00  0.00    +0.133 C 
ATOM     12  C   UNL     1      13.792   7.992  18.279  0.00  0.00    +0.141 C 
ATOM     13  C   UNL     1      17.186   6.943  20.588  0.00  0.00    +0.242 C 
ATOM     14  C   UNL     1      16.684   6.071  19.451  0.00  0.00    +0.256 C 
ATOM     16  C   UNL     1      11.791   8.463  19.673  0.00  0.00    +0.285 C 
ENDROOT
BRANCH  16  18
ATOM      5  O   UNL     1      10.618   7.952  21.736  0.00  0.00    -0.350 OA
ATOM      8  N   UNL     1      10.197   8.541  22.924  0.00  0.00    -0.086 NA
ATOM     18  C   UNL     1      11.261   8.879  20.981  0.00  0.00    +0.222 A 
ATOM     21  C   UNL     1      11.280  10.080  21.640  0.00  0.00    +0.077 A 
ATOM     25  C   UNL     1      10.604   9.811  22.843  0.00  0.00    +0.157 A 
ENDBRANCH  16  18
BRANCH   7  15
ATOM     15  C   UNL     1      17.108   9.179  21.635  0.00  0.00    +0.143 C 
BRANCH  15  17
ATOM      1  F   UNL     1      21.152  12.532  19.608  0.00  0.00    -0.205 F 
ATOM     17  C   UNL     1      18.186  10.073  21.095  0.00  0.00    -0.030 A 
ATOM     19  C   UNL     1      19.528   9.742  21.287  0.00  0.00    +0.008 A 
ATOM     20  C   UNL     1      17.847  11.235  20.401  0.00  0.00    +0.008 A 
ATOM     22  C   UNL     1      20.529  10.572  20.784  0.00  0.00    +0.038 A 
ATOM     23  C   UNL     1      18.848  12.066  19.899  0.00  0.00    +0.038 A 
ATOM     24  C   UNL     1      20.190  11.735  20.091  0.00  0.00    +0.123 A 
ENDBRANCH  15  17
ENDBRANCH   7  15
TORSDOF 3
ENDMDL
MODEL 6
REMARK VINA RESULT:      -6.1     26.143     27.674
REMARK  Name = 56775279
REMARK  3 active torsions:
REMARK  status: ('A' for Active; 'I' for Inactive)
REMARK    1  A    between atoms: N_7  and  C_15
REMARK    2  A    between atoms: C_15  and  C_17
REMARK    3  A    between atoms: C_16  and  C_18
REMARK                            x       y       z     vdW  Elec       q    Type
REMARK                         _______ _______ _______ _____ _____    ______ ____
ROOT
ATOM      2  O   UNL     1      -1.750 -12.654  13.231  0.00  0.00    -0.364 OA
ATOM      3  O   UNL     1      -4.271 -14.640  14.769  0.00  0.00    -0.273 OA
ATOM      4  O   UNL     1      -1.728  -8.821  10.338  0.00  0.00    -0.267 OA
ATOM      6  N   UNL     1      -2.773 -10.153  11.929  0.00  0.00    -0.291 N 
ATOM      7  N   UNL     1      -4.220 -12.333  14.467  0.00  0.00    -0.288 N 
ATOM      9  C   UNL     1      -3.518 -11.176  13.925  0.00  0.00    +0.124 C 
ATOM     10  C   UNL     1      -2.009 -11.373  13.799  0.00  0.00    +0.158 C 
ATOM     11  C   UNL     1      -3.933 -10.842  12.490  0.00  0.00    +0.133 C 
ATOM     12  C   UNL     1      -1.605 -10.306  12.790  0.00  0.00    +0.141 C 
ATOM     13  C   UNL     1      -3.670 -13.612  14.451  0.00  0.00    +0.242 C 
ATOM     14  C   UNL     1      -2.197 -13.680  14.089  0.00  0.00    +0.256 C 
ATOM     16  C   UNL     1      -2.729  -9.385  10.776  0.00  0.00    +0.285 C 
ENDROOT
BRANCH  16  18
ATOM      5  O   UNL     1      -4.832  -8.230  10.397  0.00  0.00    -0.350 OA
ATOM      8  N   UNL     1      -5.946  -8.242   9.566  0.00  0.00    -0.086 NA
ATOM     18  C   UNL     1      -3.983  -9.219  10.021  0.00  0.00    +0.222 A 
ATOM     21  C   UNL     1      -4.506  -9.897   8.952  0.00  0.00    +0.077 A 
ATOM     25  C   UNL     1      -5.729  -9.245   8.711  0.00  0.00    +0.157 A 
ENDBRANCH  16  18
BRANCH   7  15
ATOM     15  C   UNL     1      -5.602 -12.132  14.879  0.00  0.00    +0.143 C 
BRANCH  15  17
ATOM      1  F   UNL     1      -5.959 -10.012  20.083  0.00  0.00    -0.205 F 
ATOM     17  C   UNL     1      -5.697 -11.566  16.267  0.00  0.00    -0.030 A 
ATOM     19  C   UNL     1      -6.670 -10.612  16.566  0.00  0.00    +0.008 A 
ATOM     20  C   UNL     1      -4.813 -11.995  17.257  0.00  0.00    +0.008 A 
ATOM     22  C   UNL     1      -6.758 -10.087  17.855  0.00  0.00    +0.038 A 
ATOM     23  C   UNL     1      -4.900 -11.470  18.546  0.00  0.00    +0.038 A 
ATOM     24  C   UNL     1      -5.873 -10.516  18.845  0.00  0.00    +0.123 A 
ENDBRANCH  15  17
ENDBRANCH   7  15
TORSDOF 3
ENDMDL
MODEL 7
REMARK VINA RESULT:      -6.1     14.909     19.630
REMARK  Name = 56775279
REMARK  3 active torsions:
REMARK  status: ('A' for Active; 'I' for Inactive)
REMARK    1  A    between atoms: N_7  and  C_15
REMARK    2  A    between atoms: C_15  and  C_17
REMARK    3  A    between atoms: C_16  and  C_18
REMARK                            x       y       z     vdW  Elec       q    Type
REMARK                         _______ _______ _______ _____ _____    ______ ____
ROOT
ATOM      2  O   UNL     1       9.751   7.666   1.721  0.00  0.00    -0.364 OA
ATOM      3  O   UNL     1       9.717   4.635  -0.144  0.00  0.00    -0.273 OA
ATOM      4  O   UNL     1      10.566   8.833   6.307  0.00  0.00    -0.267 OA
ATOM      6  N   UNL     1      10.827   7.389   4.506  0.00  0.00    -0.291 N 
ATOM      7  N   UNL     1      11.173   5.283   1.552  0.00  0.00    -0.288 N 
ATOM      9  C   UNL     1      11.543   6.286   2.543  0.00  0.00    +0.124 C 
ATOM     10  C   UNL     1      11.098   7.702   2.183  0.00  0.00    +0.158 C 
ATOM     11  C   UNL     1      10.875   6.060   3.902  0.00  0.00    +0.133 C 
ATOM     12  C   UNL     1      11.131   8.424   3.525  0.00  0.00    +0.141 C 
ATOM     13  C   UNL     1      10.158   5.494   0.622  0.00  0.00    +0.242 C 
ATOM     14  C   UNL     1       9.653   6.923   0.527  0.00  0.00    +0.256 C 
ATOM     16  C   UNL     1      10.598   7.697   5.839  0.00  0.00    +0.285 C 
ENDROOT
BRANCH  16  18
ATOM      5  O   UNL     1      11.340   6.334   7.706  0.00  0.00    -0.350 OA
ATOM      8  N   UNL     1      10.956   5.243   8.478  0.00  0.00    -0.086 NA
ATOM     18  C   UNL     1      10.388   6.576   6.770  0.00  0.00    +0.222 A 
ATOM     21  C   UNL     1       9.371   5.667   6.898  0.00  0.00    +0.077 A 
ATOM     25  C   UNL     1       9.778   4.863   7.977  0.00  0.00    +0.157 A 
ENDBRANCH  16  18
BRANCH   7  15
ATOM     15  C   UNL     1      11.796   3.973   1.676  0.00  0.00    +0.143 C 
BRANCH  15  17
ATOM      1  F   UNL     1      16.841   3.795  -0.818  0.00  0.00    -0.205 F 
ATOM     17  C   UNL     1      13.142   3.926   1.011  0.00  0.00    -0.030 A 
ATOM     19  C   UNL     1      14.285   3.672   1.768  0.00  0.00    +0.008 A 
ATOM     20  C   UNL     1      13.248   4.135  -0.364  0.00  0.00    +0.008 A 
ATOM     22  C   UNL     1      15.535   3.628   1.151  0.00  0.00    +0.038 A 
ATOM     23  C   UNL     1      14.497   4.092  -0.982  0.00  0.00    +0.038 A 
ATOM     24  C   UNL     1      15.641   3.838  -0.225  0.00  0.00    +0.123 A 
ENDBRANCH  15  17
ENDBRANCH   7  15
TORSDOF 3
ENDMDL
MODEL 8
REMARK VINA RESULT:      -6.1     27.737     30.427
REMARK  Name = 56775279
REMARK  3 active torsions:
REMARK  status: ('A' for Active; 'I' for Inactive)
REMARK    1  A    between atoms: N_7  and  C_15
REMARK    2  A    between atoms: C_15  and  C_17
REMARK    3  A    between atoms: C_16  and  C_18
REMARK                            x       y       z     vdW  Elec       q    Type
REMARK                         _______ _______ _______ _____ _____    ______ ____
ROOT
ATOM      2  O   UNL     1     -18.706   3.487  25.344  0.00  0.00    -0.364 OA
ATOM      3  O   UNL     1     -16.853   3.047  22.338  0.00  0.00    -0.273 OA
ATOM      4  O   UNL     1     -17.775   2.958  30.026  0.00  0.00    -0.267 OA
ATOM      6  N   UNL     1     -17.059   3.316  27.845  0.00  0.00    -0.291 N 
ATOM      7  N   UNL     1     -16.138   3.926  24.371  0.00  0.00    -0.288 N 
ATOM      9  C   UNL     1     -16.460   4.246  25.756  0.00  0.00    +0.124 C 
ATOM     10  C   UNL     1     -17.946   4.495  26.004  0.00  0.00    +0.158 C 
ATOM     11  C   UNL     1     -16.147   3.102  26.724  0.00  0.00    +0.133 C 
ATOM     12  C   UNL     1     -18.083   4.299  27.508  0.00  0.00    +0.141 C 
ATOM     13  C   UNL     1     -17.096   3.460  23.474  0.00  0.00    +0.242 C 
ATOM     14  C   UNL     1     -18.535   3.566  23.947  0.00  0.00    +0.256 C 
ATOM     16  C   UNL     1     -16.984   2.749  29.108  0.00  0.00    +0.285 C 
ENDROOT
BRANCH  16  18
ATOM      5  O   UNL     1     -16.030   0.516  29.104  0.00  0.00    -0.350 OA
ATOM      8  N   UNL     1     -14.864  -0.171  29.427  0.00  0.00    -0.086 NA
ATOM     18  C   UNL     1     -15.862   1.835  29.378  0.00  0.00    +0.222 A 
ATOM     21  C   UNL     1     -14.605   2.047  29.879  0.00  0.00    +0.077 A 
ATOM     25  C   UNL     1     -14.029   0.765  29.888  0.00  0.00    +0.157 A 
ENDBRANCH  16  18
BRANCH   7  15
ATOM     15  C   UNL     1     -14.732   3.952  23.998  0.00  0.00    +0.143 C 
BRANCH  15  17
ATOM      1  F   UNL     1     -13.479   8.429  20.820  0.00  0.00    -0.205 F 
ATOM     17  C   UNL     1     -14.398   5.146  23.150  0.00  0.00    -0.030 A 
ATOM     19  C   UNL     1     -15.170   6.305  23.243  0.00  0.00    +0.008 A 
ATOM     20  C   UNL     1     -13.316   5.096  22.271  0.00  0.00    +0.008 A 
ATOM     22  C   UNL     1     -14.859   7.413  22.456  0.00  0.00    +0.038 A 
ATOM     23  C   UNL     1     -13.006   6.205  21.483  0.00  0.00    +0.038 A 
ATOM     24  C   UNL     1     -13.778   7.363  21.575  0.00  0.00    +0.123 A 
ENDBRANCH  15  17
ENDBRANCH   7  15
TORSDOF 3
ENDMDL
MODEL 9
REMARK VINA RESULT:      -6.0      3.518      7.604
REMARK  Name = 56775279
REMARK  3 active torsions:
REMARK  status: ('A' for Active; 'I' for Inactive)
REMARK    1  A    between atoms: N_7  and  C_15
REMARK    2  A    between atoms: C_15  and  C_17
REMARK    3  A    between atoms: C_16  and  C_18
REMARK                            x       y       z     vdW  Elec       q    Type
REMARK                         _______ _______ _______ _____ _____    ______ ____
ROOT
ATOM      2  O   UNL     1      10.699   9.236  23.177  0.00  0.00    -0.364 OA
ATOM      3  O   UNL     1      12.475   6.753  21.350  0.00  0.00    -0.273 OA
ATOM      4  O   UNL     1      11.927  13.100  25.752  0.00  0.00    -0.267 OA
ATOM      6  N   UNL     1      12.389  11.538  24.094  0.00  0.00    -0.291 N 
ATOM      7  N   UNL     1      12.903   9.036  21.495  0.00  0.00    -0.288 N 
ATOM      9  C   UNL     1      12.540  10.324  22.073  0.00  0.00    +0.124 C 
ATOM     10  C   UNL     1      11.072  10.423  22.484  0.00  0.00    +0.158 C 
ATOM     11  C   UNL     1      13.276  10.621  23.382  0.00  0.00    +0.133 C 
ATOM     12  C   UNL     1      11.070  11.583  23.473  0.00  0.00    +0.141 C 
ATOM     13  C   UNL     1      12.143   7.887  21.699  0.00  0.00    +0.242 C 
ATOM     14  C   UNL     1      10.779   8.115  22.326  0.00  0.00    +0.256 C 
ATOM     16  C   UNL     1      12.707  12.340  25.180  0.00  0.00    +0.285 C 
ENDROOT
BRANCH  16  18
ATOM      5  O   UNL     1      14.392  11.372  26.636  0.00  0.00    -0.350 OA
ATOM      8  N   UNL     1      15.737  11.486  26.972  0.00  0.00    -0.086 NA
ATOM     18  C   UNL     1      14.090  12.288  25.681  0.00  0.00    +0.222 A 
ATOM     21  C   UNL     1      15.208  13.016  25.369  0.00  0.00    +0.077 A 
ATOM     25  C   UNL     1      16.202  12.473  26.201  0.00  0.00    +0.157 A 
ENDBRANCH  16  18
BRANCH   7  15
ATOM     15  C   UNL     1      14.193   8.954  20.826  0.00  0.00    +0.143 C 
BRANCH  15  17
ATOM      1  F   UNL     1      13.651   8.763  15.224  0.00  0.00    -0.205 F 
ATOM     17  C   UNL     1      14.049   8.903  19.332  0.00  0.00    -0.030 A 
ATOM     19  C   UNL     1      14.382   7.740  18.638  0.00  0.00    +0.008 A 
ATOM     20  C   UNL     1      13.581  10.019  18.638  0.00  0.00    +0.008 A 
ATOM     22  C   UNL     1      14.248   7.692  17.251  0.00  0.00    +0.038 A 
ATOM     23  C   UNL     1      13.447   9.972  17.250  0.00  0.00    +0.038 A 
ATOM     24  C   UNL     1      13.781   8.809  16.557  0.00  0.00    +0.123 A 
ENDBRANCH  15  17
ENDBRANCH   7  15
TORSDOF 3
ENDMDL
MODEL 10
REMARK VINA RESULT:      -5.8     28.885     30.469
REMARK  Name = 56775279
REMARK  3 active torsions:
REMARK  status: ('A' for Active; 'I' for Inactive)
REMARK    1  A    between atoms: N_7  and  C_15
REMARK    2  A    between atoms: C_15  and  C_17
REMARK    3  A    between atoms: C_16  and  C_18
REMARK                            x       y       z     vdW  Elec       q    Type
REMARK                         _______ _______ _______ _____ _____    ______ ____
ROOT
ATOM      2  O   UNL     1     -14.437   2.147  33.233  0.00  0.00    -0.364 OA
ATOM      3  O   UNL     1     -15.955   5.067  34.586  0.00  0.00    -0.273 OA
ATOM      4  O   UNL     1     -14.647  -0.164  29.028  0.00  0.00    -0.267 OA
ATOM      6  N   UNL     1     -14.889   1.771  30.292  0.00  0.00    -0.291 N 
ATOM      7  N   UNL     1     -15.154   4.710  32.431  0.00  0.00    -0.288 N 
ATOM      9  C   UNL     1     -14.551   3.788  31.477  0.00  0.00    +0.124 C 
ATOM     10  C   UNL     1     -13.719   2.685  32.126  0.00  0.00    +0.158 C 
ATOM     11  C   UNL     1     -15.587   2.997  30.673  0.00  0.00    +0.133 C 
ATOM     12  C   UNL     1     -13.643   1.623  31.036  0.00  0.00    +0.141 C 
ATOM     13  C   UNL     1     -15.333   4.382  33.772  0.00  0.00    +0.242 C 
ATOM     14  C   UNL     1     -14.618   3.124  34.233  0.00  0.00    +0.256 C 
ATOM     16  C   UNL     1     -15.265   0.859  29.318  0.00  0.00    +0.285 C 
ENDROOT
BRANCH  16  18
ATOM      5  O   UNL     1     -17.524   0.261  28.655  0.00  0.00    -0.350 OA
ATOM      8  N   UNL     1     -18.582   0.707  27.870  0.00  0.00    -0.086 NA
ATOM     18  C   UNL     1     -16.496   1.142  28.560  0.00  0.00    +0.222 A 
ATOM     21  C   UNL     1     -16.844   2.172  27.726  0.00  0.00    +0.077 A 
ATOM     25  C   UNL     1     -18.152   1.849  27.326  0.00  0.00    +0.157 A 
ENDBRANCH  16  18
BRANCH   7  15
ATOM     15  C   UNL     1     -15.721   5.938  31.892  0.00  0.00    +0.143 C 
BRANCH  15  17
ATOM      1  F   UNL     1     -12.089  10.232  32.165  0.00  0.00    -0.205 F 
ATOM     17  C   UNL     1     -14.752   7.083  31.965  0.00  0.00    -0.030 A 
ATOM     19  C   UNL     1     -15.088   8.317  31.406  0.00  0.00    +0.008 A 
ATOM     20  C   UNL     1     -13.518   6.914  32.591  0.00  0.00    +0.008 A 
ATOM     22  C   UNL     1     -14.188   9.380  31.473  0.00  0.00    +0.038 A 
ATOM     23  C   UNL     1     -12.617   7.977  32.658  0.00  0.00    +0.038 A 
ATOM     24  C   UNL     1     -12.953   9.210  32.099  0.00  0.00    +0.123 A 
ENDBRANCH  15  17
ENDBRANCH   7  15
TORSDOF 3
ENDMDL
