MODEL 1
REMARK VINA RESULT:      -6.9      0.000      0.000
REMARK  Name = 45783819
REMARK  13 active torsions:
REMARK  status: ('A' for Active; 'I' for Inactive)
REMARK    1  A    between atoms: O_2  and  C_20
REMARK    2  A    between atoms: O_2  and  C_28
REMARK    3  A    between atoms: O_3  and  C_21
REMARK    4  A    between atoms: O_3  and  C_29
REMARK    5  A    between atoms: O_4  and  C_22
REMARK    6  A    between atoms: O_4  and  C_30
REMARK    7  A    between atoms: N_5  and  C_14
REMARK    8  A    between atoms: N_9  and  C_27
REMARK    9  A    between atoms: N_9  and  C_31
REMARK   10  A    between atoms: N_9  and  C_32
REMARK   11  A    between atoms: C_10  and  C_15
REMARK   12  A    between atoms: C_14  and  C_16
REMARK   13  A    between atoms: C_19  and  C_23
REMARK                            x       y       z     vdW  Elec       q    Type
REMARK                         _______ _______ _______ _____ _____    ______ ____
ROOT
ATOM      5  N   UNL     1      12.583   8.895  20.211  0.00  0.00    -0.287 NA
ATOM     10  C   UNL     1      13.287   8.246  21.335  0.00  0.00    +0.146 C 
ATOM     11  C   UNL     1      12.253   7.274  21.934  0.00  0.00    +0.030 C 
ATOM     12  C   UNL     1      10.984   7.493  21.122  0.00  0.00    +0.017 C 
ATOM     13  C   UNL     1      11.161   8.885  20.552  0.00  0.00    +0.085 C 
ENDROOT
BRANCH  10  15
ATOM      1  O   UNL     1      14.449   6.671  19.871  0.00  0.00    -0.336 OA
ATOM      6  N   UNL     1      15.773   7.667  21.377  0.00  0.00    -0.190 NA
ATOM      7  N   UNL     1      15.736   6.162  19.655  0.00  0.00    -0.056 NA
ATOM     15  C   UNL     1      14.560   7.550  20.901  0.00  0.00    +0.245 A 
ATOM     19  C   UNL     1      16.460   6.797  20.582  0.00  0.00    +0.204 A 
BRANCH  19  23
ATOM      8  N   UNL     1      19.949   7.228  21.792  0.00  0.00    -0.240 NA
ATOM     23  C   UNL     1      17.870   6.587  20.737  0.00  0.00    +0.041 A 
ATOM     24  C   UNL     1      18.530   5.590  20.027  0.00  0.00    +0.016 A 
ATOM     25  C   UNL     1      18.619   7.373  21.600  0.00  0.00    +0.124 A 
ATOM     26  C   UNL     1      19.898   5.411  20.199  0.00  0.00    +0.044 A 
ATOM     27  C   UNL     1      20.555   6.249  21.085  0.00  0.00    +0.121 A 
BRANCH  27   9
ATOM      9  N   UNL     1      21.949   6.054  21.251  0.00  0.00    -0.321 N 
ATOM     31  C   UNL     1      22.635   5.026  20.499  0.00  0.00    +0.130 C 
ATOM     32  C   UNL     1      22.693   6.876  22.179  0.00  0.00    +0.130 C 
ENDBRANCH  27   9
ENDBRANCH  19  23
ENDBRANCH  10  15
BRANCH   5  14
ATOM     14  C   UNL     1      13.070  10.239  19.928  0.00  0.00    +0.120 C 
BRANCH  14  16
ATOM     16  C   UNL     1      13.479  10.395  18.487  0.00  0.00    -0.026 A 
ATOM     17  C   UNL     1      12.740   9.772  17.481  0.00  0.00    +0.054 A 
ATOM     18  C   UNL     1      14.596  11.163  18.158  0.00  0.00    +0.054 A 
ATOM     20  C   UNL     1      14.974  11.308  16.823  0.00  0.00    +0.165 A 
ATOM     21  C   UNL     1      13.118   9.917  16.146  0.00  0.00    +0.165 A 
ATOM     22  C   UNL     1      14.236  10.684  15.817  0.00  0.00    +0.204 A 
BRANCH  20   2
ATOM      2  O   UNL     1      16.067  12.061  16.515  0.00  0.00    -0.491 OA
ATOM     28  C   UNL     1      15.972  13.465  16.746  0.00  0.00    +0.277 C 
ENDBRANCH  20   2
BRANCH  21   3
ATOM      3  O   UNL     1      12.389   9.302  15.173  0.00  0.00    -0.491 OA
ATOM     29  C   UNL     1      10.996   9.122  15.424  0.00  0.00    +0.277 C 
ENDBRANCH  21   3
BRANCH  22   4
ATOM      4  O   UNL     1      14.606  10.825  14.512  0.00  0.00    -0.488 OA
ATOM     30  C   UNL     1      14.121  11.974  13.823  0.00  0.00    +0.277 C 
ENDBRANCH  22   4
ENDBRANCH  14  16
ENDBRANCH   5  14
TORSDOF 8
ENDMDL
MODEL 2
REMARK VINA RESULT:      -6.8      0.212      2.323
REMARK  Name = 45783819
REMARK  13 active torsions:
REMARK  status: ('A' for Active; 'I' for Inactive)
REMARK    1  A    between atoms: O_2  and  C_20
REMARK    2  A    between atoms: O_2  and  C_28
REMARK    3  A    between atoms: O_3  and  C_21
REMARK    4  A    between atoms: O_3  and  C_29
REMARK    5  A    between atoms: O_4  and  C_22
REMARK    6  A    between atoms: O_4  and  C_30
REMARK    7  A    between atoms: N_5  and  C_14
REMARK    8  A    between atoms: N_9  and  C_27
REMARK    9  A    between atoms: N_9  and  C_31
REMARK   10  A    between atoms: N_9  and  C_32
REMARK   11  A    between atoms: C_10  and  C_15
REMARK   12  A    between atoms: C_14  and  C_16
REMARK   13  A    between atoms: C_19  and  C_23
REMARK                            x       y       z     vdW  Elec       q    Type
REMARK                         _______ _______ _______ _____ _____    ______ ____
ROOT
ATOM      5  N   UNL     1      12.455   8.832  20.278  0.00  0.00    -0.287 NA
ATOM     10  C   UNL     1      13.180   8.173  21.382  0.00  0.00    +0.146 C 
ATOM     11  C   UNL     1      12.163   7.187  21.985  0.00  0.00    +0.030 C 
ATOM     12  C   UNL     1      10.880   7.406  21.195  0.00  0.00    +0.017 C 
ATOM     13  C   UNL     1      11.038   8.807  20.641  0.00  0.00    +0.085 C 
ENDROOT
BRANCH  10  15
ATOM      1  O   UNL     1      14.351   6.710  19.814  0.00  0.00    -0.336 OA
ATOM      6  N   UNL     1      15.654   7.544  21.434  0.00  0.00    -0.190 NA
ATOM      7  N   UNL     1      15.635   6.197  19.585  0.00  0.00    -0.056 NA
ATOM     15  C   UNL     1      14.451   7.493  20.920  0.00  0.00    +0.245 A 
ATOM     19  C   UNL     1      16.345   6.733  20.581  0.00  0.00    +0.204 A 
BRANCH  19  23
ATOM      8  N   UNL     1      19.785   6.901  21.985  0.00  0.00    -0.240 NA
ATOM     23  C   UNL     1      17.747   6.482  20.752  0.00  0.00    +0.041 A 
ATOM     24  C   UNL     1      18.430   5.621  19.901  0.00  0.00    +0.016 A 
ATOM     25  C   UNL     1      18.464   7.093  21.770  0.00  0.00    +0.124 A 
ATOM     26  C   UNL     1      19.790   5.398  20.091  0.00  0.00    +0.044 A 
ATOM     27  C   UNL     1      20.414   6.057  21.138  0.00  0.00    +0.121 A 
BRANCH  27   9
ATOM      9  N   UNL     1      21.800   5.819  21.320  0.00  0.00    -0.321 N 
ATOM     31  C   UNL     1      22.628   6.806  21.976  0.00  0.00    +0.130 C 
ATOM     32  C   UNL     1      22.394   4.589  20.845  0.00  0.00    +0.130 C 
ENDBRANCH  27   9
ENDBRANCH  19  23
ENDBRANCH  10  15
BRANCH   5  14
ATOM     14  C   UNL     1      12.927  10.184  20.005  0.00  0.00    +0.120 C 
BRANCH  14  16
ATOM     16  C   UNL     1      13.378  10.342  18.578  0.00  0.00    -0.026 A 
ATOM     17  C   UNL     1      14.488  11.132  18.280  0.00  0.00    +0.054 A 
ATOM     18  C   UNL     1      12.685   9.699  17.552  0.00  0.00    +0.054 A 
ATOM     20  C   UNL     1      13.102   9.846  16.229  0.00  0.00    +0.165 A 
ATOM     21  C   UNL     1      14.906  11.280  16.957  0.00  0.00    +0.165 A 
ATOM     22  C   UNL     1      14.213  10.637  15.932  0.00  0.00    +0.204 A 
BRANCH  20   2
ATOM      2  O   UNL     1      12.417   9.212  15.237  0.00  0.00    -0.491 OA
ATOM     28  C   UNL     1      10.996   9.175  15.353  0.00  0.00    +0.277 C 
ENDBRANCH  20   2
BRANCH  21   3
ATOM      3  O   UNL     1      15.991  12.055  16.680  0.00  0.00    -0.491 OA
ATOM     29  C   UNL     1      15.879  13.449  16.959  0.00  0.00    +0.277 C 
ENDBRANCH  21   3
BRANCH  22   4
ATOM      4  O   UNL     1      14.620  10.780  14.638  0.00  0.00    -0.488 OA
ATOM     30  C   UNL     1      14.141  11.921  13.932  0.00  0.00    +0.277 C 
ENDBRANCH  22   4
ENDBRANCH  14  16
ENDBRANCH   5  14
TORSDOF 8
ENDMDL
MODEL 3
REMARK VINA RESULT:      -6.5     29.195     33.209
REMARK  Name = 45783819
REMARK  13 active torsions:
REMARK  status: ('A' for Active; 'I' for Inactive)
REMARK    1  A    between atoms: O_2  and  C_20
REMARK    2  A    between atoms: O_2  and  C_28
REMARK    3  A    between atoms: O_3  and  C_21
REMARK    4  A    between atoms: O_3  and  C_29
REMARK    5  A    between atoms: O_4  and  C_22
REMARK    6  A    between atoms: O_4  and  C_30
REMARK    7  A    between atoms: N_5  and  C_14
REMARK    8  A    between atoms: N_9  and  C_27
REMARK    9  A    between atoms: N_9  and  C_31
REMARK   10  A    between atoms: N_9  and  C_32
REMARK   11  A    between atoms: C_10  and  C_15
REMARK   12  A    between atoms: C_14  and  C_16
REMARK   13  A    between atoms: C_19  and  C_23
REMARK                            x       y       z     vdW  Elec       q    Type
REMARK                         _______ _______ _______ _____ _____    ______ ____
ROOT
ATOM      5  N   UNL     1     -17.275   3.226  27.410  0.00  0.00    -0.287 NA
ATOM     10  C   UNL     1     -16.428   2.322  26.607  0.00  0.00    +0.146 C 
ATOM     11  C   UNL     1     -17.162   0.969  26.636  0.00  0.00    +0.030 C 
ATOM     12  C   UNL     1     -18.375   1.194  27.527  0.00  0.00    +0.017 C 
ATOM     13  C   UNL     1     -17.978   2.383  28.377  0.00  0.00    +0.085 C 
ENDROOT
BRANCH  10  15
ATOM      1  O   UNL     1     -16.755   2.109  24.194  0.00  0.00    -0.336 OA
ATOM      6  N   UNL     1     -15.535   3.887  24.797  0.00  0.00    -0.190 NA
ATOM      7  N   UNL     1     -16.413   2.768  23.006  0.00  0.00    -0.056 NA
ATOM     15  C   UNL     1     -16.200   2.834  25.200  0.00  0.00    +0.245 A 
ATOM     19  C   UNL     1     -15.694   3.805  23.445  0.00  0.00    +0.204 A 
BRANCH  19  23
ATOM      8  N   UNL     1     -15.428   6.361  20.757  0.00  0.00    -0.240 NA
ATOM     23  C   UNL     1     -15.123   4.778  22.559  0.00  0.00    +0.041 A 
ATOM     24  C   UNL     1     -13.769   5.091  22.614  0.00  0.00    +0.016 A 
ATOM     25  C   UNL     1     -15.903   5.435  21.621  0.00  0.00    +0.124 A 
ATOM     26  C   UNL     1     -13.244   6.038  21.741  0.00  0.00    +0.044 A 
ATOM     27  C   UNL     1     -14.108   6.638  20.840  0.00  0.00    +0.121 A 
BRANCH  27   9
ATOM      9  N   UNL     1     -13.559   7.603  19.959  0.00  0.00    -0.321 N 
ATOM     31  C   UNL     1     -12.268   8.192  20.236  0.00  0.00    +0.130 C 
ATOM     32  C   UNL     1     -14.291   8.009  18.780  0.00  0.00    +0.130 C 
ENDBRANCH  27   9
ENDBRANCH  19  23
ENDBRANCH  10  15
BRANCH   5  14
ATOM     14  C   UNL     1     -16.524   4.294  28.057  0.00  0.00    +0.120 C 
BRANCH  14  16
ATOM     16  C   UNL     1     -15.829   3.815  29.304  0.00  0.00    -0.026 A 
ATOM     17  C   UNL     1     -16.082   4.437  30.527  0.00  0.00    +0.054 A 
ATOM     18  C   UNL     1     -14.933   2.748  29.237  0.00  0.00    +0.054 A 
ATOM     20  C   UNL     1     -14.289   2.304  30.392  0.00  0.00    +0.165 A 
ATOM     21  C   UNL     1     -15.438   3.993  31.682  0.00  0.00    +0.165 A 
ATOM     22  C   UNL     1     -14.542   2.926  31.614  0.00  0.00    +0.204 A 
BRANCH  20   2
ATOM      2  O   UNL     1     -13.416   1.261  30.312  0.00  0.00    -0.491 OA
ATOM     28  C   UNL     1     -13.960  -0.016  29.981  0.00  0.00    +0.277 C 
ENDBRANCH  20   2
BRANCH  21   3
ATOM      3  O   UNL     1     -15.693   4.610  32.870  0.00  0.00    -0.491 OA
ATOM     29  C   UNL     1     -16.996   4.436  33.424  0.00  0.00    +0.277 C 
ENDBRANCH  21   3
BRANCH  22   4
ATOM      4  O   UNL     1     -13.912   2.492  32.743  0.00  0.00    -0.488 OA
ATOM     30  C   UNL     1     -14.595   1.521  33.532  0.00  0.00    +0.277 C 
ENDBRANCH  22   4
ENDBRANCH  14  16
ENDBRANCH   5  14
TORSDOF 8
ENDMDL
MODEL 4
REMARK VINA RESULT:      -6.5     29.096     33.203
REMARK  Name = 45783819
REMARK  13 active torsions:
REMARK  status: ('A' for Active; 'I' for Inactive)
REMARK    1  A    between atoms: O_2  and  C_20
REMARK    2  A    between atoms: O_2  and  C_28
REMARK    3  A    between atoms: O_3  and  C_21
REMARK    4  A    between atoms: O_3  and  C_29
REMARK    5  A    between atoms: O_4  and  C_22
REMARK    6  A    between atoms: O_4  and  C_30
REMARK    7  A    between atoms: N_5  and  C_14
REMARK    8  A    between atoms: N_9  and  C_27
REMARK    9  A    between atoms: N_9  and  C_31
REMARK   10  A    between atoms: N_9  and  C_32
REMARK   11  A    between atoms: C_10  and  C_15
REMARK   12  A    between atoms: C_14  and  C_16
REMARK   13  A    between atoms: C_19  and  C_23
REMARK                            x       y       z     vdW  Elec       q    Type
REMARK                         _______ _______ _______ _____ _____    ______ ____
ROOT
ATOM      5  N   UNL     1     -17.296   3.215  27.421  0.00  0.00    -0.287 NA
ATOM     10  C   UNL     1     -16.441   2.309  26.629  0.00  0.00    +0.146 C 
ATOM     11  C   UNL     1     -17.173   0.955  26.658  0.00  0.00    +0.030 C 
ATOM     12  C   UNL     1     -18.393   1.181  27.540  0.00  0.00    +0.017 C 
ATOM     13  C   UNL     1     -18.004   2.375  28.388  0.00  0.00    +0.085 C 
ENDROOT
BRANCH  10  15
ATOM      1  O   UNL     1     -16.744   2.079  24.214  0.00  0.00    -0.336 OA
ATOM      6  N   UNL     1     -15.546   3.872  24.819  0.00  0.00    -0.190 NA
ATOM      7  N   UNL     1     -16.396   2.734  23.026  0.00  0.00    -0.056 NA
ATOM     15  C   UNL     1     -16.205   2.815  25.221  0.00  0.00    +0.245 A 
ATOM     19  C   UNL     1     -15.692   3.781  23.465  0.00  0.00    +0.204 A 
BRANCH  19  23
ATOM      8  N   UNL     1     -15.438   6.381  20.819  0.00  0.00    -0.240 NA
ATOM     23  C   UNL     1     -15.121   4.754  22.579  0.00  0.00    +0.041 A 
ATOM     24  C   UNL     1     -13.758   5.026  22.595  0.00  0.00    +0.016 A 
ATOM     25  C   UNL     1     -15.912   5.453  21.681  0.00  0.00    +0.124 A 
ATOM     26  C   UNL     1     -13.234   5.974  21.723  0.00  0.00    +0.044 A 
ATOM     27  C   UNL     1     -14.108   6.618  20.863  0.00  0.00    +0.121 A 
BRANCH  27   9
ATOM      9  N   UNL     1     -13.560   7.583  19.982  0.00  0.00    -0.321 N 
ATOM     31  C   UNL     1     -12.130   7.789  19.925  0.00  0.00    +0.130 C 
ATOM     32  C   UNL     1     -14.429   8.375  19.140  0.00  0.00    +0.130 C 
ENDBRANCH  27   9
ENDBRANCH  19  23
ENDBRANCH  10  15
BRANCH   5  14
ATOM     14  C   UNL     1     -16.551   4.287  28.069  0.00  0.00    +0.120 C 
BRANCH  14  16
ATOM     16  C   UNL     1     -15.850   3.810  29.313  0.00  0.00    -0.026 A 
ATOM     17  C   UNL     1     -14.935   2.760  29.239  0.00  0.00    +0.054 A 
ATOM     18  C   UNL     1     -16.114   4.419  30.540  0.00  0.00    +0.054 A 
ATOM     20  C   UNL     1     -15.463   3.977  31.692  0.00  0.00    +0.165 A 
ATOM     21  C   UNL     1     -14.284   2.317  30.391  0.00  0.00    +0.165 A 
ATOM     22  C   UNL     1     -14.549   2.926  31.618  0.00  0.00    +0.204 A 
BRANCH  20   2
ATOM      2  O   UNL     1     -15.731   4.580  32.884  0.00  0.00    -0.491 OA
ATOM     28  C   UNL     1     -17.069   4.493  33.369  0.00  0.00    +0.277 C 
ENDBRANCH  20   2
BRANCH  21   3
ATOM      3  O   UNL     1     -13.394   1.290  30.304  0.00  0.00    -0.491 OA
ATOM     29  C   UNL     1     -13.930  -0.015  30.092  0.00  0.00    +0.277 C 
ENDBRANCH  21   3
BRANCH  22   4
ATOM      4  O   UNL     1     -13.914   2.494  32.744  0.00  0.00    -0.488 OA
ATOM     30  C   UNL     1     -14.598   1.533  33.545  0.00  0.00    +0.277 C 
ENDBRANCH  22   4
ENDBRANCH  14  16
ENDBRANCH   5  14
TORSDOF 8
ENDMDL
MODEL 5
REMARK VINA RESULT:      -6.5      4.864      7.328
REMARK  Name = 45783819
REMARK  13 active torsions:
REMARK  status: ('A' for Active; 'I' for Inactive)
REMARK    1  A    between atoms: O_2  and  C_20
REMARK    2  A    between atoms: O_2  and  C_28
REMARK    3  A    between atoms: O_3  and  C_21
REMARK    4  A    between atoms: O_3  and  C_29
REMARK    5  A    between atoms: O_4  and  C_22
REMARK    6  A    between atoms: O_4  and  C_30
REMARK    7  A    between atoms: N_5  and  C_14
REMARK    8  A    between atoms: N_9  and  C_27
REMARK    9  A    between atoms: N_9  and  C_31
REMARK   10  A    between atoms: N_9  and  C_32
REMARK   11  A    between atoms: C_10  and  C_15
REMARK   12  A    between atoms: C_14  and  C_16
REMARK   13  A    between atoms: C_19  and  C_23
REMARK                            x       y       z     vdW  Elec       q    Type
REMARK                         _______ _______ _______ _____ _____    ______ ____
ROOT
ATOM      5  N   UNL     1      11.778   8.811  21.603  0.00  0.00    -0.287 NA
ATOM     10  C   UNL     1      12.533   7.717  20.961  0.00  0.00    +0.146 C 
ATOM     11  C   UNL     1      11.613   6.487  21.073  0.00  0.00    +0.030 C 
ATOM     12  C   UNL     1      10.395   6.972  21.846  0.00  0.00    +0.017 C 
ATOM     13  C   UNL     1      10.907   8.184  22.597  0.00  0.00    +0.085 C 
ENDROOT
BRANCH  10  15
ATOM      1  O   UNL     1      12.794   7.019  18.632  0.00  0.00    -0.336 OA
ATOM      6  N   UNL     1      13.348   9.156  19.015  0.00  0.00    -0.190 NA
ATOM      7  N   UNL     1      13.197   7.544  17.398  0.00  0.00    -0.056 NA
ATOM     15  C   UNL     1      12.913   8.034  19.529  0.00  0.00    +0.245 A 
ATOM     19  C   UNL     1      13.508   8.807  17.706  0.00  0.00    +0.204 A 
BRANCH  19  23
ATOM      8  N   UNL     1      14.743  10.172  14.474  0.00  0.00    -0.240 NA
ATOM     23  C   UNL     1      13.979   9.746  16.728  0.00  0.00    +0.041 A 
ATOM     24  C   UNL     1      14.135  11.091  17.044  0.00  0.00    +0.016 A 
ATOM     25  C   UNL     1      14.294   9.340  15.441  0.00  0.00    +0.124 A 
ATOM     26  C   UNL     1      14.595  11.977  16.075  0.00  0.00    +0.044 A 
ATOM     27  C   UNL     1      14.882  11.472  14.818  0.00  0.00    +0.121 A 
BRANCH  27   9
ATOM      9  N   UNL     1      15.348  12.388  13.841  0.00  0.00    -0.321 N 
ATOM     31  C   UNL     1      16.020  11.907  12.655  0.00  0.00    +0.130 C 
ATOM     32  C   UNL     1      15.160  13.809  14.030  0.00  0.00    +0.130 C 
ENDBRANCH  27   9
ENDBRANCH  19  23
ENDBRANCH  10  15
BRANCH   5  14
ATOM     14  C   UNL     1      12.634   9.833  22.191  0.00  0.00    +0.120 C 
BRANCH  14  16
ATOM     16  C   UNL     1      11.955  11.176  22.235  0.00  0.00    -0.026 A 
ATOM     17  C   UNL     1      12.050  12.042  21.145  0.00  0.00    +0.054 A 
ATOM     18  C   UNL     1      11.230  11.554  23.365  0.00  0.00    +0.054 A 
ATOM     20  C   UNL     1      10.601  12.799  23.405  0.00  0.00    +0.165 A 
ATOM     21  C   UNL     1      11.420  13.286  21.185  0.00  0.00    +0.165 A 
ATOM     22  C   UNL     1      10.696  13.664  22.316  0.00  0.00    +0.204 A 
BRANCH  20   2
ATOM      2  O   UNL     1       9.896  13.156  24.515  0.00  0.00    -0.491 OA
ATOM     28  C   UNL     1      10.647  13.572  25.654  0.00  0.00    +0.277 C 
ENDBRANCH  20   2
BRANCH  21   3
ATOM      3  O   UNL     1      11.522  14.122  20.115  0.00  0.00    -0.491 OA
ATOM     29  C   UNL     1      12.703  14.018  19.321  0.00  0.00    +0.277 C 
ENDBRANCH  21   3
BRANCH  22   4
ATOM      4  O   UNL     1      10.081  14.881  22.356  0.00  0.00    -0.488 OA
ATOM     30  C   UNL     1       8.738  14.943  21.883  0.00  0.00    +0.277 C 
ENDBRANCH  22   4
ENDBRANCH  14  16
ENDBRANCH   5  14
TORSDOF 8
ENDMDL
MODEL 6
REMARK VINA RESULT:      -6.4      3.300      4.911
REMARK  Name = 45783819
REMARK  13 active torsions:
REMARK  status: ('A' for Active; 'I' for Inactive)
REMARK    1  A    between atoms: O_2  and  C_20
REMARK    2  A    between atoms: O_2  and  C_28
REMARK    3  A    between atoms: O_3  and  C_21
REMARK    4  A    between atoms: O_3  and  C_29
REMARK    5  A    between atoms: O_4  and  C_22
REMARK    6  A    between atoms: O_4  and  C_30
REMARK    7  A    between atoms: N_5  and  C_14
REMARK    8  A    between atoms: N_9  and  C_27
REMARK    9  A    between atoms: N_9  and  C_31
REMARK   10  A    between atoms: N_9  and  C_32
REMARK   11  A    between atoms: C_10  and  C_15
REMARK   12  A    between atoms: C_14  and  C_16
REMARK   13  A    between atoms: C_19  and  C_23
REMARK                            x       y       z     vdW  Elec       q    Type
REMARK                         _______ _______ _______ _____ _____    ______ ____
ROOT
ATOM      5  N   UNL     1      12.437   8.607  20.003  0.00  0.00    -0.287 NA
ATOM     10  C   UNL     1      13.182   7.362  19.731  0.00  0.00    +0.146 C 
ATOM     11  C   UNL     1      12.870   7.033  18.259  0.00  0.00    +0.030 C 
ATOM     12  C   UNL     1      11.895   8.113  17.809  0.00  0.00    +0.017 C 
ATOM     13  C   UNL     1      11.282   8.603  19.105  0.00  0.00    +0.085 C 
ENDROOT
BRANCH  10  15
ATOM      1  O   UNL     1      15.150   8.769  20.082  0.00  0.00    -0.336 OA
ATOM      6  N   UNL     1      15.571   6.571  20.159  0.00  0.00    -0.190 NA
ATOM      7  N   UNL     1      16.523   8.644  20.328  0.00  0.00    -0.056 NA
ATOM     15  C   UNL     1      14.666   7.501  19.997  0.00  0.00    +0.245 A 
ATOM     19  C   UNL     1      16.694   7.319  20.359  0.00  0.00    +0.204 A 
BRANCH  19  23
ATOM      8  N   UNL     1      20.022   6.636  21.872  0.00  0.00    -0.240 NA
ATOM     23  C   UNL     1      17.973   6.711  20.590  0.00  0.00    +0.041 A 
ATOM     24  C   UNL     1      18.416   5.652  19.806  0.00  0.00    +0.016 A 
ATOM     25  C   UNL     1      18.806   7.163  21.602  0.00  0.00    +0.124 A 
ATOM     26  C   UNL     1      19.661   5.084  20.054  0.00  0.00    +0.044 A 
ATOM     27  C   UNL     1      20.418   5.608  21.089  0.00  0.00    +0.121 A 
BRANCH  27   9
ATOM      9  N   UNL     1      21.684   5.018  21.330  0.00  0.00    -0.321 N 
ATOM     31  C   UNL     1      22.878   5.833  21.339  0.00  0.00    +0.130 C 
ATOM     32  C   UNL     1      21.789   3.594  21.562  0.00  0.00    +0.130 C 
ENDBRANCH  27   9
ENDBRANCH  19  23
ENDBRANCH  10  15
BRANCH   5  14
ATOM     14  C   UNL     1      12.043   8.748  21.400  0.00  0.00    +0.120 C 
BRANCH  14  16
ATOM     16  C   UNL     1      11.734  10.178  21.753  0.00  0.00    -0.026 A 
ATOM     17  C   UNL     1      12.094  11.206  20.881  0.00  0.00    +0.054 A 
ATOM     18  C   UNL     1      11.086  10.476  22.952  0.00  0.00    +0.054 A 
ATOM     20  C   UNL     1      10.799  11.802  23.280  0.00  0.00    +0.165 A 
ATOM     21  C   UNL     1      11.807  12.532  21.208  0.00  0.00    +0.165 A 
ATOM     22  C   UNL     1      11.160  12.829  22.408  0.00  0.00    +0.204 A 
BRANCH  20   2
ATOM      2  O   UNL     1      10.166  12.078  24.454  0.00  0.00    -0.491 OA
ATOM     28  C   UNL     1      10.981  12.506  25.544  0.00  0.00    +0.277 C 
ENDBRANCH  20   2
BRANCH  21   3
ATOM      3  O   UNL     1      12.165  13.526  20.349  0.00  0.00    -0.491 OA
ATOM     29  C   UNL     1      13.562  13.749  20.162  0.00  0.00    +0.277 C 
ENDBRANCH  21   3
BRANCH  22   4
ATOM      4  O   UNL     1      10.880  14.125  22.728  0.00  0.00    -0.488 OA
ATOM     30  C   UNL     1       9.615  14.634  22.315  0.00  0.00    +0.277 C 
ENDBRANCH  22   4
ENDBRANCH  14  16
ENDBRANCH   5  14
TORSDOF 8
ENDMDL
MODEL 7
REMARK VINA RESULT:      -6.2     13.505     16.736
REMARK  Name = 45783819
REMARK  13 active torsions:
REMARK  status: ('A' for Active; 'I' for Inactive)
REMARK    1  A    between atoms: O_2  and  C_20
REMARK    2  A    between atoms: O_2  and  C_28
REMARK    3  A    between atoms: O_3  and  C_21
REMARK    4  A    between atoms: O_3  and  C_29
REMARK    5  A    between atoms: O_4  and  C_22
REMARK    6  A    between atoms: O_4  and  C_30
REMARK    7  A    between atoms: N_5  and  C_14
REMARK    8  A    between atoms: N_9  and  C_27
REMARK    9  A    between atoms: N_9  and  C_31
REMARK   10  A    between atoms: N_9  and  C_32
REMARK   11  A    between atoms: C_10  and  C_15
REMARK   12  A    between atoms: C_14  and  C_16
REMARK   13  A    between atoms: C_19  and  C_23
REMARK                            x       y       z     vdW  Elec       q    Type
REMARK                         _______ _______ _______ _____ _____    ______ ____
ROOT
ATOM      5  N   UNL     1      10.625   5.607   4.698  0.00  0.00    -0.287 NA
ATOM     10  C   UNL     1      10.928   6.561   5.783  0.00  0.00    +0.146 C 
ATOM     11  C   UNL     1      10.358   5.903   7.053  0.00  0.00    +0.030 C 
ATOM     12  C   UNL     1       9.701   4.616   6.573  0.00  0.00    +0.017 C 
ATOM     13  C   UNL     1       9.422   4.883   5.108  0.00  0.00    +0.085 C 
ENDROOT
BRANCH  10  15
ATOM      1  O   UNL     1      12.990   6.606   7.096  0.00  0.00    -0.336 OA
ATOM      6  N   UNL     1      13.227   7.347   4.996  0.00  0.00    -0.190 NA
ATOM      7  N   UNL     1      14.338   6.961   6.958  0.00  0.00    -0.056 NA
ATOM     15  C   UNL     1      12.408   6.864   5.895  0.00  0.00    +0.245 A 
ATOM     19  C   UNL     1      14.398   7.388   5.694  0.00  0.00    +0.204 A 
BRANCH  19  23
ATOM      8  N   UNL     1      16.980   8.115   3.117  0.00  0.00    -0.240 NA
ATOM     23  C   UNL     1      15.614   7.861   5.096  0.00  0.00    +0.041 A 
ATOM     24  C   UNL     1      16.586   8.500   5.858  0.00  0.00    +0.016 A 
ATOM     25  C   UNL     1      15.856   7.695   3.742  0.00  0.00    +0.124 A 
ATOM     26  C   UNL     1      17.755   8.947   5.251  0.00  0.00    +0.044 A 
ATOM     27  C   UNL     1      17.901   8.731   3.890  0.00  0.00    +0.121 A 
BRANCH  27   9
ATOM      9  N   UNL     1      19.097   9.194   3.285  0.00  0.00    -0.321 N 
ATOM     31  C   UNL     1      19.846   8.330   2.399  0.00  0.00    +0.130 C 
ATOM     32  C   UNL     1      19.579  10.530   3.556  0.00  0.00    +0.130 C 
ENDBRANCH  27   9
ENDBRANCH  19  23
ENDBRANCH  10  15
BRANCH   5  14
ATOM     14  C   UNL     1      10.462   6.248   3.398  0.00  0.00    +0.120 C 
BRANCH  14  16
ATOM     16  C   UNL     1      10.963   5.376   2.278  0.00  0.00    -0.026 A 
ATOM     17  C   UNL     1      10.301   5.367   1.051  0.00  0.00    +0.054 A 
ATOM     18  C   UNL     1      12.091   4.578   2.466  0.00  0.00    +0.054 A 
ATOM     20  C   UNL     1      12.556   3.770   1.428  0.00  0.00    +0.165 A 
ATOM     21  C   UNL     1      10.765   4.560   0.012  0.00  0.00    +0.165 A 
ATOM     22  C   UNL     1      11.892   3.761   0.201  0.00  0.00    +0.204 A 
BRANCH  20   2
ATOM      2  O   UNL     1      13.659   2.995   1.626  0.00  0.00    -0.491 OA
ATOM     28  C   UNL     1      14.926   3.650   1.594  0.00  0.00    +0.277 C 
ENDBRANCH  20   2
BRANCH  21   3
ATOM      3  O   UNL     1      10.107   4.560  -1.181  0.00  0.00    -0.491 OA
ATOM     29  C   UNL     1      10.233   5.727  -1.991  0.00  0.00    +0.277 C 
ENDBRANCH  21   3
BRANCH  22   4
ATOM      4  O   UNL     1      12.347   2.971  -0.813  0.00  0.00    -0.488 OA
ATOM     30  C   UNL     1      13.253   3.565  -1.739  0.00  0.00    +0.277 C 
ENDBRANCH  22   4
ENDBRANCH  14  16
ENDBRANCH   5  14
TORSDOF 8
ENDMDL
MODEL 8
REMARK VINA RESULT:      -6.1     26.178     29.807
REMARK  Name = 45783819
REMARK  13 active torsions:
REMARK  status: ('A' for Active; 'I' for Inactive)
REMARK    1  A    between atoms: O_2  and  C_20
REMARK    2  A    between atoms: O_2  and  C_28
REMARK    3  A    between atoms: O_3  and  C_21
REMARK    4  A    between atoms: O_3  and  C_29
REMARK    5  A    between atoms: O_4  and  C_22
REMARK    6  A    between atoms: O_4  and  C_30
REMARK    7  A    between atoms: N_5  and  C_14
REMARK    8  A    between atoms: N_9  and  C_27
REMARK    9  A    between atoms: N_9  and  C_31
REMARK   10  A    between atoms: N_9  and  C_32
REMARK   11  A    between atoms: C_10  and  C_15
REMARK   12  A    between atoms: C_14  and  C_16
REMARK   13  A    between atoms: C_19  and  C_23
REMARK                            x       y       z     vdW  Elec       q    Type
REMARK                         _______ _______ _______ _____ _____    ______ ____
ROOT
ATOM      5  N   UNL     1      -3.094 -10.660  14.461  0.00  0.00    -0.287 NA
ATOM     10  C   UNL     1      -2.829 -11.324  15.752  0.00  0.00    +0.146 C 
ATOM     11  C   UNL     1      -1.537 -10.667  16.272  0.00  0.00    +0.030 C 
ATOM     12  C   UNL     1      -1.119  -9.693  15.179  0.00  0.00    +0.017 C 
ATOM     13  C   UNL     1      -1.795 -10.239  13.938  0.00  0.00    +0.085 C 
ENDROOT
BRANCH  10  15
ATOM      1  O   UNL     1      -3.717 -11.483  18.024  0.00  0.00    -0.336 OA
ATOM      6  N   UNL     1      -5.222 -10.837  16.496  0.00  0.00    -0.190 NA
ATOM      7  N   UNL     1      -4.919 -11.292  18.718  0.00  0.00    -0.056 NA
ATOM     15  C   UNL     1      -3.984 -11.192  16.723  0.00  0.00    +0.245 A 
ATOM     19  C   UNL     1      -5.758 -10.913  17.749  0.00  0.00    +0.204 A 
BRANCH  19  23
ATOM      8  N   UNL     1      -9.086 -10.845  19.406  0.00  0.00    -0.240 NA
ATOM     23  C   UNL     1      -7.135 -10.600  17.999  0.00  0.00    +0.041 A 
ATOM     24  C   UNL     1      -7.855  -9.786  17.131  0.00  0.00    +0.016 A 
ATOM     25  C   UNL     1      -7.791 -11.100  19.113  0.00  0.00    +0.124 A 
ATOM     26  C   UNL     1      -9.189  -9.502  17.400  0.00  0.00    +0.044 A 
ATOM     27  C   UNL     1      -9.753 -10.051  18.539  0.00  0.00    +0.121 A 
BRANCH  27   9
ATOM      9  N   UNL     1     -11.113  -9.751  18.801  0.00  0.00    -0.321 N 
ATOM     31  C   UNL     1     -11.901  -9.032  17.824  0.00  0.00    +0.130 C 
ATOM     32  C   UNL     1     -11.719 -10.154  20.050  0.00  0.00    +0.130 C 
ENDBRANCH  27   9
ENDBRANCH  19  23
ENDBRANCH  10  15
BRANCH   5  14
ATOM     14  C   UNL     1      -3.817 -11.505  13.518  0.00  0.00    +0.120 C 
BRANCH  14  16
ATOM     16  C   UNL     1      -4.767 -10.707  12.665  0.00  0.00    -0.026 A 
ATOM     17  C   UNL     1      -6.047 -10.412  13.136  0.00  0.00    +0.054 A 
ATOM     18  C   UNL     1      -4.368 -10.262  11.405  0.00  0.00    +0.054 A 
ATOM     20  C   UNL     1      -5.249  -9.523  10.615  0.00  0.00    +0.165 A 
ATOM     21  C   UNL     1      -6.928  -9.673  12.346  0.00  0.00    +0.165 A 
ATOM     22  C   UNL     1      -6.529  -9.229  11.086  0.00  0.00    +0.204 A 
BRANCH  20   2
ATOM      2  O   UNL     1      -4.846  -9.094   9.386  0.00  0.00    -0.491 OA
ATOM     28  C   UNL     1      -4.874 -10.048   8.326  0.00  0.00    +0.277 C 
ENDBRANCH  20   2
BRANCH  21   3
ATOM      3  O   UNL     1      -8.175  -9.393  12.817  0.00  0.00    -0.491 OA
ATOM     29  C   UNL     1      -8.853 -10.436  13.516  0.00  0.00    +0.277 C 
ENDBRANCH  21   3
BRANCH  22   4
ATOM      4  O   UNL     1      -7.390  -8.506  10.313  0.00  0.00    -0.488 OA
ATOM     30  C   UNL     1      -8.314  -9.240   9.514  0.00  0.00    +0.277 C 
ENDBRANCH  22   4
ENDBRANCH  14  16
ENDBRANCH   5  14
TORSDOF 8
ENDMDL
MODEL 9
REMARK VINA RESULT:      -6.1     26.183     29.862
REMARK  Name = 45783819
REMARK  13 active torsions:
REMARK  status: ('A' for Active; 'I' for Inactive)
REMARK    1  A    between atoms: O_2  and  C_20
REMARK    2  A    between atoms: O_2  and  C_28
REMARK    3  A    between atoms: O_3  and  C_21
REMARK    4  A    between atoms: O_3  and  C_29
REMARK    5  A    between atoms: O_4  and  C_22
REMARK    6  A    between atoms: O_4  and  C_30
REMARK    7  A    between atoms: N_5  and  C_14
REMARK    8  A    between atoms: N_9  and  C_27
REMARK    9  A    between atoms: N_9  and  C_31
REMARK   10  A    between atoms: N_9  and  C_32
REMARK   11  A    between atoms: C_10  and  C_15
REMARK   12  A    between atoms: C_14  and  C_16
REMARK   13  A    between atoms: C_19  and  C_23
REMARK                            x       y       z     vdW  Elec       q    Type
REMARK                         _______ _______ _______ _____ _____    ______ ____
ROOT
ATOM      5  N   UNL     1      -3.122 -10.718  14.499  0.00  0.00    -0.287 NA
ATOM     10  C   UNL     1      -2.852 -11.357  15.802  0.00  0.00    +0.146 C 
ATOM     11  C   UNL     1      -1.560 -10.689  16.306  0.00  0.00    +0.030 C 
ATOM     12  C   UNL     1      -1.146  -9.735  15.194  0.00  0.00    +0.017 C 
ATOM     13  C   UNL     1      -1.825 -10.305  13.965  0.00  0.00    +0.085 C 
ENDROOT
BRANCH  10  15
ATOM      1  O   UNL     1      -3.732 -11.463  18.080  0.00  0.00    -0.336 OA
ATOM      6  N   UNL     1      -5.247 -10.868  16.542  0.00  0.00    -0.190 NA
ATOM      7  N   UNL     1      -4.933 -11.263  18.773  0.00  0.00    -0.056 NA
ATOM     15  C   UNL     1      -4.005 -11.209  16.773  0.00  0.00    +0.245 A 
ATOM     19  C   UNL     1      -5.777 -10.915  17.798  0.00  0.00    +0.204 A 
BRANCH  19  23
ATOM      8  N   UNL     1      -9.124 -10.899  19.418  0.00  0.00    -0.240 NA
ATOM     23  C   UNL     1      -7.156 -10.606  18.045  0.00  0.00    +0.041 A 
ATOM     24  C   UNL     1      -7.862  -9.754  17.203  0.00  0.00    +0.016 A 
ATOM     25  C   UNL     1      -7.827 -11.148  19.130  0.00  0.00    +0.124 A 
ATOM     26  C   UNL     1      -9.198  -9.474  17.467  0.00  0.00    +0.044 A 
ATOM     27  C   UNL     1      -9.777 -10.066  18.577  0.00  0.00    +0.121 A 
BRANCH  27   9
ATOM      9  N   UNL     1     -11.139  -9.770  18.835  0.00  0.00    -0.321 N 
ATOM     31  C   UNL     1     -11.757 -10.199  20.071  0.00  0.00    +0.130 C 
ATOM     32  C   UNL     1     -11.922  -9.043  17.861  0.00  0.00    +0.130 C 
ENDBRANCH  27   9
ENDBRANCH  19  23
ENDBRANCH  10  15
BRANCH   5  14
ATOM     14  C   UNL     1      -3.846 -11.582  13.574  0.00  0.00    +0.120 C 
BRANCH  14  16
ATOM     16  C   UNL     1      -4.872 -10.817  12.781  0.00  0.00    -0.026 A 
ATOM     17  C   UNL     1      -4.466  -9.944  11.772  0.00  0.00    +0.054 A 
ATOM     18  C   UNL     1      -6.230 -10.982  13.055  0.00  0.00    +0.054 A 
ATOM     20  C   UNL     1      -7.181 -10.273  12.321  0.00  0.00    +0.165 A 
ATOM     21  C   UNL     1      -5.417  -9.236  11.037  0.00  0.00    +0.165 A 
ATOM     22  C   UNL     1      -6.774  -9.400  11.312  0.00  0.00    +0.204 A 
BRANCH  20   2
ATOM      2  O   UNL     1      -8.504 -10.444  12.599  0.00  0.00    -0.491 OA
ATOM     28  C   UNL     1      -9.051  -9.658  13.656  0.00  0.00    +0.277 C 
ENDBRANCH  20   2
BRANCH  21   3
ATOM      3  O   UNL     1      -5.006  -8.385  10.055  0.00  0.00    -0.491 OA
ATOM     29  C   UNL     1      -4.082  -8.899   9.098  0.00  0.00    +0.277 C 
ENDBRANCH  21   3
BRANCH  22   4
ATOM      4  O   UNL     1      -7.704  -8.708  10.594  0.00  0.00    -0.488 OA
ATOM     30  C   UNL     1      -8.121  -9.276   9.356  0.00  0.00    +0.277 C 
ENDBRANCH  22   4
ENDBRANCH  14  16
ENDBRANCH   5  14
TORSDOF 8
ENDMDL
MODEL 10
REMARK VINA RESULT:      -6.1     27.198     29.768
REMARK  Name = 45783819
REMARK  13 active torsions:
REMARK  status: ('A' for Active; 'I' for Inactive)
REMARK    1  A    between atoms: O_2  and  C_20
REMARK    2  A    between atoms: O_2  and  C_28
REMARK    3  A    between atoms: O_3  and  C_21
REMARK    4  A    between atoms: O_3  and  C_29
REMARK    5  A    between atoms: O_4  and  C_22
REMARK    6  A    between atoms: O_4  and  C_30
REMARK    7  A    between atoms: N_5  and  C_14
REMARK    8  A    between atoms: N_9  and  C_27
REMARK    9  A    between atoms: N_9  and  C_31
REMARK   10  A    between atoms: N_9  and  C_32
REMARK   11  A    between atoms: C_10  and  C_15
REMARK   12  A    between atoms: C_14  and  C_16
REMARK   13  A    between atoms: C_19  and  C_23
REMARK                            x       y       z     vdW  Elec       q    Type
REMARK                         _______ _______ _______ _____ _____    ______ ____
ROOT
ATOM      5  N   UNL     1      -4.552  -9.681  10.149  0.00  0.00    -0.287 NA
ATOM     10  C   UNL     1      -5.514  -8.709  10.707  0.00  0.00    +0.146 C 
ATOM     11  C   UNL     1      -6.493  -8.423   9.554  0.00  0.00    +0.030 C 
ATOM     12  C   UNL     1      -5.966  -9.229   8.375  0.00  0.00    +0.017 C 
ATOM     13  C   UNL     1      -4.503  -9.434   8.708  0.00  0.00    +0.085 C 
ENDROOT
BRANCH  10  15
ATOM      1  O   UNL     1      -7.551  -9.416  11.859  0.00  0.00    -0.336 OA
ATOM      6  N   UNL     1      -5.704  -9.519  13.121  0.00  0.00    -0.190 NA
ATOM      7  N   UNL     1      -7.961  -9.888  13.112  0.00  0.00    -0.056 NA
ATOM     15  C   UNL     1      -6.208  -9.225  11.950  0.00  0.00    +0.245 A 
ATOM     19  C   UNL     1      -6.816  -9.921  13.800  0.00  0.00    +0.204 A 
BRANCH  19  23
ATOM      8  N   UNL     1      -7.781 -11.518  17.017  0.00  0.00    -0.240 NA
ATOM     23  C   UNL     1      -6.749 -10.353  15.167  0.00  0.00    +0.041 A 
ATOM     24  C   UNL     1      -5.649 -10.051  15.961  0.00  0.00    +0.016 A 
ATOM     25  C   UNL     1      -7.781 -11.083  15.737  0.00  0.00    +0.124 A 
ATOM     26  C   UNL     1      -5.613 -10.483  17.282  0.00  0.00    +0.044 A 
ATOM     27  C   UNL     1      -6.694 -11.206  17.758  0.00  0.00    +0.121 A 
BRANCH  27   9
ATOM      9  N   UNL     1      -6.643 -11.640  19.106  0.00  0.00    -0.321 N 
ATOM     31  C   UNL     1      -7.784 -12.298  19.703  0.00  0.00    +0.130 C 
ATOM     32  C   UNL     1      -5.451 -11.421  19.895  0.00  0.00    +0.130 C 
ENDBRANCH  27   9
ENDBRANCH  19  23
ENDBRANCH  10  15
BRANCH   5  14
ATOM     14  C   UNL     1      -3.233  -9.601  10.764  0.00  0.00    +0.120 C 
BRANCH  14  16
ATOM     16  C   UNL     1      -2.919 -10.829  11.577  0.00  0.00    -0.026 A 
ATOM     17  C   UNL     1      -2.299 -10.703  12.820  0.00  0.00    +0.054 A 
ATOM     18  C   UNL     1      -3.248 -12.093  11.088  0.00  0.00    +0.054 A 
ATOM     20  C   UNL     1      -2.957 -13.230  11.841  0.00  0.00    +0.165 A 
ATOM     21  C   UNL     1      -2.008 -11.840  13.574  0.00  0.00    +0.165 A 
ATOM     22  C   UNL     1      -2.337 -13.104  13.084  0.00  0.00    +0.204 A 
BRANCH  20   2
ATOM      2  O   UNL     1      -3.284 -14.459  11.351  0.00  0.00    -0.491 OA
ATOM     28  C   UNL     1      -4.673 -14.754  11.216  0.00  0.00    +0.277 C 
ENDBRANCH  20   2
BRANCH  21   3
ATOM      3  O   UNL     1      -1.401 -11.703  14.786  0.00  0.00    -0.491 OA
ATOM     29  C   UNL     1      -1.951 -10.738  15.681  0.00  0.00    +0.277 C 
ENDBRANCH  21   3
BRANCH  22   4
ATOM      4  O   UNL     1      -2.052 -14.216  13.820  0.00  0.00    -0.488 OA
ATOM     30  C   UNL     1      -3.094 -14.730  14.645  0.00  0.00    +0.277 C 
ENDBRANCH  22   4
ENDBRANCH  14  16
ENDBRANCH   5  14
TORSDOF 8
ENDMDL
