MODEL 1
REMARK VINA RESULT:      -7.1      0.000      0.000
REMARK  Name = 11941327
REMARK  6 active torsions:
REMARK  status: ('A' for Active; 'I' for Inactive)
REMARK    1  A    between atoms: O_3  and  C_27
REMARK    2  A    between atoms: N_4  and  C_13
REMARK    3  A    between atoms: C_13  and  C_18
REMARK    4  A    between atoms: C_16  and  C_19
REMARK    5  A    between atoms: C_21  and  C_26
REMARK    6  A    between atoms: C_22  and  C_27
REMARK                            x       y       z     vdW  Elec       q    Type
REMARK                         _______ _______ _______ _____ _____    ______ ____
ROOT
ATOM      1  O   UNL     1      12.453   7.344   3.486  0.00  0.00    -0.267 OA
ATOM      4  N   UNL     1      13.347   4.900  -0.801  0.00  0.00    -0.294 NA
ATOM      5  N   UNL     1      12.953   5.383   2.327  0.00  0.00    -0.311 N 
ATOM      6  C   UNL     1      15.109   5.084   0.974  0.00  0.00    +0.024 C 
ATOM      7  C   UNL     1      13.478   3.260   1.080  0.00  0.00    +0.050 C 
ATOM      8  C   UNL     1      14.945   3.609   1.318  0.00  0.00    +0.017 C 
ATOM      9  C   UNL     1      14.717   5.331  -0.498  0.00  0.00    +0.090 C 
ATOM     10  C   UNL     1      13.124   3.501  -0.405  0.00  0.00    +0.094 C 
ATOM     11  C   UNL     1      14.270   5.916   1.954  0.00  0.00    +0.130 C 
ATOM     12  C   UNL     1      12.576   4.083   1.981  0.00  0.00    +0.026 A 
ATOM     14  C   UNL     1      11.415   3.576   2.427  0.00  0.00    +0.022 A 
ATOM     15  C   UNL     1      12.141   6.206   3.133  0.00  0.00    +0.259 A 
ATOM     16  C   UNL     1      10.831   5.622   3.588  0.00  0.00    +0.047 A 
ATOM     17  C   UNL     1      10.531   4.363   3.237  0.00  0.00    +0.015 A 
ENDROOT
BRANCH  16  19
ATOM     19  C   UNL     1       9.884   6.411   4.397  0.00  0.00    -0.010 A 
ATOM     21  C   UNL     1       9.031   7.351   3.812  0.00  0.00    -0.043 A 
ATOM     24  C   UNL     1       9.846   6.207   5.779  0.00  0.00    +0.009 A 
ATOM     25  C   UNL     1       8.147   8.082   4.604  0.00  0.00    +0.004 A 
ATOM     26  C   UNL     1       9.042   7.597   2.338  0.00  0.00    +0.044 C 
ATOM     28  C   UNL     1       8.961   6.939   6.570  0.00  0.00    +0.001 A 
ATOM     29  C   UNL     1       8.111   7.876   5.983  0.00  0.00    +0.000 A 
ENDBRANCH  16  19
BRANCH   4  13
ATOM     13  C   UNL     1      13.034   5.100  -2.214  0.00  0.00    +0.158 C 
BRANCH  13  18
ATOM      2  O   UNL     1      11.283   3.758  -3.167  0.00  0.00    -0.461 OA
ATOM     18  C   UNL     1      11.571   4.870  -2.467  0.00  0.00    +0.119 A 
ATOM     20  C   UNL     1      10.468   5.574  -2.123  0.00  0.00    +0.046 A 
ATOM     22  C   UNL     1       9.929   3.744  -3.279  0.00  0.00    +0.131 A 
ATOM     23  C   UNL     1       9.381   4.840  -2.654  0.00  0.00    +0.047 A 
BRANCH  22  27
ATOM     27  C   UNL     1       9.349   2.612  -4.014  0.00  0.00    +0.230 C 
BRANCH  27   3
ATOM      3  O   UNL     1       9.334   1.443  -3.190  0.00  0.00    -0.387 OA
ATOM     30  H   UNL     1       9.182   1.743  -2.277  0.00  0.00    +0.210 HD
ENDBRANCH  27   3
ENDBRANCH  22  27
ENDBRANCH  13  18
ENDBRANCH   4  13
TORSDOF 5
ENDMDL
MODEL 2
REMARK VINA RESULT:      -7.1     23.962     26.328
REMARK  Name = 11941327
REMARK  6 active torsions:
REMARK  status: ('A' for Active; 'I' for Inactive)
REMARK    1  A    between atoms: O_3  and  C_27
REMARK    2  A    between atoms: N_4  and  C_13
REMARK    3  A    between atoms: C_13  and  C_18
REMARK    4  A    between atoms: C_16  and  C_19
REMARK    5  A    between atoms: C_21  and  C_26
REMARK    6  A    between atoms: C_22  and  C_27
REMARK                            x       y       z     vdW  Elec       q    Type
REMARK                         _______ _______ _______ _____ _____    ______ ____
ROOT
ATOM      1  O   UNL     1      -6.073 -11.769  10.806  0.00  0.00    -0.267 OA
ATOM      4  N   UNL     1      -3.235 -11.058  14.879  0.00  0.00    -0.294 NA
ATOM      5  N   UNL     1      -3.984 -11.655  11.837  0.00  0.00    -0.311 N 
ATOM      6  C   UNL     1      -3.266 -13.268  13.695  0.00  0.00    +0.024 C 
ATOM      7  C   UNL     1      -1.726 -11.519  12.942  0.00  0.00    +0.050 C 
ATOM      8  C   UNL     1      -1.861 -13.024  13.160  0.00  0.00    +0.017 C 
ATOM      9  C   UNL     1      -3.469 -12.500  15.018  0.00  0.00    +0.090 C 
ATOM     10  C   UNL     1      -1.917 -10.783  14.287  0.00  0.00    +0.094 C 
ATOM     11  C   UNL     1      -4.282 -12.863  12.617  0.00  0.00    +0.130 C 
ATOM     12  C   UNL     1      -2.737 -11.031  11.921  0.00  0.00    +0.026 A 
ATOM     14  C   UNL     1      -2.446  -9.995  11.118  0.00  0.00    +0.022 A 
ATOM     15  C   UNL     1      -4.974 -11.224  10.932  0.00  0.00    +0.259 A 
ATOM     16  C   UNL     1      -4.632 -10.040  10.070  0.00  0.00    +0.047 A 
ATOM     17  C   UNL     1      -3.413  -9.493  10.184  0.00  0.00    +0.015 A 
ENDROOT
BRANCH  16  19
ATOM     19  C   UNL     1      -5.610  -9.478   9.121  0.00  0.00    -0.010 A 
ATOM     21  C   UNL     1      -5.724  -9.967   7.817  0.00  0.00    -0.043 A 
ATOM     24  C   UNL     1      -6.437  -8.436   9.545  0.00  0.00    +0.009 A 
ATOM     25  C   UNL     1      -6.659  -9.415   6.942  0.00  0.00    +0.004 A 
ATOM     26  C   UNL     1      -4.857 -11.081   7.327  0.00  0.00    +0.044 C 
ATOM     28  C   UNL     1      -7.372  -7.884   8.669  0.00  0.00    +0.001 A 
ATOM     29  C   UNL     1      -7.483  -8.373   7.368  0.00  0.00    +0.000 A 
ENDBRANCH  16  19
BRANCH   4  13
ATOM     13  C   UNL     1      -3.384 -10.376  16.163  0.00  0.00    +0.158 C 
BRANCH  13  18
ATOM      2  O   UNL     1      -5.205 -10.782  17.678  0.00  0.00    -0.461 OA
ATOM     18  C   UNL     1      -4.838 -10.222  16.512  0.00  0.00    +0.119 A 
ATOM     20  C   UNL     1      -5.866  -9.620  15.871  0.00  0.00    +0.046 A 
ATOM     22  C   UNL     1      -6.536 -10.529  17.795  0.00  0.00    +0.131 A 
ATOM     23  C   UNL     1      -6.989  -9.818  16.709  0.00  0.00    +0.047 A 
BRANCH  22  27
ATOM     27  C   UNL     1      -7.191 -11.045  19.005  0.00  0.00    +0.230 C 
BRANCH  27   3
ATOM      3  O   UNL     1      -6.939 -10.175  20.112  0.00  0.00    -0.387 OA
ATOM     30  H   UNL     1      -6.864  -9.274  19.753  0.00  0.00    +0.210 HD
ENDBRANCH  27   3
ENDBRANCH  22  27
ENDBRANCH  13  18
ENDBRANCH   4  13
TORSDOF 5
ENDMDL
MODEL 3
REMARK VINA RESULT:      -6.7     33.212     36.170
REMARK  Name = 11941327
REMARK  6 active torsions:
REMARK  status: ('A' for Active; 'I' for Inactive)
REMARK    1  A    between atoms: O_3  and  C_27
REMARK    2  A    between atoms: N_4  and  C_13
REMARK    3  A    between atoms: C_13  and  C_18
REMARK    4  A    between atoms: C_16  and  C_19
REMARK    5  A    between atoms: C_21  and  C_26
REMARK    6  A    between atoms: C_22  and  C_27
REMARK                            x       y       z     vdW  Elec       q    Type
REMARK                         _______ _______ _______ _____ _____    ______ ____
ROOT
ATOM      1  O   UNL     1       9.155 -11.841  31.907  0.00  0.00    -0.267 OA
ATOM      4  N   UNL     1       7.043  -8.529  35.024  0.00  0.00    -0.294 NA
ATOM      5  N   UNL     1       8.515  -9.661  32.430  0.00  0.00    -0.311 N 
ATOM      6  C   UNL     1       9.474  -8.378  34.431  0.00  0.00    +0.024 C 
ATOM      7  C   UNL     1       7.813  -7.307  32.985  0.00  0.00    +0.050 C 
ATOM      8  C   UNL     1       9.210  -7.144  33.577  0.00  0.00    +0.017 C 
ATOM      9  C   UNL     1       8.414  -8.486  35.546  0.00  0.00    +0.090 C 
ATOM     10  C   UNL     1       6.775  -7.395  34.126  0.00  0.00    +0.094 C 
ATOM     11  C   UNL     1       9.499  -9.613  33.520  0.00  0.00    +0.130 C 
ATOM     12  C   UNL     1       7.742  -8.543  32.106  0.00  0.00    +0.026 A 
ATOM     14  C   UNL     1       6.929  -8.572  31.038  0.00  0.00    +0.022 A 
ATOM     15  C   UNL     1       8.465 -10.847  31.672  0.00  0.00    +0.259 A 
ATOM     16  C   UNL     1       7.520 -10.861  30.501  0.00  0.00    +0.047 A 
ATOM     17  C   UNL     1       6.816  -9.752  30.230  0.00  0.00    +0.015 A 
ENDROOT
BRANCH  16  19
ATOM     19  C   UNL     1       7.356 -12.065  29.668  0.00  0.00    -0.010 A 
ATOM     21  C   UNL     1       6.435 -13.062  29.999  0.00  0.00    -0.043 A 
ATOM     24  C   UNL     1       8.143 -12.203  28.522  0.00  0.00    +0.009 A 
ATOM     25  C   UNL     1       6.302 -14.190  29.190  0.00  0.00    +0.004 A 
ATOM     26  C   UNL     1       5.574 -12.950  31.216  0.00  0.00    +0.044 C 
ATOM     28  C   UNL     1       8.010 -13.332  27.713  0.00  0.00    +0.001 A 
ATOM     29  C   UNL     1       7.090 -14.325  28.047  0.00  0.00    +0.000 A 
ENDBRANCH  16  19
BRANCH   4  13
ATOM     13  C   UNL     1       6.068  -8.577  36.111  0.00  0.00    +0.158 C 
BRANCH  13  18
ATOM      2  O   UNL     1       3.766  -9.233  36.332  0.00  0.00    -0.461 OA
ATOM     18  C   UNL     1       4.956  -9.532  35.780  0.00  0.00    +0.119 A 
ATOM     20  C   UNL     1       4.917 -10.652  35.022  0.00  0.00    +0.046 A 
ATOM     22  C   UNL     1       2.919 -10.208  35.909  0.00  0.00    +0.131 A 
ATOM     23  C   UNL     1       3.579 -11.105  35.102  0.00  0.00    +0.047 A 
BRANCH  22  27
ATOM     27  C   UNL     1       1.531 -10.112  36.381  0.00  0.00    +0.230 C 
BRANCH  27   3
ATOM      3  O   UNL     1       1.103  -8.747  36.382  0.00  0.00    -0.387 OA
ATOM     30  H   UNL     1       0.137  -8.754  36.266  0.00  0.00    +0.210 HD
ENDBRANCH  27   3
ENDBRANCH  22  27
ENDBRANCH  13  18
ENDBRANCH   4  13
TORSDOF 5
ENDMDL
MODEL 4
REMARK VINA RESULT:      -6.5     33.390     36.217
REMARK  Name = 11941327
REMARK  6 active torsions:
REMARK  status: ('A' for Active; 'I' for Inactive)
REMARK    1  A    between atoms: O_3  and  C_27
REMARK    2  A    between atoms: N_4  and  C_13
REMARK    3  A    between atoms: C_13  and  C_18
REMARK    4  A    between atoms: C_16  and  C_19
REMARK    5  A    between atoms: C_21  and  C_26
REMARK    6  A    between atoms: C_22  and  C_27
REMARK                            x       y       z     vdW  Elec       q    Type
REMARK                         _______ _______ _______ _____ _____    ______ ____
ROOT
ATOM      1  O   UNL     1       8.143 -12.826  32.158  0.00  0.00    -0.267 OA
ATOM      4  N   UNL     1       6.539  -8.943  34.896  0.00  0.00    -0.294 NA
ATOM      5  N   UNL     1       8.009 -10.532  32.553  0.00  0.00    -0.311 N 
ATOM      6  C   UNL     1       8.987  -9.428  34.649  0.00  0.00    +0.024 C 
ATOM      7  C   UNL     1       7.855  -8.053  32.967  0.00  0.00    +0.050 C 
ATOM      8  C   UNL     1       9.157  -8.211  33.748  0.00  0.00    +0.017 C 
ATOM      9  C   UNL     1       7.795  -9.214  35.606  0.00  0.00    +0.090 C 
ATOM     10  C   UNL     1       6.687  -7.825  33.953  0.00  0.00    +0.094 C 
ATOM     11  C   UNL     1       8.820 -10.674  33.769  0.00  0.00    +0.130 C 
ATOM     12  C   UNL     1       7.592  -9.276  32.107  0.00  0.00    +0.026 A 
ATOM     14  C   UNL     1       6.947  -9.156  30.935  0.00  0.00    +0.022 A 
ATOM     15  C   UNL     1       7.763 -11.706  31.813  0.00  0.00    +0.259 A 
ATOM     16  C   UNL     1       7.008 -11.544  30.522  0.00  0.00    +0.047 A 
ATOM     17  C   UNL     1       6.649 -10.311  30.137  0.00  0.00    +0.015 A 
ENDROOT
BRANCH  16  19
ATOM     19  C   UNL     1       6.658 -12.710  29.692  0.00  0.00    -0.010 A 
ATOM     21  C   UNL     1       7.507 -13.166  28.679  0.00  0.00    -0.043 A 
ATOM     24  C   UNL     1       5.450 -13.369  29.931  0.00  0.00    +0.009 A 
ATOM     25  C   UNL     1       7.148 -14.272  27.910  0.00  0.00    +0.004 A 
ATOM     26  C   UNL     1       8.808 -12.489  28.394  0.00  0.00    +0.044 C 
ATOM     28  C   UNL     1       5.091 -14.475  29.160  0.00  0.00    +0.001 A 
ATOM     29  C   UNL     1       5.940 -14.927  28.151  0.00  0.00    +0.000 A 
ENDBRANCH  16  19
BRANCH   4  13
ATOM     13  C   UNL     1       5.448  -8.694  35.836  0.00  0.00    +0.158 C 
BRANCH  13  18
ATOM      2  O   UNL     1       4.648 -10.740  34.861  0.00  0.00    -0.461 OA
ATOM     18  C   UNL     1       4.330  -9.674  35.617  0.00  0.00    +0.119 A 
ATOM     20  C   UNL     1       3.045  -9.693  36.037  0.00  0.00    +0.046 A 
ATOM     22  C   UNL     1       3.513 -11.483  34.791  0.00  0.00    +0.131 A 
ATOM     23  C   UNL     1       2.498 -10.882  35.498  0.00  0.00    +0.047 A 
BRANCH  22  27
ATOM     27  C   UNL     1       3.596 -12.724  34.008  0.00  0.00    +0.230 C 
BRANCH  27   3
ATOM      3  O   UNL     1       2.308 -13.068  33.491  0.00  0.00    -0.387 OA
ATOM     30  H   UNL     1       1.932 -13.737  34.089  0.00  0.00    +0.210 HD
ENDBRANCH  27   3
ENDBRANCH  22  27
ENDBRANCH  13  18
ENDBRANCH   4  13
TORSDOF 5
ENDMDL
MODEL 5
REMARK VINA RESULT:      -6.4      2.475      7.636
REMARK  Name = 11941327
REMARK  6 active torsions:
REMARK  status: ('A' for Active; 'I' for Inactive)
REMARK    1  A    between atoms: O_3  and  C_27
REMARK    2  A    between atoms: N_4  and  C_13
REMARK    3  A    between atoms: C_13  and  C_18
REMARK    4  A    between atoms: C_16  and  C_19
REMARK    5  A    between atoms: C_21  and  C_26
REMARK    6  A    between atoms: C_22  and  C_27
REMARK                            x       y       z     vdW  Elec       q    Type
REMARK                         _______ _______ _______ _____ _____    ______ ____
ROOT
ATOM      1  O   UNL     1      10.650   6.754   1.065  0.00  0.00    -0.267 OA
ATOM      4  N   UNL     1      11.072   7.189   6.042  0.00  0.00    -0.294 NA
ATOM      5  N   UNL     1      10.065   6.091   3.222  0.00  0.00    -0.311 N 
ATOM      6  C   UNL     1       8.898   7.656   4.884  0.00  0.00    +0.024 C 
ATOM      7  C   UNL     1       9.440   5.362   5.550  0.00  0.00    +0.050 C 
ATOM      8  C   UNL     1       8.300   6.372   5.445  0.00  0.00    +0.017 C 
ATOM      9  C   UNL     1      10.009   8.176   5.821  0.00  0.00    +0.090 C 
ATOM     10  C   UNL     1      10.525   5.905   6.507  0.00  0.00    +0.094 C 
ATOM     11  C   UNL     1       9.407   7.383   3.462  0.00  0.00    +0.130 C 
ATOM     12  C   UNL     1      10.034   5.077   4.182  0.00  0.00    +0.026 A 
ATOM     14  C   UNL     1      10.543   3.866   3.902  0.00  0.00    +0.022 A 
ATOM     15  C   UNL     1      10.633   5.895   1.948  0.00  0.00    +0.259 A 
ATOM     16  C   UNL     1      11.227   4.540   1.675  0.00  0.00    +0.047 A 
ATOM     17  C   UNL     1      11.152   3.601   2.630  0.00  0.00    +0.015 A 
ENDROOT
BRANCH  16  19
ATOM     19  C   UNL     1      11.886   4.240   0.391  0.00  0.00    -0.010 A 
ATOM     21  C   UNL     1      13.278   4.236   0.270  0.00  0.00    -0.043 A 
ATOM     24  C   UNL     1      11.093   3.953  -0.722  0.00  0.00    +0.009 A 
ATOM     25  C   UNL     1      13.873   3.949  -0.958  0.00  0.00    +0.004 A 
ATOM     26  C   UNL     1      14.160   4.537   1.439  0.00  0.00    +0.044 C 
ATOM     28  C   UNL     1      11.689   3.666  -1.950  0.00  0.00    +0.001 A 
ATOM     29  C   UNL     1      13.079   3.663  -2.068  0.00  0.00    +0.000 A 
ENDBRANCH  16  19
BRANCH   4  13
ATOM     13  C   UNL     1      12.075   7.698   6.976  0.00  0.00    +0.158 C 
BRANCH  13  18
ATOM      2  O   UNL     1      13.752   7.501   5.267  0.00  0.00    -0.461 OA
ATOM     18  C   UNL     1      13.238   8.287   6.229  0.00  0.00    +0.119 A 
ATOM     20  C   UNL     1      13.879   9.473   6.337  0.00  0.00    +0.046 A 
ATOM     22  C   UNL     1      14.776   8.215   4.728  0.00  0.00    +0.131 A 
ATOM     23  C   UNL     1      14.895   9.435   5.352  0.00  0.00    +0.047 A 
BRANCH  22  27
ATOM     27  C   UNL     1      15.516   7.567   3.636  0.00  0.00    +0.230 C 
BRANCH  27   3
ATOM      3  O   UNL     1      15.789   6.203   3.966  0.00  0.00    -0.387 OA
ATOM     30  H   UNL     1      16.260   5.817   3.207  0.00  0.00    +0.210 HD
ENDBRANCH  27   3
ENDBRANCH  22  27
ENDBRANCH  13  18
ENDBRANCH   4  13
TORSDOF 5
ENDMDL
MODEL 6
REMARK VINA RESULT:      -6.4     33.893     36.548
REMARK  Name = 11941327
REMARK  6 active torsions:
REMARK  status: ('A' for Active; 'I' for Inactive)
REMARK    1  A    between atoms: O_3  and  C_27
REMARK    2  A    between atoms: N_4  and  C_13
REMARK    3  A    between atoms: C_13  and  C_18
REMARK    4  A    between atoms: C_16  and  C_19
REMARK    5  A    between atoms: C_21  and  C_26
REMARK    6  A    between atoms: C_22  and  C_27
REMARK                            x       y       z     vdW  Elec       q    Type
REMARK                         _______ _______ _______ _____ _____    ______ ____
ROOT
ATOM      1  O   UNL     1       9.394  -9.468  32.775  0.00  0.00    -0.267 OA
ATOM      4  N   UNL     1       8.399  -6.029  36.286  0.00  0.00    -0.294 NA
ATOM      5  N   UNL     1       8.676  -7.337  33.390  0.00  0.00    -0.311 N 
ATOM      6  C   UNL     1      10.198  -5.652  34.581  0.00  0.00    +0.024 C 
ATOM      7  C   UNL     1       7.887  -5.038  34.050  0.00  0.00    +0.050 C 
ATOM      8  C   UNL     1       9.340  -4.607  33.878  0.00  0.00    +0.017 C 
ATOM      9  C   UNL     1       9.820  -5.729  36.075  0.00  0.00    +0.090 C 
ATOM     10  C   UNL     1       7.537  -5.088  35.555  0.00  0.00    +0.094 C 
ATOM     11  C   UNL     1      10.026  -6.996  33.860  0.00  0.00    +0.130 C 
ATOM     12  C   UNL     1       7.647  -6.391  33.404  0.00  0.00    +0.026 A 
ATOM     14  C   UNL     1       6.452  -6.687  32.868  0.00  0.00    +0.022 A 
ATOM     15  C   UNL     1       8.502  -8.620  32.835  0.00  0.00    +0.259 A 
ATOM     16  C   UNL     1       7.142  -8.934  32.273  0.00  0.00    +0.047 A 
ATOM     17  C   UNL     1       6.200  -7.980  32.301  0.00  0.00    +0.015 A 
ENDROOT
BRANCH  16  19
ATOM     19  C   UNL     1       6.837 -10.261  31.709  0.00  0.00    -0.010 A 
ATOM     21  C   UNL     1       6.353 -11.299  32.509  0.00  0.00    -0.043 A 
ATOM     24  C   UNL     1       7.039 -10.474  30.344  0.00  0.00    +0.009 A 
ATOM     25  C   UNL     1       6.074 -12.544  31.946  0.00  0.00    +0.004 A 
ATOM     26  C   UNL     1       6.123 -11.109  33.973  0.00  0.00    +0.044 C 
ATOM     28  C   UNL     1       6.760 -11.720  29.782  0.00  0.00    +0.001 A 
ATOM     29  C   UNL     1       6.277 -12.755  30.582  0.00  0.00    +0.000 A 
ENDBRANCH  16  19
BRANCH   4  13
ATOM     13  C   UNL     1       8.071  -6.040  37.710  0.00  0.00    +0.158 C 
BRANCH  13  18
ATOM      2  O   UNL     1       6.216  -7.532  37.381  0.00  0.00    -0.461 OA
ATOM     18  C   UNL     1       6.618  -6.364  37.914  0.00  0.00    +0.119 A 
ATOM     20  C   UNL     1       5.618  -5.700  38.538  0.00  0.00    +0.046 A 
ATOM     22  C   UNL     1       4.893  -7.626  37.676  0.00  0.00    +0.131 A 
ATOM     23  C   UNL     1       4.478  -6.524  38.387  0.00  0.00    +0.047 A 
BRANCH  22  27
ATOM     27  C   UNL     1       4.205  -8.832  37.197  0.00  0.00    +0.230 C 
BRANCH  27   3
ATOM      3  O   UNL     1       4.082  -8.799  35.773  0.00  0.00    -0.387 OA
ATOM     30  H   UNL     1       4.116  -7.863  35.508  0.00  0.00    +0.210 HD
ENDBRANCH  27   3
ENDBRANCH  22  27
ENDBRANCH  13  18
ENDBRANCH   4  13
TORSDOF 5
ENDMDL
MODEL 7
REMARK VINA RESULT:      -6.3     26.129     28.943
REMARK  Name = 11941327
REMARK  6 active torsions:
REMARK  status: ('A' for Active; 'I' for Inactive)
REMARK    1  A    between atoms: O_3  and  C_27
REMARK    2  A    between atoms: N_4  and  C_13
REMARK    3  A    between atoms: C_13  and  C_18
REMARK    4  A    between atoms: C_16  and  C_19
REMARK    5  A    between atoms: C_21  and  C_26
REMARK    6  A    between atoms: C_22  and  C_27
REMARK                            x       y       z     vdW  Elec       q    Type
REMARK                         _______ _______ _______ _____ _____    ______ ____
ROOT
ATOM      1  O   UNL     1      -6.046 -12.773  14.394  0.00  0.00    -0.267 OA
ATOM      4  N   UNL     1      -8.758 -10.813  18.129  0.00  0.00    -0.294 NA
ATOM      5  N   UNL     1      -6.256 -12.081  16.611  0.00  0.00    -0.311 N 
ATOM      6  C   UNL     1      -7.901 -13.166  18.251  0.00  0.00    +0.024 C 
ATOM      7  C   UNL     1      -6.473 -11.322  19.003  0.00  0.00    +0.050 C 
ATOM      8  C   UNL     1      -6.882 -12.760  19.309  0.00  0.00    +0.017 C 
ATOM      9  C   UNL     1      -9.122 -12.224  18.305  0.00  0.00    +0.090 C 
ATOM     10  C   UNL     1      -7.714 -10.405  19.081  0.00  0.00    +0.094 C 
ATOM     11  C   UNL     1      -7.214 -13.162  16.878  0.00  0.00    +0.130 C 
ATOM     12  C   UNL     1      -5.829 -11.227  17.631  0.00  0.00    +0.026 A 
ATOM     14  C   UNL     1      -4.870 -10.318  17.393  0.00  0.00    +0.022 A 
ATOM     15  C   UNL     1      -5.719 -12.016  15.310  0.00  0.00    +0.259 A 
ATOM     16  C   UNL     1      -4.671 -10.964  15.064  0.00  0.00    +0.047 A 
ATOM     17  C   UNL     1      -4.290 -10.185  16.087  0.00  0.00    +0.015 A 
ENDROOT
BRANCH  16  19
ATOM     19  C   UNL     1      -4.075 -10.779  13.729  0.00  0.00    -0.010 A 
ATOM     21  C   UNL     1      -4.764 -10.122  12.707  0.00  0.00    -0.043 A 
ATOM     24  C   UNL     1      -2.790 -11.275  13.491  0.00  0.00    +0.009 A 
ATOM     25  C   UNL     1      -4.173  -9.962  11.454  0.00  0.00    +0.004 A 
ATOM     26  C   UNL     1      -6.139  -9.578  12.923  0.00  0.00    +0.044 C 
ATOM     28  C   UNL     1      -2.200 -11.115  12.238  0.00  0.00    +0.001 A 
ATOM     29  C   UNL     1      -2.891 -10.458  11.220  0.00  0.00    +0.000 A 
ENDBRANCH  16  19
BRANCH   4  13
ATOM     13  C   UNL     1      -9.933  -9.950  18.240  0.00  0.00    +0.158 C 
BRANCH  13  18
ATOM      2  O   UNL     1     -10.637  -7.874  17.256  0.00  0.00    -0.461 OA
ATOM     18  C   UNL     1     -10.051  -9.064  17.032  0.00  0.00    +0.119 A 
ATOM     20  C   UNL     1      -9.677  -9.231  15.743  0.00  0.00    +0.046 A 
ATOM     22  C   UNL     1     -10.641  -7.243  16.052  0.00  0.00    +0.131 A 
ATOM     23  C   UNL     1     -10.062  -8.037  15.089  0.00  0.00    +0.047 A 
BRANCH  22  27
ATOM     27  C   UNL     1     -11.237  -5.901  16.024  0.00  0.00    +0.230 C 
BRANCH  27   3
ATOM      3  O   UNL     1     -11.337  -5.432  14.677  0.00  0.00    -0.387 OA
ATOM     30  H   UNL     1     -11.136  -4.481  14.692  0.00  0.00    +0.210 HD
ENDBRANCH  27   3
ENDBRANCH  22  27
ENDBRANCH  13  18
ENDBRANCH   4  13
TORSDOF 5
ENDMDL
MODEL 8
REMARK VINA RESULT:      -6.3     23.779     26.133
REMARK  Name = 11941327
REMARK  6 active torsions:
REMARK  status: ('A' for Active; 'I' for Inactive)
REMARK    1  A    between atoms: O_3  and  C_27
REMARK    2  A    between atoms: N_4  and  C_13
REMARK    3  A    between atoms: C_13  and  C_18
REMARK    4  A    between atoms: C_16  and  C_19
REMARK    5  A    between atoms: C_21  and  C_26
REMARK    6  A    between atoms: C_22  and  C_27
REMARK                            x       y       z     vdW  Elec       q    Type
REMARK                         _______ _______ _______ _____ _____    ______ ____
ROOT
ATOM      1  O   UNL     1      -5.558 -12.290  10.739  0.00  0.00    -0.267 OA
ATOM      4  N   UNL     1      -3.356 -11.081  15.079  0.00  0.00    -0.294 NA
ATOM      5  N   UNL     1      -3.644 -11.854  11.998  0.00  0.00    -0.311 N 
ATOM      6  C   UNL     1      -2.938 -13.301  13.993  0.00  0.00    +0.024 C 
ATOM      7  C   UNL     1      -1.576 -11.369  13.350  0.00  0.00    +0.050 C 
ATOM      8  C   UNL     1      -1.526 -12.872  13.614  0.00  0.00    +0.017 C 
ATOM      9  C   UNL     1      -3.403 -12.537  15.250  0.00  0.00    +0.090 C 
ATOM     10  C   UNL     1      -2.028 -10.635  14.633  0.00  0.00    +0.094 C 
ATOM     11  C   UNL     1      -3.863 -13.072  12.789  0.00  0.00    +0.130 C 
ATOM     12  C   UNL     1      -2.516 -11.056  12.200  0.00  0.00    +0.026 A 
ATOM     14  C   UNL     1      -2.277 -10.009  11.393  0.00  0.00    +0.022 A 
ATOM     15  C   UNL     1      -4.569 -11.591  10.968  0.00  0.00    +0.259 A 
ATOM     16  C   UNL     1      -4.293 -10.392  10.103  0.00  0.00    +0.047 A 
ATOM     17  C   UNL     1      -3.185  -9.674  10.334  0.00  0.00    +0.015 A 
ENDROOT
BRANCH  16  19
ATOM     19  C   UNL     1      -5.219 -10.000   9.025  0.00  0.00    -0.010 A 
ATOM     21  C   UNL     1      -6.354  -9.227   9.283  0.00  0.00    -0.043 A 
ATOM     24  C   UNL     1      -4.945 -10.414   7.719  0.00  0.00    +0.009 A 
ATOM     25  C   UNL     1      -7.210  -8.872   8.242  0.00  0.00    +0.004 A 
ATOM     26  C   UNL     1      -6.679  -8.764  10.666  0.00  0.00    +0.044 C 
ATOM     28  C   UNL     1      -5.803 -10.058   6.678  0.00  0.00    +0.001 A 
ATOM     29  C   UNL     1      -6.935  -9.287   6.940  0.00  0.00    +0.000 A 
ENDBRANCH  16  19
BRANCH   4  13
ATOM     13  C   UNL     1      -3.752 -10.395  16.308  0.00  0.00    +0.158 C 
BRANCH  13  18
ATOM      2  O   UNL     1      -5.894 -10.109  15.256  0.00  0.00    -0.461 OA
ATOM     18  C   UNL     1      -5.250 -10.330  16.415  0.00  0.00    +0.119 A 
ATOM     20  C   UNL     1      -6.091 -10.452  17.468  0.00  0.00    +0.046 A 
ATOM     22  C   UNL     1      -7.214 -10.088  15.576  0.00  0.00    +0.131 A 
ATOM     23  C   UNL     1      -7.388 -10.294  16.925  0.00  0.00    +0.047 A 
BRANCH  22  27
ATOM     27  C   UNL     1      -8.149  -9.858  14.465  0.00  0.00    +0.230 C 
BRANCH  27   3
ATOM      3  O   UNL     1      -8.927  -8.684  14.709  0.00  0.00    -0.387 OA
ATOM     30  H   UNL     1      -8.301  -7.962  14.893  0.00  0.00    +0.210 HD
ENDBRANCH  27   3
ENDBRANCH  22  27
ENDBRANCH  13  18
ENDBRANCH   4  13
TORSDOF 5
ENDMDL
MODEL 9
REMARK VINA RESULT:      -6.2     24.904     26.875
REMARK  Name = 11941327
REMARK  6 active torsions:
REMARK  status: ('A' for Active; 'I' for Inactive)
REMARK    1  A    between atoms: O_3  and  C_27
REMARK    2  A    between atoms: N_4  and  C_13
REMARK    3  A    between atoms: C_13  and  C_18
REMARK    4  A    between atoms: C_16  and  C_19
REMARK    5  A    between atoms: C_21  and  C_26
REMARK    6  A    between atoms: C_22  and  C_27
REMARK                            x       y       z     vdW  Elec       q    Type
REMARK                         _______ _______ _______ _____ _____    ______ ____
ROOT
ATOM      1  O   UNL     1      -4.598 -10.319  17.428  0.00  0.00    -0.267 OA
ATOM      4  N   UNL     1      -3.231 -10.745  12.622  0.00  0.00    -0.294 NA
ATOM      5  N   UNL     1      -3.822 -11.597  15.638  0.00  0.00    -0.311 N 
ATOM      6  C   UNL     1      -1.586 -11.135  14.473  0.00  0.00    +0.024 C 
ATOM      7  C   UNL     1      -2.997 -12.985  13.706  0.00  0.00    +0.050 C 
ATOM      8  C   UNL     1      -1.594 -12.633  14.191  0.00  0.00    +0.017 C 
ATOM      9  C   UNL     1      -1.936 -10.354  13.189  0.00  0.00    +0.090 C 
ATOM     10  C   UNL     1      -3.308 -12.199  12.412  0.00  0.00    +0.094 C 
ATOM     11  C   UNL     1      -2.560 -10.845  15.623  0.00  0.00    +0.130 C 
ATOM     12  C   UNL     1      -4.030 -12.676  14.775  0.00  0.00    +0.026 A 
ATOM     14  C   UNL     1      -5.142 -13.419  14.880  0.00  0.00    +0.022 A 
ATOM     15  C   UNL     1      -4.760 -11.242  16.628  0.00  0.00    +0.259 A 
ATOM     16  C   UNL     1      -6.013 -12.072  16.698  0.00  0.00    +0.047 A 
ATOM     17  C   UNL     1      -6.148 -13.105  15.854  0.00  0.00    +0.015 A 
ENDROOT
BRANCH  16  19
ATOM     19  C   UNL     1      -7.081 -11.762  17.666  0.00  0.00    -0.010 A 
ATOM     21  C   UNL     1      -8.008 -10.744  17.427  0.00  0.00    -0.043 A 
ATOM     24  C   UNL     1      -7.160 -12.508  18.844  0.00  0.00    +0.009 A 
ATOM     25  C   UNL     1      -9.007 -10.474  18.362  0.00  0.00    +0.004 A 
ATOM     26  C   UNL     1      -7.957  -9.925  16.178  0.00  0.00    +0.044 C 
ATOM     28  C   UNL     1      -8.159 -12.236  19.779  0.00  0.00    +0.001 A 
ATOM     29  C   UNL     1      -9.083 -11.220  19.537  0.00  0.00    +0.000 A 
ENDBRANCH  16  19
BRANCH   4  13
ATOM     13  C   UNL     1      -3.500 -10.022  11.380  0.00  0.00    +0.158 C 
BRANCH  13  18
ATOM      2  O   UNL     1      -5.371  -9.229  10.097  0.00  0.00    -0.461 OA
ATOM     18  C   UNL     1      -4.943  -9.609  11.314  0.00  0.00    +0.119 A 
ATOM     20  C   UNL     1      -5.913  -9.544  12.255  0.00  0.00    +0.046 A 
ATOM     22  C   UNL     1      -6.680  -8.902  10.261  0.00  0.00    +0.131 A 
ATOM     23  C   UNL     1      -7.061  -9.078  11.570  0.00  0.00    +0.047 A 
BRANCH  22  27
ATOM     27  C   UNL     1      -7.391  -8.446   9.059  0.00  0.00    +0.230 C 
BRANCH  27   3
ATOM      3  O   UNL     1      -6.491  -8.374   7.950  0.00  0.00    -0.387 OA
ATOM     30  H   UNL     1      -6.462  -7.443   7.669  0.00  0.00    +0.210 HD
ENDBRANCH  27   3
ENDBRANCH  22  27
ENDBRANCH  13  18
ENDBRANCH   4  13
TORSDOF 5
ENDMDL
MODEL 10
REMARK VINA RESULT:      -6.1     31.745     34.307
REMARK  Name = 11941327
REMARK  6 active torsions:
REMARK  status: ('A' for Active; 'I' for Inactive)
REMARK    1  A    between atoms: O_3  and  C_27
REMARK    2  A    between atoms: N_4  and  C_13
REMARK    3  A    between atoms: C_13  and  C_18
REMARK    4  A    between atoms: C_16  and  C_19
REMARK    5  A    between atoms: C_21  and  C_26
REMARK    6  A    between atoms: C_22  and  C_27
REMARK                            x       y       z     vdW  Elec       q    Type
REMARK                         _______ _______ _______ _____ _____    ______ ____
ROOT
ATOM      1  O   UNL     1      12.370  -7.726  33.281  0.00  0.00    -0.267 OA
ATOM      4  N   UNL     1       7.428  -6.929  33.580  0.00  0.00    -0.294 NA
ATOM      5  N   UNL     1      10.556  -6.418  33.941  0.00  0.00    -0.311 N 
ATOM      6  C   UNL     1       8.817  -7.220  35.646  0.00  0.00    +0.024 C 
ATOM      7  C   UNL     1       8.600  -4.996  34.644  0.00  0.00    +0.050 C 
ATOM      8  C   UNL     1       8.675  -5.739  35.974  0.00  0.00    +0.017 C 
ATOM      9  C   UNL     1       7.606  -7.697  34.817  0.00  0.00    +0.090 C 
ATOM     10  C   UNL     1       7.369  -5.484  33.848  0.00  0.00    +0.094 C 
ATOM     11  C   UNL     1      10.151  -7.438  34.918  0.00  0.00    +0.130 C 
ATOM     12  C   UNL     1       9.870  -5.206  33.838  0.00  0.00    +0.026 A 
ATOM     14  C   UNL     1      10.321  -4.243  33.018  0.00  0.00    +0.022 A 
ATOM     15  C   UNL     1      11.720  -6.682  33.193  0.00  0.00    +0.259 A 
ATOM     16  C   UNL     1      12.182  -5.599  32.258  0.00  0.00    +0.047 A 
ATOM     17  C   UNL     1      11.492  -4.449  32.215  0.00  0.00    +0.015 A 
ENDROOT
BRANCH  16  19
ATOM     19  C   UNL     1      13.362  -5.786  31.396  0.00  0.00    -0.010 A 
ATOM     21  C   UNL     1      14.611  -5.265  31.745  0.00  0.00    -0.043 A 
ATOM     24  C   UNL     1      13.220  -6.504  30.206  0.00  0.00    +0.009 A 
ATOM     25  C   UNL     1      15.709  -5.460  30.908  0.00  0.00    +0.004 A 
ATOM     26  C   UNL     1      14.804  -4.493  33.010  0.00  0.00    +0.044 C 
ATOM     28  C   UNL     1      14.319  -6.698  29.369  0.00  0.00    +0.001 A 
ATOM     29  C   UNL     1      15.564  -6.176  29.720  0.00  0.00    +0.000 A 
ENDBRANCH  16  19
BRANCH   4  13
ATOM     13  C   UNL     1       6.241  -7.375  32.852  0.00  0.00    +0.158 C 
BRANCH  13  18
ATOM      2  O   UNL     1       6.490  -9.745  32.538  0.00  0.00    -0.461 OA
ATOM     18  C   UNL     1       6.578  -8.535  31.957  0.00  0.00    +0.119 A 
ATOM     20  C   UNL     1       6.956  -8.601  30.660  0.00  0.00    +0.046 A 
ATOM     22  C   UNL     1       6.830 -10.634  31.568  0.00  0.00    +0.131 A 
ATOM     23  C   UNL     1       7.126  -9.981  30.395  0.00  0.00    +0.047 A 
BRANCH  22  27
ATOM     27  C   UNL     1       6.814 -12.052  31.953  0.00  0.00    +0.230 C 
BRANCH  27   3
ATOM      3  O   UNL     1       5.660 -12.699  31.410  0.00  0.00    -0.387 OA
ATOM     30  H   UNL     1       5.690 -13.626  31.704  0.00  0.00    +0.210 HD
ENDBRANCH  27   3
ENDBRANCH  22  27
ENDBRANCH  13  18
ENDBRANCH   4  13
TORSDOF 5
ENDMDL
