MODEL 1
REMARK VINA RESULT:      -6.7      0.000      0.000
REMARK  Name = 45783418
REMARK  9 active torsions:
REMARK  status: ('A' for Active; 'I' for Inactive)
REMARK    1  A    between atoms: O_2  and  C_22
REMARK    2  A    between atoms: O_2  and  C_26
REMARK    3  A    between atoms: O_3  and  C_27
REMARK    4  A    between atoms: O_3  and  C_28
REMARK    5  A    between atoms: N_4  and  C_9
REMARK    6  A    between atoms: N_5  and  C_19
REMARK    7  A    between atoms: C_10  and  C_18
REMARK    8  A    between atoms: C_20  and  C_21
REMARK    9  A    between atoms: C_26  and  C_27
REMARK                            x       y       z     vdW  Elec       q    Type
REMARK                         _______ _______ _______ _____ _____    ______ ____
ROOT
ATOM      1  O   UNL     1      16.780   6.522  20.305  0.00  0.00    -0.336 OA
ATOM      6  N   UNL     1      15.837   8.540  20.070  0.00  0.00    -0.190 NA
ATOM      7  N   UNL     1      15.698   6.347  19.435  0.00  0.00    -0.056 NA
ATOM     18  C   UNL     1      16.790   7.841  20.632  0.00  0.00    +0.245 A 
ATOM     20  C   UNL     1      15.191   7.580  19.345  0.00  0.00    +0.207 A 
ENDROOT
BRANCH  20  21
ATOM      8  N   UNL     1      11.688   7.600  18.075  0.00  0.00    -0.221 NA
ATOM     21  C   UNL     1      14.044   7.887  18.542  0.00  0.00    +0.084 A 
ATOM     22  C   UNL     1      12.797   7.340  18.803  0.00  0.00    +0.226 A 
ATOM     23  C   UNL     1      14.159   8.756  17.464  0.00  0.00    +0.018 A 
ATOM     24  C   UNL     1      13.042   9.048  16.690  0.00  0.00    +0.021 A 
ATOM     25  C   UNL     1      11.841   8.450  17.034  0.00  0.00    +0.114 A 
BRANCH  22   2
ATOM      2  O   UNL     1      12.632   6.476  19.856  0.00  0.00    -0.474 OA
BRANCH   2  26
ATOM     26  C   UNL     1      12.298   7.056  21.111  0.00  0.00    +0.258 C 
BRANCH  26  27
ATOM     27  C   UNL     1      11.028   6.411  21.631  0.00  0.00    +0.200 C 
BRANCH  27   3
ATOM      3  O   UNL     1      10.191   7.418  22.190  0.00  0.00    -0.380 OA
ATOM     28  C   UNL     1      10.758   8.710  22.036  0.00  0.00    +0.194 C 
ENDBRANCH  27   3
ENDBRANCH  26  27
ENDBRANCH   2  26
ENDBRANCH  22   2
ENDBRANCH  20  21
BRANCH  18  10
ATOM      4  N   UNL     1      19.235   7.976  21.075  0.00  0.00    -0.288 NA
ATOM     10  C   UNL     1      17.883   8.294  21.577  0.00  0.00    +0.146 C 
ATOM     11  C   UNL     1      20.129   9.000  21.618  0.00  0.00    +0.085 C 
ATOM     14  C   UNL     1      17.893   9.820  21.787  0.00  0.00    +0.030 C 
ATOM     15  C   UNL     1      19.308  10.260  21.438  0.00  0.00    +0.017 C 
BRANCH   4   9
ATOM      5  N   UNL     1      21.765   4.577  21.413  0.00  0.00    -0.305 NA
ATOM      9  C   UNL     1      19.674   6.626  21.419  0.00  0.00    +0.060 C 
ATOM     12  C   UNL     1      20.878   6.684  22.363  0.00  0.00    +0.034 C 
ATOM     13  C   UNL     1      20.035   5.830  20.161  0.00  0.00    +0.034 C 
ATOM     16  C   UNL     1      21.414   5.280  22.655  0.00  0.00    +0.085 C 
ATOM     17  C   UNL     1      20.599   4.454  20.525  0.00  0.00    +0.085 C 
ATOM     19  C   UNL     1      22.322   3.258  21.712  0.00  0.00    +0.104 C 
ENDBRANCH   4   9
ENDBRANCH  18  10
TORSDOF 7
ENDMDL
MODEL 2
REMARK VINA RESULT:      -6.6     16.154     19.939
REMARK  Name = 45783418
REMARK  9 active torsions:
REMARK  status: ('A' for Active; 'I' for Inactive)
REMARK    1  A    between atoms: O_2  and  C_22
REMARK    2  A    between atoms: O_2  and  C_26
REMARK    3  A    between atoms: O_3  and  C_27
REMARK    4  A    between atoms: O_3  and  C_28
REMARK    5  A    between atoms: N_4  and  C_9
REMARK    6  A    between atoms: N_5  and  C_19
REMARK    7  A    between atoms: C_10  and  C_18
REMARK    8  A    between atoms: C_20  and  C_21
REMARK    9  A    between atoms: C_26  and  C_27
REMARK                            x       y       z     vdW  Elec       q    Type
REMARK                         _______ _______ _______ _____ _____    ______ ____
ROOT
ATOM      1  O   UNL     1      11.195   3.433   3.144  0.00  0.00    -0.336 OA
ATOM      6  N   UNL     1      11.480   5.466   2.245  0.00  0.00    -0.190 NA
ATOM      7  N   UNL     1      10.416   4.310   3.908  0.00  0.00    -0.056 NA
ATOM     18  C   UNL     1      11.789   4.195   2.187  0.00  0.00    +0.245 A 
ATOM     20  C   UNL     1      10.635   5.488   3.317  0.00  0.00    +0.207 A 
ENDROOT
BRANCH  20  21
ATOM      8  N   UNL     1       9.830   8.436   5.450  0.00  0.00    -0.221 NA
ATOM     21  C   UNL     1      10.028   6.705   3.773  0.00  0.00    +0.084 A 
ATOM     22  C   UNL     1      10.374   7.291   4.980  0.00  0.00    +0.226 A 
ATOM     23  C   UNL     1       9.061   7.334   2.998  0.00  0.00    +0.018 A 
ATOM     24  C   UNL     1       8.477   8.513   3.447  0.00  0.00    +0.021 A 
ATOM     25  C   UNL     1       8.892   9.018   4.668  0.00  0.00    +0.114 A 
BRANCH  22   2
ATOM      2  O   UNL     1      11.323   6.708   5.781  0.00  0.00    -0.474 OA
BRANCH   2  26
ATOM     26  C   UNL     1      11.024   6.625   7.169  0.00  0.00    +0.258 C 
BRANCH  26  27
ATOM     27  C   UNL     1      10.141   5.416   7.412  0.00  0.00    +0.200 C 
BRANCH  27   3
ATOM      3  O   UNL     1      10.514   4.809   8.645  0.00  0.00    -0.380 OA
ATOM     28  C   UNL     1       9.384   4.294   9.333  0.00  0.00    +0.194 C 
ENDBRANCH  27   3
ENDBRANCH  26  27
ENDBRANCH   2  26
ENDBRANCH  22   2
ENDBRANCH  20  21
BRANCH  18  10
ATOM      4  N   UNL     1      12.731   4.110  -0.115  0.00  0.00    -0.288 NA
ATOM     10  C   UNL     1      12.698   3.472   1.216  0.00  0.00    +0.146 C 
ATOM     11  C   UNL     1      14.051   3.826  -0.678  0.00  0.00    +0.085 C 
ATOM     14  C   UNL     1      14.167   3.455   1.678  0.00  0.00    +0.030 C 
ATOM     15  C   UNL     1      14.956   4.045   0.518  0.00  0.00    +0.017 C 
BRANCH   4   9
ATOM      5  N   UNL     1      10.588   3.311  -3.697  0.00  0.00    -0.305 NA
ATOM      9  C   UNL     1      11.651   3.666  -0.994  0.00  0.00    +0.060 C 
ATOM     12  C   UNL     1      12.150   2.562  -1.929  0.00  0.00    +0.034 C 
ATOM     13  C   UNL     1      11.097   4.835  -1.814  0.00  0.00    +0.034 C 
ATOM     16  C   UNL     1      11.062   2.153  -2.925  0.00  0.00    +0.085 C 
ATOM     17  C   UNL     1      10.043   4.352  -2.814  0.00  0.00    +0.085 C 
ATOM     19  C   UNL     1       9.585   2.895  -4.677  0.00  0.00    +0.104 C 
ENDBRANCH   4   9
ENDBRANCH  18  10
TORSDOF 7
ENDMDL
MODEL 3
REMARK VINA RESULT:      -6.3     26.010     29.153
REMARK  Name = 45783418
REMARK  9 active torsions:
REMARK  status: ('A' for Active; 'I' for Inactive)
REMARK    1  A    between atoms: O_2  and  C_22
REMARK    2  A    between atoms: O_2  and  C_26
REMARK    3  A    between atoms: O_3  and  C_27
REMARK    4  A    between atoms: O_3  and  C_28
REMARK    5  A    between atoms: N_4  and  C_9
REMARK    6  A    between atoms: N_5  and  C_19
REMARK    7  A    between atoms: C_10  and  C_18
REMARK    8  A    between atoms: C_20  and  C_21
REMARK    9  A    between atoms: C_26  and  C_27
REMARK                            x       y       z     vdW  Elec       q    Type
REMARK                         _______ _______ _______ _____ _____    ______ ____
ROOT
ATOM      1  O   UNL     1      -8.308 -10.942  13.062  0.00  0.00    -0.336 OA
ATOM      6  N   UNL     1      -6.517  -9.724  13.634  0.00  0.00    -0.190 NA
ATOM      7  N   UNL     1      -7.515 -10.852  11.912  0.00  0.00    -0.056 NA
ATOM     18  C   UNL     1      -7.649 -10.251  14.029  0.00  0.00    +0.245 A 
ATOM     20  C   UNL     1      -6.478 -10.119  12.328  0.00  0.00    +0.207 A 
ENDROOT
BRANCH  20  21
ATOM      8  N   UNL     1      -3.059  -9.974  10.853  0.00  0.00    -0.221 NA
ATOM     21  C   UNL     1      -5.389  -9.764  11.465  0.00  0.00    +0.084 A 
ATOM     22  C   UNL     1      -4.114 -10.279  11.640  0.00  0.00    +0.226 A 
ATOM     23  C   UNL     1      -5.593  -8.877  10.414  0.00  0.00    +0.018 A 
ATOM     24  C   UNL     1      -4.532  -8.537   9.583  0.00  0.00    +0.021 A 
ATOM     25  C   UNL     1      -3.296  -9.107   9.842  0.00  0.00    +0.114 A 
BRANCH  22   2
ATOM      2  O   UNL     1      -3.862 -11.158  12.663  0.00  0.00    -0.474 OA
BRANCH   2  26
ATOM     26  C   UNL     1      -2.556 -11.719  12.716  0.00  0.00    +0.258 C 
BRANCH  26  27
ATOM     27  C   UNL     1      -2.056 -11.671  14.147  0.00  0.00    +0.200 C 
BRANCH  27   3
ATOM      3  O   UNL     1      -1.876 -10.312  14.531  0.00  0.00    -0.380 OA
ATOM     28  C   UNL     1      -1.072 -10.203  15.696  0.00  0.00    +0.194 C 
ENDBRANCH  27   3
ENDBRANCH  26  27
ENDBRANCH   2  26
ENDBRANCH  22   2
ENDBRANCH  20  21
BRANCH  18  10
ATOM      4  N   UNL     1      -7.412  -9.669  16.436  0.00  0.00    -0.288 NA
ATOM     10  C   UNL     1      -8.309 -10.198  15.390  0.00  0.00    +0.146 C 
ATOM     11  C   UNL     1      -8.270  -9.022  17.429  0.00  0.00    +0.085 C 
ATOM     14  C   UNL     1      -9.536  -9.267  15.420  0.00  0.00    +0.030 C 
ATOM     15  C   UNL     1      -9.265  -8.288  16.553  0.00  0.00    +0.017 C 
BRANCH   4   9
ATOM      5  N   UNL     1      -4.432 -11.419  18.910  0.00  0.00    -0.305 NA
ATOM      9  C   UNL     1      -6.556 -10.692  17.033  0.00  0.00    +0.060 C 
ATOM     12  C   UNL     1      -6.790 -10.763  18.544  0.00  0.00    +0.034 C 
ATOM     13  C   UNL     1      -5.078 -10.406  16.746  0.00  0.00    +0.034 C 
ATOM     16  C   UNL     1      -5.832 -11.759  19.201  0.00  0.00    +0.085 C 
ATOM     17  C   UNL     1      -4.176 -11.414  17.462  0.00  0.00    +0.085 C 
ATOM     19  C   UNL     1      -3.528 -12.350  19.585  0.00  0.00    +0.104 C 
ENDBRANCH   4   9
ENDBRANCH  18  10
TORSDOF 7
ENDMDL
MODEL 4
REMARK VINA RESULT:      -6.3     26.825     29.352
REMARK  Name = 45783418
REMARK  9 active torsions:
REMARK  status: ('A' for Active; 'I' for Inactive)
REMARK    1  A    between atoms: O_2  and  C_22
REMARK    2  A    between atoms: O_2  and  C_26
REMARK    3  A    between atoms: O_3  and  C_27
REMARK    4  A    between atoms: O_3  and  C_28
REMARK    5  A    between atoms: N_4  and  C_9
REMARK    6  A    between atoms: N_5  and  C_19
REMARK    7  A    between atoms: C_10  and  C_18
REMARK    8  A    between atoms: C_20  and  C_21
REMARK    9  A    between atoms: C_26  and  C_27
REMARK                            x       y       z     vdW  Elec       q    Type
REMARK                         _______ _______ _______ _____ _____    ______ ____
ROOT
ATOM      1  O   UNL     1      -2.387 -10.328  14.764  0.00  0.00    -0.336 OA
ATOM      6  N   UNL     1      -4.512 -11.030  14.844  0.00  0.00    -0.190 NA
ATOM      7  N   UNL     1      -2.758 -10.293  16.114  0.00  0.00    -0.056 NA
ATOM     18  C   UNL     1      -3.477 -10.772  14.085  0.00  0.00    +0.245 A 
ATOM     20  C   UNL     1      -4.024 -10.720  16.080  0.00  0.00    +0.207 A 
ENDROOT
BRANCH  20  21
ATOM      8  N   UNL     1      -6.887 -10.393  18.443  0.00  0.00    -0.221 NA
ATOM     21  C   UNL     1      -4.827 -10.848  17.261  0.00  0.00    +0.084 A 
ATOM     22  C   UNL     1      -6.095 -10.297  17.351  0.00  0.00    +0.226 A 
ATOM     23  C   UNL     1      -4.340 -11.542  18.363  0.00  0.00    +0.018 A 
ATOM     24  C   UNL     1      -5.123 -11.662  19.504  0.00  0.00    +0.021 A 
ATOM     25  C   UNL     1      -6.378 -11.075  19.494  0.00  0.00    +0.114 A 
BRANCH  22   2
ATOM      2  O   UNL     1      -6.620  -9.604  16.291  0.00  0.00    -0.474 OA
BRANCH   2  26
ATOM     26  C   UNL     1      -7.715 -10.207  15.612  0.00  0.00    +0.258 C 
BRANCH  26  27
ATOM     27  C   UNL     1      -8.851  -9.206  15.519  0.00  0.00    +0.200 C 
BRANCH  27   3
ATOM      3  O   UNL     1      -9.630  -9.276  16.709  0.00  0.00    -0.380 OA
ATOM     28  C   UNL     1      -9.782  -7.998  17.308  0.00  0.00    +0.194 C 
ENDBRANCH  27   3
ENDBRANCH  26  27
ENDBRANCH   2  26
ENDBRANCH  22   2
ENDBRANCH  20  21
BRANCH  18  10
ATOM      4  N   UNL     1      -4.073  -9.857  11.850  0.00  0.00    -0.288 NA
ATOM     10  C   UNL     1      -3.331 -10.901  12.584  0.00  0.00    +0.146 C 
ATOM     11  C   UNL     1      -3.346  -9.633  10.601  0.00  0.00    +0.085 C 
ATOM     14  C   UNL     1      -1.873 -10.747  12.113  0.00  0.00    +0.030 C 
ATOM     15  C   UNL     1      -1.905  -9.638  11.072  0.00  0.00    +0.017 C 
BRANCH   4   9
ATOM      5  N   UNL     1      -8.075  -9.531  10.455  0.00  0.00    -0.305 NA
ATOM      9  C   UNL     1      -5.473 -10.203  11.614  0.00  0.00    +0.060 C 
ATOM     12  C   UNL     1      -5.749 -10.305  10.112  0.00  0.00    +0.034 C 
ATOM     13  C   UNL     1      -6.408  -9.168  12.248  0.00  0.00    +0.034 C 
ATOM     16  C   UNL     1      -7.233 -10.569   9.844  0.00  0.00    +0.085 C 
ATOM     17  C   UNL     1      -7.870  -9.469  11.910  0.00  0.00    +0.085 C 
ATOM     19  C   UNL     1      -9.485  -9.770  10.147  0.00  0.00    +0.104 C 
ENDBRANCH   4   9
ENDBRANCH  18  10
TORSDOF 7
ENDMDL
MODEL 5
REMARK VINA RESULT:      -6.2      3.511      7.260
REMARK  Name = 45783418
REMARK  9 active torsions:
REMARK  status: ('A' for Active; 'I' for Inactive)
REMARK    1  A    between atoms: O_2  and  C_22
REMARK    2  A    between atoms: O_2  and  C_26
REMARK    3  A    between atoms: O_3  and  C_27
REMARK    4  A    between atoms: O_3  and  C_28
REMARK    5  A    between atoms: N_4  and  C_9
REMARK    6  A    between atoms: N_5  and  C_19
REMARK    7  A    between atoms: C_10  and  C_18
REMARK    8  A    between atoms: C_20  and  C_21
REMARK    9  A    between atoms: C_26  and  C_27
REMARK                            x       y       z     vdW  Elec       q    Type
REMARK                         _______ _______ _______ _____ _____    ______ ____
ROOT
ATOM      1  O   UNL     1      16.205   9.904  21.613  0.00  0.00    -0.336 OA
ATOM      6  N   UNL     1      14.294   9.714  22.765  0.00  0.00    -0.190 NA
ATOM      7  N   UNL     1      16.164  11.000  22.482  0.00  0.00    -0.056 NA
ATOM     18  C   UNL     1      15.067   9.198  21.844  0.00  0.00    +0.245 A 
ATOM     20  C   UNL     1      15.008  10.819  23.128  0.00  0.00    +0.207 A 
ENDROOT
BRANCH  20  21
ATOM      8  N   UNL     1      12.917  13.352  24.889  0.00  0.00    -0.221 NA
ATOM     21  C   UNL     1      14.539  11.723  24.138  0.00  0.00    +0.084 A 
ATOM     22  C   UNL     1      13.397  12.489  23.965  0.00  0.00    +0.226 A 
ATOM     23  C   UNL     1      15.233  11.851  25.335  0.00  0.00    +0.018 A 
ATOM     24  C   UNL     1      14.773  12.729  26.309  0.00  0.00    +0.021 A 
ATOM     25  C   UNL     1      13.620  13.450  26.040  0.00  0.00    +0.114 A 
BRANCH  22   2
ATOM      2  O   UNL     1      12.677  12.397  22.802  0.00  0.00    -0.474 OA
BRANCH   2  26
ATOM     26  C   UNL     1      11.318  11.995  22.921  0.00  0.00    +0.258 C 
BRANCH  26  27
ATOM     27  C   UNL     1      11.118  10.697  22.163  0.00  0.00    +0.200 C 
BRANCH  27   3
ATOM      3  O   UNL     1      10.839   9.655  23.091  0.00  0.00    -0.380 OA
ATOM     28  C   UNL     1      10.809   8.386  22.455  0.00  0.00    +0.194 C 
ENDBRANCH  27   3
ENDBRANCH  26  27
ENDBRANCH   2  26
ENDBRANCH  22   2
ENDBRANCH  20  21
BRANCH  18  10
ATOM      4  N   UNL     1      15.133   8.166  19.581  0.00  0.00    -0.288 NA
ATOM     10  C   UNL     1      14.870   7.945  21.017  0.00  0.00    +0.146 C 
ATOM     11  C   UNL     1      15.601   6.887  19.045  0.00  0.00    +0.085 C 
ATOM     14  C   UNL     1      15.829   6.810  21.420  0.00  0.00    +0.030 C 
ATOM     15  C   UNL     1      16.543   6.416  20.134  0.00  0.00    +0.017 C 
BRANCH   4   9
ATOM      5  N   UNL     1      11.643   8.167  17.155  0.00  0.00    -0.305 NA
ATOM      9  C   UNL     1      13.972   8.673  18.854  0.00  0.00    +0.060 C 
ATOM     12  C   UNL     1      12.688   8.039  19.395  0.00  0.00    +0.034 C 
ATOM     13  C   UNL     1      14.099   8.394  17.353  0.00  0.00    +0.034 C 
ATOM     16  C   UNL     1      11.471   8.483  18.580  0.00  0.00    +0.085 C 
ATOM     17  C   UNL     1      12.836   8.826  16.605  0.00  0.00    +0.085 C 
ATOM     19  C   UNL     1      10.451   8.552  16.399  0.00  0.00    +0.104 C 
ENDBRANCH   4   9
ENDBRANCH  18  10
TORSDOF 7
ENDMDL
MODEL 6
REMARK VINA RESULT:      -6.2      3.844      7.118
REMARK  Name = 45783418
REMARK  9 active torsions:
REMARK  status: ('A' for Active; 'I' for Inactive)
REMARK    1  A    between atoms: O_2  and  C_22
REMARK    2  A    between atoms: O_2  and  C_26
REMARK    3  A    between atoms: O_3  and  C_27
REMARK    4  A    between atoms: O_3  and  C_28
REMARK    5  A    between atoms: N_4  and  C_9
REMARK    6  A    between atoms: N_5  and  C_19
REMARK    7  A    between atoms: C_10  and  C_18
REMARK    8  A    between atoms: C_20  and  C_21
REMARK    9  A    between atoms: C_26  and  C_27
REMARK                            x       y       z     vdW  Elec       q    Type
REMARK                         _______ _______ _______ _____ _____    ______ ____
ROOT
ATOM      1  O   UNL     1      14.167  10.928  20.895  0.00  0.00    -0.336 OA
ATOM      6  N   UNL     1      14.234   8.870  21.778  0.00  0.00    -0.190 NA
ATOM      7  N   UNL     1      15.087  10.204  20.127  0.00  0.00    -0.056 NA
ATOM     18  C   UNL     1      13.712  10.068  21.845  0.00  0.00    +0.245 A 
ATOM     20  C   UNL     1      15.072   9.001  20.708  0.00  0.00    +0.207 A 
ENDROOT
BRANCH  20  21
ATOM      8  N   UNL     1      16.161   5.980  18.818  0.00  0.00    -0.221 NA
ATOM     21  C   UNL     1      15.881   7.912  20.246  0.00  0.00    +0.084 A 
ATOM     22  C   UNL     1      15.434   7.020  19.283  0.00  0.00    +0.226 A 
ATOM     23  C   UNL     1      17.157   7.723  20.764  0.00  0.00    +0.018 A 
ATOM     24  C   UNL     1      17.936   6.664  20.311  0.00  0.00    +0.021 A 
ATOM     25  C   UNL     1      17.397   5.829  19.346  0.00  0.00    +0.114 A 
BRANCH  22   2
ATOM      2  O   UNL     1      14.183   7.164  18.741  0.00  0.00    -0.474 OA
BRANCH   2  26
ATOM     26  C   UNL     1      14.116   7.673  17.414  0.00  0.00    +0.258 C 
BRANCH  26  27
ATOM     27  C   UNL     1      12.883   8.546  17.282  0.00  0.00    +0.200 C 
BRANCH  27   3
ATOM      3  O   UNL     1      11.736   7.713  17.147  0.00  0.00    -0.380 OA
ATOM     28  C   UNL     1      10.604   8.453  16.717  0.00  0.00    +0.194 C 
ENDBRANCH  27   3
ENDBRANCH  26  27
ENDBRANCH   2  26
ENDBRANCH  22   2
ENDBRANCH  20  21
BRANCH  18  10
ATOM      4  N   UNL     1      13.047  11.959  23.320  0.00  0.00    -0.288 NA
ATOM     10  C   UNL     1      12.690  10.617  22.819  0.00  0.00    +0.146 C 
ATOM     11  C   UNL     1      11.786  12.637  23.620  0.00  0.00    +0.085 C 
ATOM     14  C   UNL     1      11.299  10.794  22.182  0.00  0.00    +0.030 C 
ATOM     15  C   UNL     1      10.931  12.250  22.430  0.00  0.00    +0.017 C 
BRANCH   4   9
ATOM      5  N   UNL     1      15.573  13.346  26.444  0.00  0.00    -0.305 NA
ATOM      9  C   UNL     1      13.939  11.923  24.477  0.00  0.00    +0.060 C 
ATOM     12  C   UNL     1      13.322  12.694  25.647  0.00  0.00    +0.034 C 
ATOM     13  C   UNL     1      15.311  12.511  24.129  0.00  0.00    +0.034 C 
ATOM     16  C   UNL     1      14.287  12.752  26.834  0.00  0.00    +0.085 C 
ATOM     17  C   UNL     1      16.209  12.575  25.366  0.00  0.00    +0.085 C 
ATOM     19  C   UNL     1      16.464  13.440  27.600  0.00  0.00    +0.104 C 
ENDBRANCH   4   9
ENDBRANCH  18  10
TORSDOF 7
ENDMDL
MODEL 7
REMARK VINA RESULT:      -6.2      2.208      7.578
REMARK  Name = 45783418
REMARK  9 active torsions:
REMARK  status: ('A' for Active; 'I' for Inactive)
REMARK    1  A    between atoms: O_2  and  C_22
REMARK    2  A    between atoms: O_2  and  C_26
REMARK    3  A    between atoms: O_3  and  C_27
REMARK    4  A    between atoms: O_3  and  C_28
REMARK    5  A    between atoms: N_4  and  C_9
REMARK    6  A    between atoms: N_5  and  C_19
REMARK    7  A    between atoms: C_10  and  C_18
REMARK    8  A    between atoms: C_20  and  C_21
REMARK    9  A    between atoms: C_26  and  C_27
REMARK                            x       y       z     vdW  Elec       q    Type
REMARK                         _______ _______ _______ _____ _____    ______ ____
ROOT
ATOM      1  O   UNL     1      14.336   6.599  20.162  0.00  0.00    -0.336 OA
ATOM      6  N   UNL     1      16.028   7.712  19.205  0.00  0.00    -0.190 NA
ATOM      7  N   UNL     1      15.487   6.250  20.879  0.00  0.00    -0.056 NA
ATOM     18  C   UNL     1      14.743   7.462  19.195  0.00  0.00    +0.245 A 
ATOM     20  C   UNL     1      16.443   6.946  20.256  0.00  0.00    +0.207 A 
ENDROOT
BRANCH  20  21
ATOM      8  N   UNL     1      19.665   7.844  21.899  0.00  0.00    -0.221 NA
ATOM     21  C   UNL     1      17.819   6.897  20.656  0.00  0.00    +0.084 A 
ATOM     22  C   UNL     1      18.375   7.850  21.495  0.00  0.00    +0.226 A 
ATOM     23  C   UNL     1      18.640   5.871  20.203  0.00  0.00    +0.018 A 
ATOM     24  C   UNL     1      19.973   5.830  20.596  0.00  0.00    +0.021 A 
ATOM     25  C   UNL     1      20.432   6.831  21.436  0.00  0.00    +0.114 A 
BRANCH  22   2
ATOM      2  O   UNL     1      17.605   8.881  21.969  0.00  0.00    -0.474 OA
BRANCH   2  26
ATOM     26  C   UNL     1      17.891  10.178  21.460  0.00  0.00    +0.258 C 
BRANCH  26  27
ATOM     27  C   UNL     1      16.863  11.157  21.996  0.00  0.00    +0.200 C 
BRANCH  27   3
ATOM      3  O   UNL     1      16.774  12.268  21.110  0.00  0.00    -0.380 OA
ATOM     28  C   UNL     1      16.920  11.867  19.756  0.00  0.00    +0.194 C 
ENDBRANCH  27   3
ENDBRANCH  26  27
ENDBRANCH   2  26
ENDBRANCH  22   2
ENDBRANCH  20  21
BRANCH  18  10
ATOM      4  N   UNL     1      13.554   9.466  18.322  0.00  0.00    -0.288 NA
ATOM     10  C   UNL     1      13.669   7.995  18.270  0.00  0.00    +0.146 C 
ATOM     11  C   UNL     1      13.080   9.890  17.004  0.00  0.00    +0.085 C 
ATOM     14  C   UNL     1      13.948   7.676  16.790  0.00  0.00    +0.030 C 
ATOM     15  C   UNL     1      13.909   9.021  16.079  0.00  0.00    +0.017 C 
BRANCH   4   9
ATOM      5  N   UNL     1      11.763   9.736  22.167  0.00  0.00    -0.305 NA
ATOM      9  C   UNL     1      12.684   9.939  19.396  0.00  0.00    +0.060 C 
ATOM     12  C   UNL     1      13.521  10.443  20.574  0.00  0.00    +0.034 C 
ATOM     13  C   UNL     1      11.739   8.827  19.865  0.00  0.00    +0.034 C 
ATOM     16  C   UNL     1      12.628  10.849  21.748  0.00  0.00    +0.085 C 
ATOM     17  C   UNL     1      10.904   9.287  21.062  0.00  0.00    +0.085 C 
ATOM     19  C   UNL     1      10.952  10.125  23.320  0.00  0.00    +0.104 C 
ENDBRANCH   4   9
ENDBRANCH  18  10
TORSDOF 7
ENDMDL
MODEL 8
REMARK VINA RESULT:      -6.1     26.582     29.722
REMARK  Name = 45783418
REMARK  9 active torsions:
REMARK  status: ('A' for Active; 'I' for Inactive)
REMARK    1  A    between atoms: O_2  and  C_22
REMARK    2  A    between atoms: O_2  and  C_26
REMARK    3  A    between atoms: O_3  and  C_27
REMARK    4  A    between atoms: O_3  and  C_28
REMARK    5  A    between atoms: N_4  and  C_9
REMARK    6  A    between atoms: N_5  and  C_19
REMARK    7  A    between atoms: C_10  and  C_18
REMARK    8  A    between atoms: C_20  and  C_21
REMARK    9  A    between atoms: C_26  and  C_27
REMARK                            x       y       z     vdW  Elec       q    Type
REMARK                         _______ _______ _______ _____ _____    ______ ____
ROOT
ATOM      1  O   UNL     1      -5.747 -12.088  14.872  0.00  0.00    -0.336 OA
ATOM      6  N   UNL     1      -5.142  -9.955  14.547  0.00  0.00    -0.190 NA
ATOM      7  N   UNL     1      -5.483 -11.962  13.503  0.00  0.00    -0.056 NA
ATOM     18  C   UNL     1      -5.523 -10.861  15.412  0.00  0.00    +0.245 A 
ATOM     20  C   UNL     1      -5.132 -10.677  13.389  0.00  0.00    +0.207 A 
ENDROOT
BRANCH  20  21
ATOM      8  N   UNL     1      -3.313 -10.017  10.204  0.00  0.00    -0.221 NA
ATOM     21  C   UNL     1      -4.768 -10.085  12.135  0.00  0.00    +0.084 A 
ATOM     22  C   UNL     1      -3.692 -10.543  11.391  0.00  0.00    +0.226 A 
ATOM     23  C   UNL     1      -5.502  -9.019  11.629  0.00  0.00    +0.018 A 
ATOM     24  C   UNL     1      -5.143  -8.450  10.412  0.00  0.00    +0.021 A 
ATOM     25  C   UNL     1      -4.051  -8.980   9.745  0.00  0.00    +0.114 A 
BRANCH  22   2
ATOM      2  O   UNL     1      -2.937 -11.593  11.847  0.00  0.00    -0.474 OA
BRANCH   2  26
ATOM     26  C   UNL     1      -1.825 -11.269  12.672  0.00  0.00    +0.258 C 
BRANCH  26  27
ATOM     27  C   UNL     1      -1.722 -12.293  13.786  0.00  0.00    +0.200 C 
BRANCH  27   3
ATOM      3  O   UNL     1      -2.148 -11.697  15.006  0.00  0.00    -0.380 OA
ATOM     28  C   UNL     1      -1.474 -10.471  15.249  0.00  0.00    +0.194 C 
ENDBRANCH  27   3
ENDBRANCH  26  27
ENDBRANCH   2  26
ENDBRANCH  22   2
ENDBRANCH  20  21
BRANCH  18  10
ATOM      4  N   UNL     1      -6.733 -11.696  17.420  0.00  0.00    -0.288 NA
ATOM     10  C   UNL     1      -5.741 -10.731  16.905  0.00  0.00    +0.146 C 
ATOM     11  C   UNL     1      -6.359 -11.973  18.807  0.00  0.00    +0.085 C 
ATOM     14  C   UNL     1      -4.465 -11.010  17.719  0.00  0.00    +0.030 C 
ATOM     15  C   UNL     1      -4.853 -12.102  18.706  0.00  0.00    +0.017 C 
BRANCH   4   9
ATOM      5  N   UNL     1     -10.455  -9.971  18.533  0.00  0.00    -0.305 NA
ATOM      9  C   UNL     1      -8.111 -11.223  17.306  0.00  0.00    +0.060 C 
ATOM     12  C   UNL     1      -8.180  -9.720  17.589  0.00  0.00    +0.034 C 
ATOM     13  C   UNL     1      -9.031 -11.979  18.269  0.00  0.00    +0.034 C 
ATOM     16  C   UNL     1      -9.628  -9.225  17.574  0.00  0.00    +0.085 C 
ATOM     17  C   UNL     1     -10.451 -11.410  18.231  0.00  0.00    +0.085 C 
ATOM     19  C   UNL     1     -11.822  -9.453  18.541  0.00  0.00    +0.104 C 
ENDBRANCH   4   9
ENDBRANCH  18  10
TORSDOF 7
ENDMDL
MODEL 9
REMARK VINA RESULT:      -6.1     27.325     29.889
REMARK  Name = 45783418
REMARK  9 active torsions:
REMARK  status: ('A' for Active; 'I' for Inactive)
REMARK    1  A    between atoms: O_2  and  C_22
REMARK    2  A    between atoms: O_2  and  C_26
REMARK    3  A    between atoms: O_3  and  C_27
REMARK    4  A    between atoms: O_3  and  C_28
REMARK    5  A    between atoms: N_4  and  C_9
REMARK    6  A    between atoms: N_5  and  C_19
REMARK    7  A    between atoms: C_10  and  C_18
REMARK    8  A    between atoms: C_20  and  C_21
REMARK    9  A    between atoms: C_26  and  C_27
REMARK                            x       y       z     vdW  Elec       q    Type
REMARK                         _______ _______ _______ _____ _____    ______ ____
ROOT
ATOM      1  O   UNL     1      -5.031 -12.113  16.392  0.00  0.00    -0.336 OA
ATOM      6  N   UNL     1      -4.929 -10.062  15.499  0.00  0.00    -0.190 NA
ATOM      7  N   UNL     1      -4.340 -12.249  15.182  0.00  0.00    -0.056 NA
ATOM     18  C   UNL     1      -5.341 -10.795  16.502  0.00  0.00    +0.245 A 
ATOM     20  C   UNL     1      -4.320 -10.998  14.714  0.00  0.00    +0.207 A 
ENDROOT
BRANCH  20  21
ATOM      8  N   UNL     1      -3.907 -10.033  11.139  0.00  0.00    -0.221 NA
ATOM     21  C   UNL     1      -3.702 -10.650  13.468  0.00  0.00    +0.084 A 
ATOM     22  C   UNL     1      -4.445 -10.365  12.333  0.00  0.00    +0.226 A 
ATOM     23  C   UNL     1      -2.317 -10.590  13.369  0.00  0.00    +0.018 A 
ATOM     24  C   UNL     1      -1.725 -10.253  12.158  0.00  0.00    +0.021 A 
ATOM     25  C   UNL     1      -2.557  -9.986  11.082  0.00  0.00    +0.114 A 
BRANCH  22   2
ATOM      2  O   UNL     1      -5.815 -10.411  12.379  0.00  0.00    -0.474 OA
BRANCH   2  26
ATOM     26  C   UNL     1      -6.500  -9.168  12.277  0.00  0.00    +0.258 C 
BRANCH  26  27
ATOM     27  C   UNL     1      -7.459  -9.227  11.104  0.00  0.00    +0.200 C 
BRANCH  27   3
ATOM      3  O   UNL     1      -6.855  -8.598   9.979  0.00  0.00    -0.380 OA
ATOM     28  C   UNL     1      -6.725  -9.497   8.888  0.00  0.00    +0.194 C 
ENDBRANCH  27   3
ENDBRANCH  26  27
ENDBRANCH   2  26
ENDBRANCH  22   2
ENDBRANCH  20  21
BRANCH  18  10
ATOM      4  N   UNL     1      -7.554 -10.623  17.627  0.00  0.00    -0.288 NA
ATOM     10  C   UNL     1      -6.102 -10.381  17.744  0.00  0.00    +0.146 C 
ATOM     11  C   UNL     1      -8.042 -10.873  18.984  0.00  0.00    +0.085 C 
ATOM     14  C   UNL     1      -5.673 -11.172  18.994  0.00  0.00    +0.030 C 
ATOM     15  C   UNL     1      -6.959 -11.771  19.546  0.00  0.00    +0.017 C 
BRANCH   4   9
ATOM      5  N   UNL     1     -10.739  -8.468  15.817  0.00  0.00    -0.305 NA
ATOM      9  C   UNL     1      -8.270  -9.527  16.980  0.00  0.00    +0.060 C 
ATOM     12  C   UNL     1      -9.456  -9.085  17.842  0.00  0.00    +0.034 C 
ATOM     13  C   UNL     1      -8.761  -9.940  15.588  0.00  0.00    +0.034 C 
ATOM     16  C   UNL     1     -10.277  -8.005  17.133  0.00  0.00    +0.085 C 
ATOM     17  C   UNL     1      -9.605  -8.832  14.954  0.00  0.00    +0.085 C 
ATOM     19  C   UNL     1     -11.563  -7.445  15.175  0.00  0.00    +0.104 C 
ENDBRANCH   4   9
ENDBRANCH  18  10
TORSDOF 7
ENDMDL
MODEL 10
REMARK VINA RESULT:      -6.0     16.254     20.133
REMARK  Name = 45783418
REMARK  9 active torsions:
REMARK  status: ('A' for Active; 'I' for Inactive)
REMARK    1  A    between atoms: O_2  and  C_22
REMARK    2  A    between atoms: O_2  and  C_26
REMARK    3  A    between atoms: O_3  and  C_27
REMARK    4  A    between atoms: O_3  and  C_28
REMARK    5  A    between atoms: N_4  and  C_9
REMARK    6  A    between atoms: N_5  and  C_19
REMARK    7  A    between atoms: C_10  and  C_18
REMARK    8  A    between atoms: C_20  and  C_21
REMARK    9  A    between atoms: C_26  and  C_27
REMARK                            x       y       z     vdW  Elec       q    Type
REMARK                         _______ _______ _______ _____ _____    ______ ____
ROOT
ATOM      1  O   UNL     1      11.221   3.347   3.006  0.00  0.00    -0.336 OA
ATOM      6  N   UNL     1      11.730   5.445   2.406  0.00  0.00    -0.190 NA
ATOM      7  N   UNL     1      10.468   4.184   3.839  0.00  0.00    -0.056 NA
ATOM     18  C   UNL     1      11.936   4.170   2.194  0.00  0.00    +0.245 A 
ATOM     20  C   UNL     1      10.822   5.404   3.425  0.00  0.00    +0.207 A 
ENDROOT
BRANCH  20  21
ATOM      8  N   UNL     1      10.310   8.247   5.779  0.00  0.00    -0.221 NA
ATOM     21  C   UNL     1      10.289   6.601   4.007  0.00  0.00    +0.084 A 
ATOM     22  C   UNL     1      10.780   7.123   5.194  0.00  0.00    +0.226 A 
ATOM     23  C   UNL     1       9.248   7.277   3.381  0.00  0.00    +0.018 A 
ATOM     24  C   UNL     1       8.737   8.437   3.952  0.00  0.00    +0.021 A 
ATOM     25  C   UNL     1       9.296   8.876   5.141  0.00  0.00    +0.114 A 
BRANCH  22   2
ATOM      2  O   UNL     1      11.806   6.493   5.849  0.00  0.00    -0.474 OA
BRANCH   2  26
ATOM     26  C   UNL     1      12.875   7.315   6.302  0.00  0.00    +0.258 C 
BRANCH  26  27
ATOM     27  C   UNL     1      13.843   7.542   5.157  0.00  0.00    +0.200 C 
BRANCH  27   3
ATOM      3  O   UNL     1      15.155   7.185   5.580  0.00  0.00    -0.380 OA
ATOM     28  C   UNL     1      15.863   8.309   6.082  0.00  0.00    +0.194 C 
ENDBRANCH  27   3
ENDBRANCH  26  27
ENDBRANCH   2  26
ENDBRANCH  22   2
ENDBRANCH  20  21
BRANCH  18  10
ATOM      4  N   UNL     1      12.807   4.156  -0.137  0.00  0.00    -0.288 NA
ATOM     10  C   UNL     1      12.844   3.499   1.185  0.00  0.00    +0.146 C 
ATOM     11  C   UNL     1      14.119   3.936  -0.745  0.00  0.00    +0.085 C 
ATOM     14  C   UNL     1      14.326   3.539   1.600  0.00  0.00    +0.030 C 
ATOM     15  C   UNL     1      15.052   4.179   0.424  0.00  0.00    +0.017 C 
BRANCH   4   9
ATOM      5  N   UNL     1      10.621   3.239  -3.665  0.00  0.00    -0.305 NA
ATOM      9  C   UNL     1      11.720   3.677  -0.988  0.00  0.00    +0.060 C 
ATOM     12  C   UNL     1      12.217   2.554  -1.901  0.00  0.00    +0.034 C 
ATOM     13  C   UNL     1      11.141   4.818  -1.831  0.00  0.00    +0.034 C 
ATOM     16  C   UNL     1      11.119   2.108  -2.870  0.00  0.00    +0.085 C 
ATOM     17  C   UNL     1      10.078   4.298  -2.801  0.00  0.00    +0.085 C 
ATOM     19  C   UNL     1       9.609   2.788  -4.619  0.00  0.00    +0.104 C 
ENDBRANCH   4   9
ENDBRANCH  18  10
TORSDOF 7
ENDMDL
