MODEL 1
REMARK VINA RESULT:      -7.0      0.000      0.000
REMARK  Name = 40779519
REMARK  10 active torsions:
REMARK  status: ('A' for Active; 'I' for Inactive)
REMARK    1  A    between atoms: O_3  and  C_27
REMARK    2  A    between atoms: O_3  and  C_32
REMARK    3  A    between atoms: O_4  and  C_29
REMARK    4  A    between atoms: O_4  and  C_33
REMARK    5  A    between atoms: N_6  and  C_20
REMARK    6  A    between atoms: N_7  and  C_17
REMARK    7  A    between atoms: C_10  and  C_16
REMARK    8  A    between atoms: C_11  and  C_17
REMARK    9  A    between atoms: C_19  and  C_22
REMARK   10  A    between atoms: C_21  and  C_23
REMARK                            x       y       z     vdW  Elec       q    Type
REMARK                         _______ _______ _______ _____ _____    ______ ____
ROOT
ATOM      5  N   UNL     1      11.026   7.528  20.941  0.00  0.00    -0.297 NA
ATOM      9  C   UNL     1      12.270   9.538  22.035  0.00  0.00    +0.002 C 
ATOM     10  C   UNL     1      11.729   9.931  20.633  0.00  0.00    +0.055 C 
ATOM     11  C   UNL     1      12.358   7.092  21.438  0.00  0.00    +0.074 C 
ATOM     12  C   UNL     1      13.190   8.306  21.900  0.00  0.00    +0.024 C 
ATOM     13  C   UNL     1      11.050   9.103  22.876  0.00  0.00    +0.019 C 
ATOM     14  C   UNL     1      11.184   8.636  19.966  0.00  0.00    +0.094 C 
ATOM     15  C   UNL     1      10.254   8.038  22.100  0.00  0.00    +0.085 C 
ENDROOT
BRANCH  10  16
ATOM      6  N   UNL     1      12.836  12.063  19.812  0.00  0.00    -0.270 N 
ATOM      8  N   UNL     1      13.681  12.566  18.896  0.00  0.00    -0.171 NA
ATOM     16  C   UNL     1      12.644  10.716  19.704  0.00  0.00    +0.044 A 
ATOM     18  C   UNL     1      13.417  10.311  18.643  0.00  0.00    +0.053 A 
ATOM     19  C   UNL     1      14.033  11.491  18.185  0.00  0.00    +0.093 A 
ATOM     20  C   UNL     1      12.234  12.949  20.780  0.00  0.00    +0.172 C 
BRANCH  19  22
ATOM     22  C   UNL     1      14.949  11.612  17.081  0.00  0.00    +0.006 A 
ATOM     24  C   UNL     1      16.012  12.512  17.154  0.00  0.00    +0.059 A 
ATOM     25  C   UNL     1      14.773  10.831  15.939  0.00  0.00    +0.014 A 
ATOM     27  C   UNL     1      16.900  12.630  16.084  0.00  0.00    +0.162 A 
ATOM     28  C   UNL     1      15.662  10.949  14.870  0.00  0.00    +0.050 A 
ATOM     29  C   UNL     1      16.724  11.849  14.941  0.00  0.00    +0.162 A 
BRANCH  27   3
ATOM      3  O   UNL     1      17.934  13.513  16.166  0.00  0.00    -0.491 OA
ATOM     32  C   UNL     1      18.594  13.623  17.426  0.00  0.00    +0.277 C 
ENDBRANCH  27   3
BRANCH  29   4
ATOM      4  O   UNL     1      17.585  11.955  13.892  0.00  0.00    -0.491 OA
ATOM     33  C   UNL     1      17.123  12.667  12.745  0.00  0.00    +0.277 C 
ENDBRANCH  29   4
ENDBRANCH  19  22
ENDBRANCH  10  16
BRANCH  11  17
ATOM     17  C   UNL     1      13.111   6.240  20.414  0.00  0.00    +0.123 C 
BRANCH  17   7
ATOM      1  O   UNL     1      15.192   7.016  18.594  0.00  0.00    -0.267 OA
ATOM      7  N   UNL     1      14.517   6.249  20.678  0.00  0.00    -0.307 N 
ATOM     21  C   UNL     1      15.462   6.642  19.732  0.00  0.00    +0.279 C 
ATOM     34  H   UNL     1      14.836   5.919  21.584  0.00  0.00    +0.149 HD
BRANCH  21  23
ATOM      2  O   UNL     1      17.239   7.198  21.306  0.00  0.00    -0.458 OA
ATOM     23  C   UNL     1      16.885   6.570  20.154  0.00  0.00    +0.189 A 
ATOM     26  C   UNL     1      17.976   5.960  19.581  0.00  0.00    +0.054 A 
ATOM     30  C   UNL     1      19.071   6.229  20.435  0.00  0.00    +0.042 A 
ATOM     31  C   UNL     1      18.572   6.985  21.470  0.00  0.00    +0.196 A 
ENDBRANCH  21  23
ENDBRANCH  17   7
ENDBRANCH  11  17
TORSDOF 7
ENDMDL
MODEL 2
REMARK VINA RESULT:      -6.7     26.931     29.614
REMARK  Name = 40779519
REMARK  10 active torsions:
REMARK  status: ('A' for Active; 'I' for Inactive)
REMARK    1  A    between atoms: O_3  and  C_27
REMARK    2  A    between atoms: O_3  and  C_32
REMARK    3  A    between atoms: O_4  and  C_29
REMARK    4  A    between atoms: O_4  and  C_33
REMARK    5  A    between atoms: N_6  and  C_20
REMARK    6  A    between atoms: N_7  and  C_17
REMARK    7  A    between atoms: C_10  and  C_16
REMARK    8  A    between atoms: C_11  and  C_17
REMARK    9  A    between atoms: C_19  and  C_22
REMARK   10  A    between atoms: C_21  and  C_23
REMARK                            x       y       z     vdW  Elec       q    Type
REMARK                         _______ _______ _______ _____ _____    ______ ____
ROOT
ATOM      5  N   UNL     1      -5.403 -10.327  18.153  0.00  0.00    -0.297 NA
ATOM      9  C   UNL     1      -4.983 -12.394  16.624  0.00  0.00    +0.002 C 
ATOM     10  C   UNL     1      -3.938 -11.281  16.333  0.00  0.00    +0.055 C 
ATOM     11  C   UNL     1      -6.670 -10.738  17.493  0.00  0.00    +0.074 C 
ATOM     12  C   UNL     1      -6.403 -11.824  16.429  0.00  0.00    +0.024 C 
ATOM     13  C   UNL     1      -4.840 -12.758  18.117  0.00  0.00    +0.019 C 
ATOM     14  C   UNL     1      -4.373 -10.017  17.130  0.00  0.00    +0.094 C 
ATOM     15  C   UNL     1      -4.921 -11.473  18.962  0.00  0.00    +0.085 C 
ENDROOT
BRANCH  10  16
ATOM      6  N   UNL     1      -2.365 -10.603  14.459  0.00  0.00    -0.270 N 
ATOM      8  N   UNL     1      -2.286 -10.364  13.140  0.00  0.00    -0.171 NA
ATOM     16  C   UNL     1      -3.612 -10.963  14.881  0.00  0.00    +0.044 A 
ATOM     18  C   UNL     1      -4.403 -10.958  13.758  0.00  0.00    +0.053 A 
ATOM     19  C   UNL     1      -3.534 -10.583  12.716  0.00  0.00    +0.093 A 
ATOM     20  C   UNL     1      -1.182 -10.462  15.275  0.00  0.00    +0.172 C 
BRANCH  19  22
ATOM     22  C   UNL     1      -3.873 -10.428  11.326  0.00  0.00    +0.006 A 
ATOM     24  C   UNL     1      -4.318 -11.525  10.590  0.00  0.00    +0.059 A 
ATOM     25  C   UNL     1      -3.754  -9.180  10.713  0.00  0.00    +0.014 A 
ATOM     27  C   UNL     1      -4.646 -11.375   9.242  0.00  0.00    +0.162 A 
ATOM     28  C   UNL     1      -4.083  -9.030   9.366  0.00  0.00    +0.050 A 
ATOM     29  C   UNL     1      -4.527 -10.128   8.630  0.00  0.00    +0.162 A 
BRANCH  27   3
ATOM      3  O   UNL     1      -5.080 -12.455   8.534  0.00  0.00    -0.491 OA
ATOM     32  C   UNL     1      -4.083 -13.345   8.032  0.00  0.00    +0.277 C 
ENDBRANCH  27   3
BRANCH  29   4
ATOM      4  O   UNL     1      -4.845  -9.969   7.315  0.00  0.00    -0.491 OA
ATOM     33  C   UNL     1      -6.173  -9.547   7.016  0.00  0.00    +0.277 C 
ENDBRANCH  29   4
ENDBRANCH  19  22
ENDBRANCH  10  16
BRANCH  11  17
ATOM     17  C   UNL     1      -7.436  -9.547  16.912  0.00  0.00    +0.123 C 
BRANCH  17   7
ATOM      1  O   UNL     1      -9.706  -9.503  15.153  0.00  0.00    -0.267 OA
ATOM      7  N   UNL     1      -7.409  -9.571  15.482  0.00  0.00    -0.307 N 
ATOM     21  C   UNL     1      -8.565  -9.547  14.702  0.00  0.00    +0.279 C 
ATOM     34  H   UNL     1      -6.507  -9.645  15.021  0.00  0.00    +0.149 HD
BRANCH  21  23
ATOM      2  O   UNL     1      -9.456  -9.836  12.452  0.00  0.00    -0.458 OA
ATOM     23  C   UNL     1      -8.367  -9.604  13.230  0.00  0.00    +0.189 A 
ATOM     26  C   UNL     1      -7.240  -9.459  12.455  0.00  0.00    +0.054 A 
ATOM     30  C   UNL     1      -7.664  -9.611  11.114  0.00  0.00    +0.042 A 
ATOM     31  C   UNL     1      -9.019  -9.838  11.165  0.00  0.00    +0.196 A 
ENDBRANCH  21  23
ENDBRANCH  17   7
ENDBRANCH  11  17
TORSDOF 7
ENDMDL
MODEL 3
REMARK VINA RESULT:      -6.7     26.942     29.685
REMARK  Name = 40779519
REMARK  10 active torsions:
REMARK  status: ('A' for Active; 'I' for Inactive)
REMARK    1  A    between atoms: O_3  and  C_27
REMARK    2  A    between atoms: O_3  and  C_32
REMARK    3  A    between atoms: O_4  and  C_29
REMARK    4  A    between atoms: O_4  and  C_33
REMARK    5  A    between atoms: N_6  and  C_20
REMARK    6  A    between atoms: N_7  and  C_17
REMARK    7  A    between atoms: C_10  and  C_16
REMARK    8  A    between atoms: C_11  and  C_17
REMARK    9  A    between atoms: C_19  and  C_22
REMARK   10  A    between atoms: C_21  and  C_23
REMARK                            x       y       z     vdW  Elec       q    Type
REMARK                         _______ _______ _______ _____ _____    ______ ____
ROOT
ATOM      5  N   UNL     1      -6.632 -10.566  18.130  0.00  0.00    -0.297 NA
ATOM      9  C   UNL     1      -4.556 -12.061  17.639  0.00  0.00    +0.002 C 
ATOM     10  C   UNL     1      -4.436 -10.702  16.895  0.00  0.00    +0.055 C 
ATOM     11  C   UNL     1      -7.071 -11.924  17.714  0.00  0.00    +0.074 C 
ATOM     12  C   UNL     1      -5.869 -12.757  17.220  0.00  0.00    +0.024 C 
ATOM     13  C   UNL     1      -4.675 -11.735  19.143  0.00  0.00    +0.019 C 
ATOM     14  C   UNL     1      -5.790  -9.955  17.071  0.00  0.00    +0.094 C 
ATOM     15  C   UNL     1      -5.805 -10.711  19.353  0.00  0.00    +0.085 C 
ENDROOT
BRANCH  10  16
ATOM      6  N   UNL     1      -2.652 -10.678  15.089  0.00  0.00    -0.270 N 
ATOM      8  N   UNL     1      -2.450 -10.696  13.761  0.00  0.00    -0.171 NA
ATOM     16  C   UNL     1      -3.968 -10.714  15.447  0.00  0.00    +0.044 A 
ATOM     18  C   UNL     1      -4.676 -10.756  14.269  0.00  0.00    +0.053 A 
ATOM     19  C   UNL     1      -3.689 -10.744  13.266  0.00  0.00    +0.093 A 
ATOM     20  C   UNL     1      -1.514 -10.624  15.977  0.00  0.00    +0.172 C 
BRANCH  19  22
ATOM     22  C   UNL     1      -3.908 -10.775  11.843  0.00  0.00    +0.006 A 
ATOM     24  C   UNL     1      -4.397  -9.646  11.188  0.00  0.00    +0.059 A 
ATOM     25  C   UNL     1      -3.630 -11.935  11.120  0.00  0.00    +0.014 A 
ATOM     27  C   UNL     1      -4.610  -9.676   9.809  0.00  0.00    +0.162 A 
ATOM     28  C   UNL     1      -3.842 -11.965   9.741  0.00  0.00    +0.050 A 
ATOM     29  C   UNL     1      -4.332 -10.836   9.086  0.00  0.00    +0.162 A 
BRANCH  27   3
ATOM      3  O   UNL     1      -5.089  -8.567   9.180  0.00  0.00    -0.491 OA
ATOM     32  C   UNL     1      -6.495  -8.336   9.256  0.00  0.00    +0.277 C 
ENDBRANCH  27   3
BRANCH  29   4
ATOM      4  O   UNL     1      -4.535 -10.878   7.740  0.00  0.00    -0.491 OA
ATOM     33  C   UNL     1      -5.689 -11.578   7.280  0.00  0.00    +0.277 C 
ENDBRANCH  29   4
ENDBRANCH  19  22
ENDBRANCH  10  16
BRANCH  11  17
ATOM     17  C   UNL     1      -8.197 -11.880  16.679  0.00  0.00    +0.123 C 
BRANCH  17   7
ATOM      1  O   UNL     1      -8.773 -10.042  14.549  0.00  0.00    -0.267 OA
ATOM      7  N   UNL     1      -8.936 -10.659  16.781  0.00  0.00    -0.307 N 
ATOM     21  C   UNL     1      -9.170  -9.822  15.690  0.00  0.00    +0.279 C 
ATOM     34  H   UNL     1      -9.272 -10.377  17.697  0.00  0.00    +0.149 HD
BRANCH  21  23
ATOM      2  O   UNL     1     -10.425  -7.884  14.907  0.00  0.00    -0.458 OA
ATOM     23  C   UNL     1      -9.933  -8.577  15.967  0.00  0.00    +0.189 A 
ATOM     26  C   UNL     1     -10.260  -7.952  17.147  0.00  0.00    +0.054 A 
ATOM     30  C   UNL     1     -11.001  -6.801  16.790  0.00  0.00    +0.042 A 
ATOM     31  C   UNL     1     -11.074  -6.805  15.416  0.00  0.00    +0.196 A 
ENDBRANCH  21  23
ENDBRANCH  17   7
ENDBRANCH  11  17
TORSDOF 7
ENDMDL
MODEL 4
REMARK VINA RESULT:      -6.6     13.639     16.669
REMARK  Name = 40779519
REMARK  10 active torsions:
REMARK  status: ('A' for Active; 'I' for Inactive)
REMARK    1  A    between atoms: O_3  and  C_27
REMARK    2  A    between atoms: O_3  and  C_32
REMARK    3  A    between atoms: O_4  and  C_29
REMARK    4  A    between atoms: O_4  and  C_33
REMARK    5  A    between atoms: N_6  and  C_20
REMARK    6  A    between atoms: N_7  and  C_17
REMARK    7  A    between atoms: C_10  and  C_16
REMARK    8  A    between atoms: C_11  and  C_17
REMARK    9  A    between atoms: C_19  and  C_22
REMARK   10  A    between atoms: C_21  and  C_23
REMARK                            x       y       z     vdW  Elec       q    Type
REMARK                         _______ _______ _______ _____ _____    ______ ____
ROOT
ATOM      5  N   UNL     1      10.496   5.695   7.994  0.00  0.00    -0.297 NA
ATOM      9  C   UNL     1       9.490   7.558   6.478  0.00  0.00    +0.002 C 
ATOM     10  C   UNL     1       9.355   6.170   5.795  0.00  0.00    +0.055 C 
ATOM     11  C   UNL     1      11.465   6.814   7.853  0.00  0.00    +0.074 C 
ATOM     12  C   UNL     1      10.975   7.828   6.798  0.00  0.00    +0.024 C 
ATOM     13  C   UNL     1       8.745   7.464   7.828  0.00  0.00    +0.019 C 
ATOM     14  C   UNL     1      10.151   5.149   6.658  0.00  0.00    +0.094 C 
ATOM     15  C   UNL     1       9.260   6.239   8.605  0.00  0.00    +0.085 C 
ENDROOT
BRANCH  10  16
ATOM      6  N   UNL     1       9.197   6.915   3.373  0.00  0.00    -0.270 N 
ATOM      8  N   UNL     1       9.616   6.650   2.125  0.00  0.00    -0.171 NA
ATOM     16  C   UNL     1       9.693   6.061   4.315  0.00  0.00    +0.044 A 
ATOM     18  C   UNL     1      10.491   5.175   3.633  0.00  0.00    +0.053 A 
ATOM     19  C   UNL     1      10.406   5.585   2.290  0.00  0.00    +0.093 A 
ATOM     20  C   UNL     1       8.301   8.026   3.597  0.00  0.00    +0.172 C 
BRANCH  19  22
ATOM     22  C   UNL     1      11.063   4.981   1.161  0.00  0.00    +0.006 A 
ATOM     24  C   UNL     1      12.371   4.512   1.285  0.00  0.00    +0.059 A 
ATOM     25  C   UNL     1      10.394   4.864  -0.057  0.00  0.00    +0.014 A 
ATOM     27  C   UNL     1      13.009   3.927   0.191  0.00  0.00    +0.162 A 
ATOM     28  C   UNL     1      11.031   4.277  -1.151  0.00  0.00    +0.050 A 
ATOM     29  C   UNL     1      12.339   3.810  -1.027  0.00  0.00    +0.162 A 
BRANCH  27   3
ATOM      3  O   UNL     1      14.287   3.473   0.323  0.00  0.00    -0.491 OA
ATOM     32  C   UNL     1      14.929   3.702   1.577  0.00  0.00    +0.277 C 
ENDBRANCH  27   3
BRANCH  29   4
ATOM      4  O   UNL     1      12.951   3.240  -2.102  0.00  0.00    -0.491 OA
ATOM     33  C   UNL     1      13.545   4.121  -3.052  0.00  0.00    +0.277 C 
ENDBRANCH  29   4
ENDBRANCH  19  22
ENDBRANCH  10  16
BRANCH  11  17
ATOM     17  C   UNL     1      12.883   6.323   7.557  0.00  0.00    +0.123 C 
BRANCH  17   7
ATOM      1  O   UNL     1      15.261   7.581   6.553  0.00  0.00    -0.267 OA
ATOM      7  N   UNL     1      13.222   6.537   6.184  0.00  0.00    -0.307 N 
ATOM     21  C   UNL     1      14.403   7.160   5.783  0.00  0.00    +0.279 C 
ATOM     34  H   UNL     1      12.551   6.254   5.476  0.00  0.00    +0.149 HD
BRANCH  21  23
ATOM      2  O   UNL     1      15.866   7.427   3.851  0.00  0.00    -0.458 OA
ATOM     23  C   UNL     1      14.594   7.331   4.319  0.00  0.00    +0.189 A 
ATOM     26  C   UNL     1      13.690   7.415   3.286  0.00  0.00    +0.054 A 
ATOM     30  C   UNL     1      14.456   7.571   2.107  0.00  0.00    +0.042 A 
ATOM     31  C   UNL     1      15.773   7.573   2.503  0.00  0.00    +0.196 A 
ENDBRANCH  21  23
ENDBRANCH  17   7
ENDBRANCH  11  17
TORSDOF 7
ENDMDL
MODEL 5
REMARK VINA RESULT:      -6.6     27.030     29.815
REMARK  Name = 40779519
REMARK  10 active torsions:
REMARK  status: ('A' for Active; 'I' for Inactive)
REMARK    1  A    between atoms: O_3  and  C_27
REMARK    2  A    between atoms: O_3  and  C_32
REMARK    3  A    between atoms: O_4  and  C_29
REMARK    4  A    between atoms: O_4  and  C_33
REMARK    5  A    between atoms: N_6  and  C_20
REMARK    6  A    between atoms: N_7  and  C_17
REMARK    7  A    between atoms: C_10  and  C_16
REMARK    8  A    between atoms: C_11  and  C_17
REMARK    9  A    between atoms: C_19  and  C_22
REMARK   10  A    between atoms: C_21  and  C_23
REMARK                            x       y       z     vdW  Elec       q    Type
REMARK                         _______ _______ _______ _____ _____    ______ ____
ROOT
ATOM      5  N   UNL     1      -6.514 -10.555  18.192  0.00  0.00    -0.297 NA
ATOM      9  C   UNL     1      -4.548 -12.125  17.516  0.00  0.00    +0.002 C 
ATOM     10  C   UNL     1      -4.380 -10.728  16.856  0.00  0.00    +0.055 C 
ATOM     11  C   UNL     1      -7.046 -11.856  17.708  0.00  0.00    +0.074 C 
ATOM     12  C   UNL     1      -5.913 -12.719  17.111  0.00  0.00    +0.024 C 
ATOM     13  C   UNL     1      -4.588 -11.894  19.042  0.00  0.00    +0.019 C 
ATOM     14  C   UNL     1      -5.681  -9.922  17.138  0.00  0.00    +0.094 C 
ATOM     15  C   UNL     1      -5.649 -10.826  19.365  0.00  0.00    +0.085 C 
ENDROOT
BRANCH  10  16
ATOM      6  N   UNL     1      -2.670 -10.651  14.982  0.00  0.00    -0.270 N 
ATOM      8  N   UNL     1      -2.521 -10.597  13.648  0.00  0.00    -0.171 NA
ATOM     16  C   UNL     1      -3.971 -10.669  15.392  0.00  0.00    +0.044 A 
ATOM     18  C   UNL     1      -4.726 -10.623  14.244  0.00  0.00    +0.053 A 
ATOM     19  C   UNL     1      -3.781 -10.580  13.203  0.00  0.00    +0.093 A 
ATOM     20  C   UNL     1      -1.496 -10.681  15.823  0.00  0.00    +0.172 C 
BRANCH  19  22
ATOM     22  C   UNL     1      -4.057 -10.522  11.791  0.00  0.00    +0.006 A 
ATOM     24  C   UNL     1      -4.806  -9.468  11.270  0.00  0.00    +0.059 A 
ATOM     25  C   UNL     1      -3.575 -11.521  10.944  0.00  0.00    +0.014 A 
ATOM     27  C   UNL     1      -5.074  -9.412   9.902  0.00  0.00    +0.162 A 
ATOM     28  C   UNL     1      -3.843 -11.464   9.576  0.00  0.00    +0.050 A 
ATOM     29  C   UNL     1      -4.593 -10.410   9.055  0.00  0.00    +0.162 A 
BRANCH  27   3
ATOM      3  O   UNL     1      -5.808  -8.378   9.404  0.00  0.00    -0.491 OA
ATOM     32  C   UNL     1      -7.226  -8.471   9.527  0.00  0.00    +0.277 C 
ENDBRANCH  27   3
BRANCH  29   4
ATOM      4  O   UNL     1      -4.847 -10.366   7.718  0.00  0.00    -0.491 OA
ATOM     33  C   UNL     1      -5.854 -11.246   7.221  0.00  0.00    +0.277 C 
ENDBRANCH  29   4
ENDBRANCH  19  22
ENDBRANCH  10  16
BRANCH  11  17
ATOM     17  C   UNL     1      -8.208 -11.682  16.727  0.00  0.00    +0.123 C 
BRANCH  17   7
ATOM      1  O   UNL     1      -9.032 -10.429  14.279  0.00  0.00    -0.267 OA
ATOM      7  N   UNL     1      -7.818 -12.057  15.403  0.00  0.00    -0.307 N 
ATOM     21  C   UNL     1      -8.269 -11.391  14.264  0.00  0.00    +0.279 C 
ATOM     34  H   UNL     1      -7.216 -12.867  15.292  0.00  0.00    +0.149 HD
BRANCH  21  23
ATOM      2  O   UNL     1      -7.033 -13.047  12.970  0.00  0.00    -0.458 OA
ATOM     23  C   UNL     1      -7.792 -11.920  12.960  0.00  0.00    +0.189 A 
ATOM     26  C   UNL     1      -7.976 -11.473  11.672  0.00  0.00    +0.054 A 
ATOM     30  C   UNL     1      -7.288 -12.384  10.837  0.00  0.00    +0.042 A 
ATOM     31  C   UNL     1      -6.730 -13.323  11.674  0.00  0.00    +0.196 A 
ENDBRANCH  21  23
ENDBRANCH  17   7
ENDBRANCH  11  17
TORSDOF 7
ENDMDL
MODEL 6
REMARK VINA RESULT:      -6.6     27.231     32.103
REMARK  Name = 40779519
REMARK  10 active torsions:
REMARK  status: ('A' for Active; 'I' for Inactive)
REMARK    1  A    between atoms: O_3  and  C_27
REMARK    2  A    between atoms: O_3  and  C_32
REMARK    3  A    between atoms: O_4  and  C_29
REMARK    4  A    between atoms: O_4  and  C_33
REMARK    5  A    between atoms: N_6  and  C_20
REMARK    6  A    between atoms: N_7  and  C_17
REMARK    7  A    between atoms: C_10  and  C_16
REMARK    8  A    between atoms: C_11  and  C_17
REMARK    9  A    between atoms: C_19  and  C_22
REMARK   10  A    between atoms: C_21  and  C_23
REMARK                            x       y       z     vdW  Elec       q    Type
REMARK                         _______ _______ _______ _____ _____    ______ ____
ROOT
ATOM      5  N   UNL     1     -16.564   5.764  22.697  0.00  0.00    -0.297 NA
ATOM      9  C   UNL     1     -17.409   3.640  23.946  0.00  0.00    +0.002 C 
ATOM     10  C   UNL     1     -17.613   4.905  24.825  0.00  0.00    +0.055 C 
ATOM     11  C   UNL     1     -15.523   4.703  22.658  0.00  0.00    +0.074 C 
ATOM     12  C   UNL     1     -15.919   3.518  23.565  0.00  0.00    +0.024 C 
ATOM     13  C   UNL     1     -18.195   3.876  22.638  0.00  0.00    +0.019 C 
ATOM     14  C   UNL     1     -16.907   6.089  24.104  0.00  0.00    +0.094 C 
ATOM     15  C   UNL     1     -17.780   5.231  22.035  0.00  0.00    +0.085 C 
ENDROOT
BRANCH  10  16
ATOM      6  N   UNL     1     -17.759   5.662  27.243  0.00  0.00    -0.270 N 
ATOM      8  N   UNL     1     -17.305   5.425  28.485  0.00  0.00    -0.171 NA
ATOM     16  C   UNL     1     -17.243   4.824  26.299  0.00  0.00    +0.044 A 
ATOM     18  C   UNL     1     -16.390   3.982  26.970  0.00  0.00    +0.053 A 
ATOM     19  C   UNL     1     -16.468   4.398  28.312  0.00  0.00    +0.093 A 
ATOM     20  C   UNL     1     -18.706   6.731  27.029  0.00  0.00    +0.172 C 
BRANCH  19  22
ATOM     22  C   UNL     1     -15.760   3.835  29.431  0.00  0.00    +0.006 A 
ATOM     24  C   UNL     1     -14.958   2.708  29.253  0.00  0.00    +0.059 A 
ATOM     25  C   UNL     1     -15.876   4.416  30.694  0.00  0.00    +0.014 A 
ATOM     27  C   UNL     1     -14.272   2.162  30.338  0.00  0.00    +0.162 A 
ATOM     28  C   UNL     1     -15.189   3.870  31.779  0.00  0.00    +0.050 A 
ATOM     29  C   UNL     1     -14.388   2.742  31.602  0.00  0.00    +0.162 A 
BRANCH  27   3
ATOM      3  O   UNL     1     -13.492   1.060  30.152  0.00  0.00    -0.491 OA
ATOM     32  C   UNL     1     -14.160  -0.161  29.838  0.00  0.00    +0.277 C 
ENDBRANCH  27   3
BRANCH  29   4
ATOM      4  O   UNL     1     -13.722   2.218  32.668  0.00  0.00    -0.491 OA
ATOM     33  C   UNL     1     -14.504   1.548  33.654  0.00  0.00    +0.277 C 
ENDBRANCH  29   4
ENDBRANCH  19  22
ENDBRANCH  10  16
BRANCH  11  17
ATOM     17  C   UNL     1     -14.131   5.240  22.997  0.00  0.00    +0.123 C 
BRANCH  17   7
ATOM      1  O   UNL     1     -14.074   7.928  21.990  0.00  0.00    -0.267 OA
ATOM      7  N   UNL     1     -13.459   5.696  21.819  0.00  0.00    -0.307 N 
ATOM     21  C   UNL     1     -13.484   7.026  21.401  0.00  0.00    +0.279 C 
ATOM     34  H   UNL     1     -12.975   5.011  21.248  0.00  0.00    +0.149 HD
BRANCH  21  23
ATOM      2  O   UNL     1     -13.425   8.015  19.173  0.00  0.00    -0.458 OA
ATOM     23  C   UNL     1     -12.758   7.334  20.141  0.00  0.00    +0.189 A 
ATOM     26  C   UNL     1     -11.474   7.053  19.738  0.00  0.00    +0.054 A 
ATOM     30  C   UNL     1     -11.342   7.597  18.438  0.00  0.00    +0.042 A 
ATOM     31  C   UNL     1     -12.556   8.171  18.140  0.00  0.00    +0.196 A 
ENDBRANCH  21  23
ENDBRANCH  17   7
ENDBRANCH  11  17
TORSDOF 7
ENDMDL
MODEL 7
REMARK VINA RESULT:      -6.6     27.834     30.764
REMARK  Name = 40779519
REMARK  10 active torsions:
REMARK  status: ('A' for Active; 'I' for Inactive)
REMARK    1  A    between atoms: O_3  and  C_27
REMARK    2  A    between atoms: O_3  and  C_32
REMARK    3  A    between atoms: O_4  and  C_29
REMARK    4  A    between atoms: O_4  and  C_33
REMARK    5  A    between atoms: N_6  and  C_20
REMARK    6  A    between atoms: N_7  and  C_17
REMARK    7  A    between atoms: C_10  and  C_16
REMARK    8  A    between atoms: C_11  and  C_17
REMARK    9  A    between atoms: C_19  and  C_22
REMARK   10  A    between atoms: C_21  and  C_23
REMARK                            x       y       z     vdW  Elec       q    Type
REMARK                         _______ _______ _______ _____ _____    ______ ____
ROOT
ATOM      5  N   UNL     1      -6.220 -12.633  17.160  0.00  0.00    -0.297 NA
ATOM      9  C   UNL     1      -6.275 -10.278  18.272  0.00  0.00    +0.002 C 
ATOM     10  C   UNL     1      -7.666 -10.962  18.376  0.00  0.00    +0.055 C 
ATOM     11  C   UNL     1      -5.645 -11.621  16.235  0.00  0.00    +0.074 C 
ATOM     12  C   UNL     1      -5.857 -10.195  16.789  0.00  0.00    +0.024 C 
ATOM     13  C   UNL     1      -5.267 -11.212  18.976  0.00  0.00    +0.019 C 
ATOM     14  C   UNL     1      -7.611 -12.261  17.522  0.00  0.00    +0.094 C 
ATOM     15  C   UNL     1      -5.403 -12.633  18.398  0.00  0.00    +0.085 C 
ENDROOT
BRANCH  10  16
ATOM      6  N   UNL     1     -10.015 -10.132  18.863  0.00  0.00    -0.270 N 
ATOM      8  N   UNL     1     -10.996  -9.326  18.424  0.00  0.00    -0.171 NA
ATOM     16  C   UNL     1      -8.902 -10.126  18.075  0.00  0.00    +0.044 A 
ATOM     18  C   UNL     1      -9.175  -9.255  17.048  0.00  0.00    +0.053 A 
ATOM     19  C   UNL     1     -10.477  -8.793  17.315  0.00  0.00    +0.093 A 
ATOM     20  C   UNL     1     -10.218 -10.898  20.071  0.00  0.00    +0.172 C 
BRANCH  19  22
ATOM     22  C   UNL     1     -11.234  -7.853  16.531  0.00  0.00    +0.006 A 
ATOM     24  C   UNL     1     -12.613  -8.011  16.395  0.00  0.00    +0.059 A 
ATOM     25  C   UNL     1     -10.591  -6.785  15.907  0.00  0.00    +0.014 A 
ATOM     27  C   UNL     1     -13.348  -7.101  15.634  0.00  0.00    +0.162 A 
ATOM     28  C   UNL     1     -11.326  -5.874  15.148  0.00  0.00    +0.050 A 
ATOM     29  C   UNL     1     -12.704  -6.032  15.010  0.00  0.00    +0.162 A 
BRANCH  27   3
ATOM      3  O   UNL     1     -14.695  -7.266  15.508  0.00  0.00    -0.491 OA
ATOM     32  C   UNL     1     -15.497  -6.937  16.641  0.00  0.00    +0.277 C 
ENDBRANCH  27   3
BRANCH  29   4
ATOM      4  O   UNL     1     -13.411  -5.137  14.267  0.00  0.00    -0.491 OA
ATOM     33  C   UNL     1     -12.691  -4.406  13.277  0.00  0.00    +0.277 C 
ENDBRANCH  29   4
ENDBRANCH  19  22
ENDBRANCH  10  16
BRANCH  11  17
ATOM     17  C   UNL     1      -6.180 -11.764  14.809  0.00  0.00    +0.123 C 
BRANCH  17   7
ATOM      1  O   UNL     1      -6.411  -9.605  12.930  0.00  0.00    -0.267 OA
ATOM      7  N   UNL     1      -5.199 -11.356  13.852  0.00  0.00    -0.307 N 
ATOM     21  C   UNL     1      -5.395 -10.291  12.973  0.00  0.00    +0.279 C 
ATOM     34  H   UNL     1      -4.338 -11.892  13.790  0.00  0.00    +0.149 HD
BRANCH  21  23
ATOM      2  O   UNL     1      -3.049 -10.474  12.333  0.00  0.00    -0.458 OA
ATOM     23  C   UNL     1      -4.288 -10.011  12.022  0.00  0.00    +0.189 A 
ATOM     26  C   UNL     1      -4.266  -9.340  10.822  0.00  0.00    +0.054 A 
ATOM     30  C   UNL     1      -2.927  -9.394  10.366  0.00  0.00    +0.042 A 
ATOM     31  C   UNL     1      -2.227 -10.094  11.320  0.00  0.00    +0.196 A 
ENDBRANCH  21  23
ENDBRANCH  17   7
ENDBRANCH  11  17
TORSDOF 7
ENDMDL
MODEL 8
REMARK VINA RESULT:      -6.6      4.123      8.188
REMARK  Name = 40779519
REMARK  10 active torsions:
REMARK  status: ('A' for Active; 'I' for Inactive)
REMARK    1  A    between atoms: O_3  and  C_27
REMARK    2  A    between atoms: O_3  and  C_32
REMARK    3  A    between atoms: O_4  and  C_29
REMARK    4  A    between atoms: O_4  and  C_33
REMARK    5  A    between atoms: N_6  and  C_20
REMARK    6  A    between atoms: N_7  and  C_17
REMARK    7  A    between atoms: C_10  and  C_16
REMARK    8  A    between atoms: C_11  and  C_17
REMARK    9  A    between atoms: C_19  and  C_22
REMARK   10  A    between atoms: C_21  and  C_23
REMARK                            x       y       z     vdW  Elec       q    Type
REMARK                         _______ _______ _______ _____ _____    ______ ____
ROOT
ATOM      5  N   UNL     1      12.677   7.451  19.970  0.00  0.00    -0.297 NA
ATOM      9  C   UNL     1      14.627   8.734  18.813  0.00  0.00    +0.002 C 
ATOM     10  C   UNL     1      15.079   7.301  19.211  0.00  0.00    +0.055 C 
ATOM     11  C   UNL     1      12.849   8.788  20.597  0.00  0.00    +0.074 C 
ATOM     12  C   UNL     1      14.125   9.477  20.069  0.00  0.00    +0.024 C 
ATOM     13  C   UNL     1      13.418   8.572  17.867  0.00  0.00    +0.019 C 
ATOM     14  C   UNL     1      13.941   6.677  20.068  0.00  0.00    +0.094 C 
ATOM     15  C   UNL     1      12.372   7.659  18.534  0.00  0.00    +0.085 C 
ENDROOT
BRANCH  10  16
ATOM      6  N   UNL     1      17.400   6.285  19.374  0.00  0.00    -0.270 N 
ATOM      8  N   UNL     1      18.537   6.282  20.089  0.00  0.00    -0.171 NA
ATOM     16  C   UNL     1      16.446   7.133  19.858  0.00  0.00    +0.044 A 
ATOM     18  C   UNL     1      16.999   7.724  20.968  0.00  0.00    +0.053 A 
ATOM     19  C   UNL     1      18.286   7.163  21.062  0.00  0.00    +0.093 A 
ATOM     20  C   UNL     1      17.292   5.432  18.214  0.00  0.00    +0.172 C 
BRANCH  19  22
ATOM     22  C   UNL     1      19.281   7.450  22.062  0.00  0.00    +0.006 A 
ATOM     24  C   UNL     1      20.047   6.417  22.600  0.00  0.00    +0.059 A 
ATOM     25  C   UNL     1      19.478   8.762  22.494  0.00  0.00    +0.014 A 
ATOM     27  C   UNL     1      21.011   6.695  23.570  0.00  0.00    +0.162 A 
ATOM     28  C   UNL     1      20.442   9.040  23.464  0.00  0.00    +0.050 A 
ATOM     29  C   UNL     1      21.208   8.007  24.002  0.00  0.00    +0.162 A 
BRANCH  27   3
ATOM      3  O   UNL     1      21.753   5.677  24.089  0.00  0.00    -0.491 OA
ATOM     32  C   UNL     1      22.329   4.758  23.162  0.00  0.00    +0.277 C 
ENDBRANCH  27   3
BRANCH  29   4
ATOM      4  O   UNL     1      22.145   8.290  24.948  0.00  0.00    -0.491 OA
ATOM     33  C   UNL     1      21.693   8.936  26.136  0.00  0.00    +0.277 C 
ENDBRANCH  29   4
ENDBRANCH  19  22
ENDBRANCH  10  16
BRANCH  11  17
ATOM     17  C   UNL     1      12.828   8.722  22.125  0.00  0.00    +0.123 C 
BRANCH  17   7
ATOM      1  O   UNL     1      13.807  11.175  23.252  0.00  0.00    -0.267 OA
ATOM      7  N   UNL     1      12.041   9.784  22.672  0.00  0.00    -0.307 N 
ATOM     21  C   UNL     1      12.601  10.946  23.201  0.00  0.00    +0.279 C 
ATOM     34  H   UNL     1      11.033   9.666  22.705  0.00  0.00    +0.149 HD
BRANCH  21  23
ATOM      2  O   UNL     1      11.464  11.969  25.100  0.00  0.00    -0.458 OA
ATOM     23  C   UNL     1      11.649  11.944  23.754  0.00  0.00    +0.189 A 
ATOM     26  C   UNL     1      10.874  12.901  23.142  0.00  0.00    +0.054 A 
ATOM     30  C   UNL     1      10.169  13.558  24.178  0.00  0.00    +0.042 A 
ATOM     31  C   UNL     1      10.562  12.954  25.350  0.00  0.00    +0.196 A 
ENDBRANCH  21  23
ENDBRANCH  17   7
ENDBRANCH  11  17
TORSDOF 7
ENDMDL
MODEL 9
REMARK VINA RESULT:      -6.5     27.871     30.271
REMARK  Name = 40779519
REMARK  10 active torsions:
REMARK  status: ('A' for Active; 'I' for Inactive)
REMARK    1  A    between atoms: O_3  and  C_27
REMARK    2  A    between atoms: O_3  and  C_32
REMARK    3  A    between atoms: O_4  and  C_29
REMARK    4  A    between atoms: O_4  and  C_33
REMARK    5  A    between atoms: N_6  and  C_20
REMARK    6  A    between atoms: N_7  and  C_17
REMARK    7  A    between atoms: C_10  and  C_16
REMARK    8  A    between atoms: C_11  and  C_17
REMARK    9  A    between atoms: C_19  and  C_22
REMARK   10  A    between atoms: C_21  and  C_23
REMARK                            x       y       z     vdW  Elec       q    Type
REMARK                         _______ _______ _______ _____ _____    ______ ____
ROOT
ATOM      5  N   UNL     1     -11.913  -9.312  16.847  0.00  0.00    -0.297 NA
ATOM      9  C   UNL     1     -10.269  -7.689  15.643  0.00  0.00    +0.002 C 
ATOM     10  C   UNL     1     -10.390  -9.024  14.855  0.00  0.00    +0.055 C 
ATOM     11  C   UNL     1     -10.917  -8.785  17.817  0.00  0.00    +0.074 C 
ATOM     12  C   UNL     1      -9.815  -7.989  17.087  0.00  0.00    +0.024 C 
ATOM     13  C   UNL     1     -11.691  -7.093  15.728  0.00  0.00    +0.019 C 
ATOM     14  C   UNL     1     -11.219 -10.006  15.732  0.00  0.00    +0.094 C 
ATOM     15  C   UNL     1     -12.654  -8.158  16.284  0.00  0.00    +0.085 C 
ENDROOT
BRANCH  10  16
ATOM      6  N   UNL     1      -8.925  -9.954  13.003  0.00  0.00    -0.270 N 
ATOM      8  N   UNL     1      -7.733 -10.515  12.739  0.00  0.00    -0.171 NA
ATOM     16  C   UNL     1      -9.116  -9.662  14.322  0.00  0.00    +0.044 A 
ATOM     18  C   UNL     1      -7.968 -10.060  14.964  0.00  0.00    +0.053 A 
ATOM     19  C   UNL     1      -7.153 -10.577  13.940  0.00  0.00    +0.093 A 
ATOM     20  C   UNL     1      -9.854  -9.724  11.922  0.00  0.00    +0.172 C 
BRANCH  19  22
ATOM     22  C   UNL     1      -5.832 -11.129  14.087  0.00  0.00    +0.006 A 
ATOM     24  C   UNL     1      -4.728 -10.437  13.592  0.00  0.00    +0.059 A 
ATOM     25  C   UNL     1      -5.656 -12.358  14.724  0.00  0.00    +0.014 A 
ATOM     27  C   UNL     1      -3.447 -10.973  13.733  0.00  0.00    +0.162 A 
ATOM     28  C   UNL     1      -4.375 -12.893  14.867  0.00  0.00    +0.050 A 
ATOM     29  C   UNL     1      -3.271 -12.201  14.370  0.00  0.00    +0.162 A 
BRANCH  27   3
ATOM      3  O   UNL     1      -2.376 -10.287  13.245  0.00  0.00    -0.491 OA
ATOM     32  C   UNL     1      -2.135 -10.376  11.841  0.00  0.00    +0.277 C 
ENDBRANCH  27   3
BRANCH  29   4
ATOM      4  O   UNL     1      -2.026 -12.733  14.515  0.00  0.00    -0.491 OA
ATOM     33  C   UNL     1      -1.704 -13.859  13.700  0.00  0.00    +0.277 C 
ENDBRANCH  29   4
ENDBRANCH  19  22
ENDBRANCH  10  16
BRANCH  11  17
ATOM     17  C   UNL     1     -10.333  -9.883  18.707  0.00  0.00    +0.123 C 
BRANCH  17   7
ATOM      1  O   UNL     1      -8.559 -11.703  20.044  0.00  0.00    -0.267 OA
ATOM      7  N   UNL     1      -8.944 -10.082  18.428  0.00  0.00    -0.307 N 
ATOM     21  C   UNL     1      -8.153 -10.990  19.130  0.00  0.00    +0.279 C 
ATOM     34  H   UNL     1      -8.513  -9.507  17.710  0.00  0.00    +0.149 HD
BRANCH  21  23
ATOM      2  O   UNL     1      -6.255 -10.122  17.869  0.00  0.00    -0.458 OA
ATOM     23  C   UNL     1      -6.722 -11.059  18.735  0.00  0.00    +0.189 A 
ATOM     26  C   UNL     1      -5.719 -11.929  19.093  0.00  0.00    +0.054 A 
ATOM     30  C   UNL     1      -4.561 -11.499  18.403  0.00  0.00    +0.042 A 
ATOM     31  C   UNL     1      -4.939 -10.396  17.672  0.00  0.00    +0.196 A 
ENDBRANCH  21  23
ENDBRANCH  17   7
ENDBRANCH  11  17
TORSDOF 7
ENDMDL
MODEL 10
REMARK VINA RESULT:      -6.4     27.763     30.732
REMARK  Name = 40779519
REMARK  10 active torsions:
REMARK  status: ('A' for Active; 'I' for Inactive)
REMARK    1  A    between atoms: O_3  and  C_27
REMARK    2  A    between atoms: O_3  and  C_32
REMARK    3  A    between atoms: O_4  and  C_29
REMARK    4  A    between atoms: O_4  and  C_33
REMARK    5  A    between atoms: N_6  and  C_20
REMARK    6  A    between atoms: N_7  and  C_17
REMARK    7  A    between atoms: C_10  and  C_16
REMARK    8  A    between atoms: C_11  and  C_17
REMARK    9  A    between atoms: C_19  and  C_22
REMARK   10  A    between atoms: C_21  and  C_23
REMARK                            x       y       z     vdW  Elec       q    Type
REMARK                         _______ _______ _______ _____ _____    ______ ____
ROOT
ATOM      5  N   UNL     1      -5.749 -10.665   9.371  0.00  0.00    -0.297 NA
ATOM      9  C   UNL     1      -4.242  -9.045  10.745  0.00  0.00    +0.002 C 
ATOM     10  C   UNL     1      -4.306 -10.440  11.428  0.00  0.00    +0.055 C 
ATOM     11  C   UNL     1      -6.461  -9.380   9.600  0.00  0.00    +0.074 C 
ATOM     12  C   UNL     1      -5.672  -8.490  10.584  0.00  0.00    +0.024 C 
ATOM     13  C   UNL     1      -3.680  -9.272   9.325  0.00  0.00    +0.019 C 
ATOM     14  C   UNL     1      -5.373 -11.279  10.669  0.00  0.00    +0.094 C 
ATOM     15  C   UNL     1      -4.503 -10.367   8.623  0.00  0.00    +0.085 C 
ENDROOT
BRANCH  10  16
ATOM      6  N   UNL     1      -3.456 -10.544  13.818  0.00  0.00    -0.270 N 
ATOM      8  N   UNL     1      -3.836 -10.586  15.106  0.00  0.00    -0.171 NA
ATOM     16  C   UNL     1      -4.497 -10.492  12.937  0.00  0.00    +0.044 A 
ATOM     18  C   UNL     1      -5.637 -10.502  13.704  0.00  0.00    +0.053 A 
ATOM     19  C   UNL     1      -5.169 -10.560  15.030  0.00  0.00    +0.093 A 
ATOM     20  C   UNL     1      -2.048 -10.559  13.496  0.00  0.00    +0.172 C 
BRANCH  19  22
ATOM     22  C   UNL     1      -5.970 -10.592  16.225  0.00  0.00    +0.006 A 
ATOM     24  C   UNL     1      -6.966  -9.636  16.422  0.00  0.00    +0.059 A 
ATOM     25  C   UNL     1      -5.751 -11.578  17.186  0.00  0.00    +0.014 A 
ATOM     27  C   UNL     1      -7.743  -9.666  17.581  0.00  0.00    +0.162 A 
ATOM     28  C   UNL     1      -6.528 -11.609  18.345  0.00  0.00    +0.050 A 
ATOM     29  C   UNL     1      -7.523 -10.653  18.543  0.00  0.00    +0.162 A 
BRANCH  27   3
ATOM      3  O   UNL     1      -8.712  -8.727  17.763  0.00  0.00    -0.491 OA
ATOM     32  C   UNL     1      -9.564  -8.450  16.652  0.00  0.00    +0.277 C 
ENDBRANCH  27   3
BRANCH  29   4
ATOM      4  O   UNL     1      -8.275 -10.693  19.677  0.00  0.00    -0.491 OA
ATOM     33  C   UNL     1      -9.274 -11.708  19.757  0.00  0.00    +0.277 C 
ENDBRANCH  29   4
ENDBRANCH  19  22
ENDBRANCH  10  16
BRANCH  11  17
ATOM     17  C   UNL     1      -7.907  -9.589  10.054  0.00  0.00    +0.123 C 
BRANCH  17   7
ATOM      1  O   UNL     1      -9.314  -8.490   7.805  0.00  0.00    -0.267 OA
ATOM      7  N   UNL     1      -8.635  -8.358  10.020  0.00  0.00    -0.307 N 
ATOM     21  C   UNL     1      -9.291  -7.898   8.880  0.00  0.00    +0.279 C 
ATOM     34  H   UNL     1      -8.640  -7.781  10.856  0.00  0.00    +0.149 HD
BRANCH  21  23
ATOM      2  O   UNL     1     -11.153  -6.546   9.689  0.00  0.00    -0.458 OA
ATOM     23  C   UNL     1      -9.981  -6.587   9.001  0.00  0.00    +0.189 A 
ATOM     26  C   UNL     1      -9.652  -5.337   8.532  0.00  0.00    +0.054 A 
ATOM     30  C   UNL     1     -10.687  -4.472   8.959  0.00  0.00    +0.042 A 
ATOM     31  C   UNL     1     -11.576  -5.255   9.659  0.00  0.00    +0.196 A 
ENDBRANCH  21  23
ENDBRANCH  17   7
ENDBRANCH  11  17
TORSDOF 7
ENDMDL
