MODEL 1
REMARK VINA RESULT:      -7.9      0.000      0.000
REMARK  Name = 45783758
REMARK  6 active torsions:
REMARK  status: ('A' for Active; 'I' for Inactive)
REMARK    1  A    between atoms: S_1  and  C_21
REMARK    2  A    between atoms: S_1  and  C_25
REMARK    3  A    between atoms: N_5  and  C_15
REMARK    4  A    between atoms: C_11  and  C_16
REMARK    5  A    between atoms: C_15  and  C_17
REMARK    6  A    between atoms: C_20  and  C_24
REMARK                            x       y       z     vdW  Elec       q    Type
REMARK                         _______ _______ _______ _____ _____    ______ ____
ROOT
ATOM      5  N   UNL     1      12.581   8.784  18.436  0.00  0.00    -0.287 NA
ATOM     11  C   UNL     1      13.362   7.591  18.052  0.00  0.00    +0.146 C 
ATOM     12  C   UNL     1      13.938   7.931  16.666  0.00  0.00    +0.030 C 
ATOM     13  C   UNL     1      12.135   9.405  17.189  0.00  0.00    +0.085 C 
ATOM     14  C   UNL     1      13.378   9.305  16.328  0.00  0.00    +0.017 C 
ENDROOT
BRANCH  11  16
ATOM      2  O   UNL     1      14.031   6.580  20.174  0.00  0.00    -0.336 OA
ATOM      6  N   UNL     1      15.720   7.507  19.031  0.00  0.00    -0.190 NA
ATOM      7  N   UNL     1      15.181   6.381  20.949  0.00  0.00    -0.056 NA
ATOM     16  C   UNL     1      14.437   7.249  19.063  0.00  0.00    +0.245 A 
ATOM     20  C   UNL     1      16.134   6.955  20.208  0.00  0.00    +0.207 A 
BRANCH  20  24
ATOM      8  N   UNL     1      19.784   6.216  20.461  0.00  0.00    -0.220 NA
ATOM      9  N   UNL     1      18.130   5.255  19.068  0.00  0.00    -0.342 N 
ATOM     10  N   UNL     1      19.206   7.958  22.023  0.00  0.00    -0.243 NA
ATOM     24  C   UNL     1      17.510   6.992  20.614  0.00  0.00    +0.080 A 
ATOM     26  C   UNL     1      18.490   6.182  20.078  0.00  0.00    +0.130 A 
ATOM     27  C   UNL     1      17.930   7.870  21.593  0.00  0.00    +0.127 A 
ATOM     28  C   UNL     1      20.067   7.115  21.423  0.00  0.00    +0.223 A 
ATOM     29  H   UNL     1      18.882   4.686  18.693  0.00  0.00    +0.144 HD
ATOM     30  H   UNL     1      17.206   4.845  19.087  0.00  0.00    +0.144 HD
ENDBRANCH  20  24
ENDBRANCH  11  16
BRANCH   5  15
ATOM     15  C   UNL     1      11.467   8.479  19.325  0.00  0.00    +0.120 C 
BRANCH  15  17
ATOM     17  C   UNL     1      11.505   9.314  20.578  0.00  0.00    -0.033 A 
ATOM     18  C   UNL     1      12.193  10.526  20.588  0.00  0.00    +0.007 A 
ATOM     19  C   UNL     1      10.849   8.874  21.729  0.00  0.00    +0.007 A 
ATOM     21  C   UNL     1      11.573  10.859  22.899  0.00  0.00    +0.088 A 
ATOM     22  C   UNL     1      12.227  11.298  21.749  0.00  0.00    +0.027 A 
ATOM     23  C   UNL     1      10.883   9.646  22.890  0.00  0.00    +0.027 A 
BRANCH  21   1
ATOM      1  S   UNL     1      11.613  11.829  24.351  0.00  0.00    -0.006 S 
ATOM      3  O   UNL     1      10.998  11.077  25.437  0.00  0.00    -0.170 OA
ATOM      4  O   UNL     1      12.964  12.349  24.506  0.00  0.00    -0.170 OA
ATOM     25  C   UNL     1      10.536  13.199  23.997  0.00  0.00    +0.200 C 
ENDBRANCH  21   1
ENDBRANCH  15  17
ENDBRANCH   5  15
TORSDOF 5
ENDMDL
MODEL 2
REMARK VINA RESULT:      -7.6      0.822      1.745
REMARK  Name = 45783758
REMARK  6 active torsions:
REMARK  status: ('A' for Active; 'I' for Inactive)
REMARK    1  A    between atoms: S_1  and  C_21
REMARK    2  A    between atoms: S_1  and  C_25
REMARK    3  A    between atoms: N_5  and  C_15
REMARK    4  A    between atoms: C_11  and  C_16
REMARK    5  A    between atoms: C_15  and  C_17
REMARK    6  A    between atoms: C_20  and  C_24
REMARK                            x       y       z     vdW  Elec       q    Type
REMARK                         _______ _______ _______ _____ _____    ______ ____
ROOT
ATOM      5  N   UNL     1      12.615   8.622  18.748  0.00  0.00    -0.287 NA
ATOM     11  C   UNL     1      13.452   7.460  18.389  0.00  0.00    +0.146 C 
ATOM     12  C   UNL     1      13.960   7.769  16.968  0.00  0.00    +0.030 C 
ATOM     13  C   UNL     1      12.092   9.158  17.492  0.00  0.00    +0.085 C 
ATOM     14  C   UNL     1      13.308   9.091  16.591  0.00  0.00    +0.017 C 
ENDROOT
BRANCH  11  16
ATOM      2  O   UNL     1      14.276   6.493  20.476  0.00  0.00    -0.336 OA
ATOM      6  N   UNL     1      15.821   7.635  19.327  0.00  0.00    -0.190 NA
ATOM      7  N   UNL     1      15.455   6.414  21.227  0.00  0.00    -0.056 NA
ATOM     16  C   UNL     1      14.578   7.227  19.374  0.00  0.00    +0.245 A 
ATOM     20  C   UNL     1      16.320   7.112  20.484  0.00  0.00    +0.207 A 
BRANCH  20  24
ATOM      8  N   UNL     1      19.424   8.563  21.964  0.00  0.00    -0.220 NA
ATOM      9  N   UNL     1      17.198   9.366  22.006  0.00  0.00    -0.342 N 
ATOM     10  N   UNL     1      19.959   6.501  20.836  0.00  0.00    -0.243 NA
ATOM     24  C   UNL     1      17.689   7.303  20.868  0.00  0.00    +0.080 A 
ATOM     26  C   UNL     1      18.135   8.382  21.602  0.00  0.00    +0.130 A 
ATOM     27  C   UNL     1      18.655   6.384  20.510  0.00  0.00    +0.127 A 
ATOM     28  C   UNL     1      20.268   7.598  21.554  0.00  0.00    +0.223 A 
ATOM     29  H   UNL     1      17.565  10.137  22.553  0.00  0.00    +0.144 HD
ATOM     30  H   UNL     1      16.404   9.559  21.410  0.00  0.00    +0.144 HD
ENDBRANCH  20  24
ENDBRANCH  11  16
BRANCH   5  15
ATOM     15  C   UNL     1      11.552   8.295  19.689  0.00  0.00    +0.120 C 
BRANCH  15  17
ATOM     17  C   UNL     1      11.511   9.257  20.847  0.00  0.00    -0.033 A 
ATOM     18  C   UNL     1      10.788   8.936  21.995  0.00  0.00    +0.007 A 
ATOM     19  C   UNL     1      12.199  10.468  20.771  0.00  0.00    +0.007 A 
ATOM     21  C   UNL     1      11.438  11.039  22.992  0.00  0.00    +0.088 A 
ATOM     22  C   UNL     1      10.751   9.828  23.067  0.00  0.00    +0.027 A 
ATOM     23  C   UNL     1      12.162  11.360  21.844  0.00  0.00    +0.027 A 
BRANCH  21   1
ATOM      1  S   UNL     1      11.395  12.152  24.336  0.00  0.00    -0.006 S 
ATOM      3  O   UNL     1      10.027  12.617  24.519  0.00  0.00    -0.170 OA
ATOM      4  O   UNL     1      12.104  11.538  25.450  0.00  0.00    -0.170 OA
ATOM     25  C   UNL     1      12.347  13.549  23.784  0.00  0.00    +0.200 C 
ENDBRANCH  21   1
ENDBRANCH  15  17
ENDBRANCH   5  15
TORSDOF 5
ENDMDL
MODEL 3
REMARK VINA RESULT:      -7.1      4.105      8.004
REMARK  Name = 45783758
REMARK  6 active torsions:
REMARK  status: ('A' for Active; 'I' for Inactive)
REMARK    1  A    between atoms: S_1  and  C_21
REMARK    2  A    between atoms: S_1  and  C_25
REMARK    3  A    between atoms: N_5  and  C_15
REMARK    4  A    between atoms: C_11  and  C_16
REMARK    5  A    between atoms: C_15  and  C_17
REMARK    6  A    between atoms: C_20  and  C_24
REMARK                            x       y       z     vdW  Elec       q    Type
REMARK                         _______ _______ _______ _____ _____    ______ ____
ROOT
ATOM      5  N   UNL     1      13.121   7.846  20.603  0.00  0.00    -0.287 NA
ATOM     11  C   UNL     1      11.921   8.705  20.539  0.00  0.00    +0.146 C 
ATOM     12  C   UNL     1      10.775   7.814  21.052  0.00  0.00    +0.030 C 
ATOM     13  C   UNL     1      12.653   6.470  20.448  0.00  0.00    +0.085 C 
ATOM     14  C   UNL     1      11.414   6.459  21.322  0.00  0.00    +0.017 C 
ENDROOT
BRANCH  11  16
ATOM      2  O   UNL     1      13.247  10.650  21.195  0.00  0.00    -0.336 OA
ATOM      6  N   UNL     1      11.234  10.546  22.170  0.00  0.00    -0.190 NA
ATOM      7  N   UNL     1      13.157  11.776  22.023  0.00  0.00    -0.056 NA
ATOM     16  C   UNL     1      12.074   9.980  21.341  0.00  0.00    +0.245 A 
ATOM     20  C   UNL     1      11.942  11.644  22.563  0.00  0.00    +0.207 A 
BRANCH  20  24
ATOM      8  N   UNL     1      10.625  13.190  25.694  0.00  0.00    -0.220 NA
ATOM      9  N   UNL     1      11.389  10.987  25.290  0.00  0.00    -0.342 N 
ATOM     10  N   UNL     1      10.624  14.828  23.927  0.00  0.00    -0.243 NA
ATOM     24  C   UNL     1      11.405  12.592  23.496  0.00  0.00    +0.080 A 
ATOM     26  C   UNL     1      11.131  12.298  24.816  0.00  0.00    +0.130 A 
ATOM     27  C   UNL     1      11.130  13.887  23.103  0.00  0.00    +0.127 A 
ATOM     28  C   UNL     1      10.400  14.418  25.190  0.00  0.00    +0.223 A 
ATOM     29  H   UNL     1      11.184  10.815  26.267  0.00  0.00    +0.144 HD
ATOM     30  H   UNL     1      11.288  10.208  24.652  0.00  0.00    +0.144 HD
ENDBRANCH  20  24
ENDBRANCH  11  16
BRANCH   5  15
ATOM     15  C   UNL     1      14.131   8.197  19.613  0.00  0.00    +0.120 C 
BRANCH  15  17
ATOM     17  C   UNL     1      15.516   7.817  20.066  0.00  0.00    -0.033 A 
ATOM     18  C   UNL     1      16.165   6.727  19.487  0.00  0.00    +0.007 A 
ATOM     19  C   UNL     1      16.151   8.558  21.064  0.00  0.00    +0.007 A 
ATOM     21  C   UNL     1      18.083   7.115  20.905  0.00  0.00    +0.088 A 
ATOM     22  C   UNL     1      17.448   6.376  19.907  0.00  0.00    +0.027 A 
ATOM     23  C   UNL     1      17.434   8.207  21.484  0.00  0.00    +0.027 A 
BRANCH  21   1
ATOM      1  S   UNL     1      19.690   6.678  21.427  0.00  0.00    -0.006 S 
ATOM      3  O   UNL     1      19.642   6.295  22.831  0.00  0.00    -0.170 OA
ATOM      4  O   UNL     1      20.245   5.757  20.445  0.00  0.00    -0.170 OA
ATOM     25  C   UNL     1      20.613   8.196  21.337  0.00  0.00    +0.200 C 
ENDBRANCH  21   1
ENDBRANCH  15  17
ENDBRANCH   5  15
TORSDOF 5
ENDMDL
MODEL 4
REMARK VINA RESULT:      -7.1      4.322      7.722
REMARK  Name = 45783758
REMARK  6 active torsions:
REMARK  status: ('A' for Active; 'I' for Inactive)
REMARK    1  A    between atoms: S_1  and  C_21
REMARK    2  A    between atoms: S_1  and  C_25
REMARK    3  A    between atoms: N_5  and  C_15
REMARK    4  A    between atoms: C_11  and  C_16
REMARK    5  A    between atoms: C_15  and  C_17
REMARK    6  A    between atoms: C_20  and  C_24
REMARK                            x       y       z     vdW  Elec       q    Type
REMARK                         _______ _______ _______ _____ _____    ______ ____
ROOT
ATOM      5  N   UNL     1      14.437   8.243  19.920  0.00  0.00    -0.287 NA
ATOM     11  C   UNL     1      13.887   7.633  21.148  0.00  0.00    +0.146 C 
ATOM     12  C   UNL     1      15.110   7.420  22.059  0.00  0.00    +0.030 C 
ATOM     13  C   UNL     1      15.816   7.770  19.806  0.00  0.00    +0.085 C 
ATOM     14  C   UNL     1      16.304   7.881  21.236  0.00  0.00    +0.017 C 
ENDROOT
BRANCH  11  16
ATOM      2  O   UNL     1      11.650   7.869  22.103  0.00  0.00    -0.336 OA
ATOM      6  N   UNL     1      12.848   9.761  22.105  0.00  0.00    -0.190 NA
ATOM      7  N   UNL     1      10.830   8.847  22.679  0.00  0.00    -0.056 NA
ATOM     16  C   UNL     1      12.818   8.489  21.794  0.00  0.00    +0.245 A 
ATOM     20  C   UNL     1      11.607   9.934  22.645  0.00  0.00    +0.207 A 
BRANCH  20  24
ATOM      8  N   UNL     1      10.558  12.674  24.951  0.00  0.00    -0.220 NA
ATOM      9  N   UNL     1      11.187  10.443  25.427  0.00  0.00    -0.342 N 
ATOM     10  N   UNL     1      10.531  13.480  22.681  0.00  0.00    -0.243 NA
ATOM     24  C   UNL     1      11.174  11.208  23.145  0.00  0.00    +0.080 A 
ATOM     26  C   UNL     1      10.966  11.476  24.482  0.00  0.00    +0.130 A 
ATOM     27  C   UNL     1      10.940  12.258  22.281  0.00  0.00    +0.127 A 
ATOM     28  C   UNL     1      10.363  13.617  24.010  0.00  0.00    +0.223 A 
ATOM     29  H   UNL     1      11.033  10.685  26.399  0.00  0.00    +0.144 HD
ATOM     30  H   UNL     1      11.011   9.485  25.155  0.00  0.00    +0.144 HD
ENDBRANCH  20  24
ENDBRANCH  11  16
BRANCH   5  15
ATOM     15  C   UNL     1      13.654   7.939  18.729  0.00  0.00    +0.120 C 
BRANCH  15  17
ATOM     17  C   UNL     1      13.835   8.982  17.657  0.00  0.00    -0.033 A 
ATOM     18  C   UNL     1      13.778  10.336  17.985  0.00  0.00    +0.007 A 
ATOM     19  C   UNL     1      14.063   8.592  16.337  0.00  0.00    +0.007 A 
ATOM     21  C   UNL     1      14.173  10.913  15.672  0.00  0.00    +0.088 A 
ATOM     22  C   UNL     1      13.946  11.301  16.992  0.00  0.00    +0.027 A 
ATOM     23  C   UNL     1      14.231   9.558  15.344  0.00  0.00    +0.027 A 
BRANCH  21   1
ATOM      1  S   UNL     1      14.388  12.122  14.431  0.00  0.00    -0.006 S 
ATOM      3  O   UNL     1      13.568  11.767  13.280  0.00  0.00    -0.170 OA
ATOM      4  O   UNL     1      14.237  13.431  15.050  0.00  0.00    -0.170 OA
ATOM     25  C   UNL     1      16.086  11.945  13.931  0.00  0.00    +0.200 C 
ENDBRANCH  21   1
ENDBRANCH  15  17
ENDBRANCH   5  15
TORSDOF 5
ENDMDL
MODEL 5
REMARK VINA RESULT:      -7.0      4.120      7.159
REMARK  Name = 45783758
REMARK  6 active torsions:
REMARK  status: ('A' for Active; 'I' for Inactive)
REMARK    1  A    between atoms: S_1  and  C_21
REMARK    2  A    between atoms: S_1  and  C_25
REMARK    3  A    between atoms: N_5  and  C_15
REMARK    4  A    between atoms: C_11  and  C_16
REMARK    5  A    between atoms: C_15  and  C_17
REMARK    6  A    between atoms: C_20  and  C_24
REMARK                            x       y       z     vdW  Elec       q    Type
REMARK                         _______ _______ _______ _____ _____    ______ ____
ROOT
ATOM      5  N   UNL     1      19.192   6.895  21.211  0.00  0.00    -0.287 NA
ATOM     11  C   UNL     1      20.644   6.951  20.950  0.00  0.00    +0.146 C 
ATOM     12  C   UNL     1      21.077   8.343  21.448  0.00  0.00    +0.030 C 
ATOM     13  C   UNL     1      18.709   8.275  21.157  0.00  0.00    +0.085 C 
ATOM     14  C   UNL     1      19.793   9.016  21.912  0.00  0.00    +0.017 C 
ENDROOT
BRANCH  11  16
ATOM      2  O   UNL     1      21.010   5.509  22.889  0.00  0.00    -0.336 OA
ATOM      6  N   UNL     1      22.394   5.104  21.176  0.00  0.00    -0.190 NA
ATOM      7  N   UNL     1      21.842   4.460  23.301  0.00  0.00    -0.056 NA
ATOM     16  C   UNL     1      21.401   5.828  21.627  0.00  0.00    +0.245 A 
ATOM     20  C   UNL     1      22.630   4.280  22.236  0.00  0.00    +0.207 A 
BRANCH  20  24
ATOM      8  N   UNL     1      24.657   1.300  21.265  0.00  0.00    -0.220 NA
ATOM      9  N   UNL     1      22.641   2.133  20.348  0.00  0.00    -0.342 N 
ATOM     10  N   UNL     1      25.712   2.421  23.119  0.00  0.00    -0.243 NA
ATOM     24  C   UNL     1      23.661   3.283  22.200  0.00  0.00    +0.080 A 
ATOM     26  C   UNL     1      23.687   2.239  21.299  0.00  0.00    +0.130 A 
ATOM     27  C   UNL     1      24.711   3.324  23.096  0.00  0.00    +0.127 A 
ATOM     28  C   UNL     1      25.624   1.451  22.190  0.00  0.00    +0.223 A 
ATOM     29  H   UNL     1      22.703   1.358  19.698  0.00  0.00    +0.144 HD
ATOM     30  H   UNL     1      21.715   2.449  20.604  0.00  0.00    +0.144 HD
ENDBRANCH  20  24
ENDBRANCH  11  16
BRANCH   5  15
ATOM     15  C   UNL     1      18.476   6.028  20.284  0.00  0.00    +0.120 C 
BRANCH  15  17
ATOM     17  C   UNL     1      17.012   6.373  20.210  0.00  0.00    -0.033 A 
ATOM     18  C   UNL     1      16.397   6.540  18.969  0.00  0.00    +0.007 A 
ATOM     19  C   UNL     1      16.271   6.524  21.382  0.00  0.00    +0.007 A 
ATOM     21  C   UNL     1      14.300   7.011  20.072  0.00  0.00    +0.088 A 
ATOM     22  C   UNL     1      15.041   6.860  18.901  0.00  0.00    +0.027 A 
ATOM     23  C   UNL     1      14.915   6.843  21.314  0.00  0.00    +0.027 A 
BRANCH  21   1
ATOM      1  S   UNL     1      12.602   7.407  19.986  0.00  0.00    -0.006 S 
ATOM      3  O   UNL     1      12.431   8.822  20.286  0.00  0.00    -0.170 OA
ATOM      4  O   UNL     1      12.078   6.865  18.740  0.00  0.00    -0.170 OA
ATOM     25  C   UNL     1      11.867   6.501  21.329  0.00  0.00    +0.200 C 
ENDBRANCH  21   1
ENDBRANCH  15  17
ENDBRANCH   5  15
TORSDOF 5
ENDMDL
MODEL 6
REMARK VINA RESULT:      -6.6     14.666     17.543
REMARK  Name = 45783758
REMARK  6 active torsions:
REMARK  status: ('A' for Active; 'I' for Inactive)
REMARK    1  A    between atoms: S_1  and  C_21
REMARK    2  A    between atoms: S_1  and  C_25
REMARK    3  A    between atoms: N_5  and  C_15
REMARK    4  A    between atoms: C_11  and  C_16
REMARK    5  A    between atoms: C_15  and  C_17
REMARK    6  A    between atoms: C_20  and  C_24
REMARK                            x       y       z     vdW  Elec       q    Type
REMARK                         _______ _______ _______ _____ _____    ______ ____
ROOT
ATOM      5  N   UNL     1      10.643   6.850   6.565  0.00  0.00    -0.287 NA
ATOM     11  C   UNL     1      10.152   5.707   5.769  0.00  0.00    +0.146 C 
ATOM     12  C   UNL     1       8.632   5.929   5.663  0.00  0.00    +0.030 C 
ATOM     13  C   UNL     1       9.535   7.259   7.428  0.00  0.00    +0.085 C 
ATOM     14  C   UNL     1       8.355   7.183   6.479  0.00  0.00    +0.017 C 
ENDROOT
BRANCH  11  16
ATOM      2  O   UNL     1      11.699   6.600   4.101  0.00  0.00    -0.336 OA
ATOM      6  N   UNL     1      10.686   4.700   3.483  0.00  0.00    -0.190 NA
ATOM      7  N   UNL     1      12.184   6.299   2.822  0.00  0.00    -0.056 NA
ATOM     16  C   UNL     1      10.824   5.609   4.415  0.00  0.00    +0.245 A 
ATOM     20  C   UNL     1      11.540   5.166   2.526  0.00  0.00    +0.207 A 
BRANCH  20  24
ATOM      8  N   UNL     1      13.051   3.122  -0.207  0.00  0.00    -0.220 NA
ATOM      9  N   UNL     1      13.932   3.728   1.904  0.00  0.00    -0.342 N 
ATOM     10  N   UNL     1      10.850   3.845  -0.868  0.00  0.00    -0.243 NA
ATOM     24  C   UNL     1      11.728   4.473   1.284  0.00  0.00    +0.080 A 
ATOM     26  C   UNL     1      12.873   3.773   0.962  0.00  0.00    +0.130 A 
ATOM     27  C   UNL     1      10.739   4.474   0.321  0.00  0.00    +0.127 A 
ATOM     28  C   UNL     1      12.014   3.198  -1.062  0.00  0.00    +0.223 A 
ATOM     29  H   UNL     1      14.750   3.195   1.633  0.00  0.00    +0.144 HD
ATOM     30  H   UNL     1      14.078   4.523   2.513  0.00  0.00    +0.144 HD
ENDBRANCH  20  24
ENDBRANCH  11  16
BRANCH   5  15
ATOM     15  C   UNL     1      11.846   6.543   7.328  0.00  0.00    +0.120 C 
BRANCH  15  17
ATOM     17  C   UNL     1      12.988   7.458   6.967  0.00  0.00    -0.033 A 
ATOM     18  C   UNL     1      14.226   6.922   6.615  0.00  0.00    +0.007 A 
ATOM     19  C   UNL     1      12.804   8.841   6.983  0.00  0.00    +0.007 A 
ATOM     21  C   UNL     1      15.100   9.152   6.297  0.00  0.00    +0.088 A 
ATOM     22  C   UNL     1      15.282   7.770   6.281  0.00  0.00    +0.027 A 
ATOM     23  C   UNL     1      13.861   9.688   6.649  0.00  0.00    +0.027 A 
BRANCH  21   1
ATOM      1  S   UNL     1      16.421  10.212   5.874  0.00  0.00    -0.006 S 
ATOM      3  O   UNL     1      16.304  10.574   4.468  0.00  0.00    -0.170 OA
ATOM      4  O   UNL     1      16.500  11.256   6.886  0.00  0.00    -0.170 OA
ATOM     25  C   UNL     1      17.872   9.193   6.026  0.00  0.00    +0.200 C 
ENDBRANCH  21   1
ENDBRANCH  15  17
ENDBRANCH   5  15
TORSDOF 5
ENDMDL
MODEL 7
REMARK VINA RESULT:      -6.5     25.636     27.547
REMARK  Name = 45783758
REMARK  6 active torsions:
REMARK  status: ('A' for Active; 'I' for Inactive)
REMARK    1  A    between atoms: S_1  and  C_21
REMARK    2  A    between atoms: S_1  and  C_25
REMARK    3  A    between atoms: N_5  and  C_15
REMARK    4  A    between atoms: C_11  and  C_16
REMARK    5  A    between atoms: C_15  and  C_17
REMARK    6  A    between atoms: C_20  and  C_24
REMARK                            x       y       z     vdW  Elec       q    Type
REMARK                         _______ _______ _______ _____ _____    ______ ____
ROOT
ATOM      5  N   UNL     1     -11.069   9.439  17.660  0.00  0.00    -0.287 NA
ATOM     11  C   UNL     1     -10.460  10.455  18.543  0.00  0.00    +0.146 C 
ATOM     12  C   UNL     1     -10.167  11.651  17.619  0.00  0.00    +0.030 C 
ATOM     13  C   UNL     1     -10.532   9.681  16.321  0.00  0.00    +0.085 C 
ATOM     14  C   UNL     1     -10.587  11.192  16.230  0.00  0.00    +0.017 C 
ENDROOT
BRANCH  11  16
ATOM      2  O   UNL     1     -12.345  11.716  19.454  0.00  0.00    -0.336 OA
ATOM      6  N   UNL     1     -11.315  10.406  20.950  0.00  0.00    -0.190 NA
ATOM      7  N   UNL     1     -13.026  11.898  20.664  0.00  0.00    -0.056 NA
ATOM     16  C   UNL     1     -11.353  10.823  19.709  0.00  0.00    +0.245 A 
ATOM     20  C   UNL     1     -12.359  11.092  21.496  0.00  0.00    +0.207 A 
BRANCH  20  24
ATOM      8  N   UNL     1     -14.214  10.226  24.617  0.00  0.00    -0.220 NA
ATOM      9  N   UNL     1     -14.794   9.863  22.352  0.00  0.00    -0.342 N 
ATOM     10  N   UNL     1     -12.139  11.309  25.190  0.00  0.00    -0.243 NA
ATOM     24  C   UNL     1     -12.712  10.949  22.880  0.00  0.00    +0.080 A 
ATOM     26  C   UNL     1     -13.881  10.360  23.316  0.00  0.00    +0.130 A 
ATOM     27  C   UNL     1     -11.870  11.410  23.872  0.00  0.00    +0.127 A 
ATOM     28  C   UNL     1     -13.310  10.715  25.487  0.00  0.00    +0.223 A 
ATOM     29  H   UNL     1     -15.636   9.428  22.714  0.00  0.00    +0.144 HD
ATOM     30  H   UNL     1     -14.864  10.330  21.458  0.00  0.00    +0.144 HD
ENDBRANCH  20  24
ENDBRANCH  11  16
BRANCH   5  15
ATOM     15  C   UNL     1     -10.831   8.073  18.108  0.00  0.00    +0.120 C 
BRANCH  15  17
ATOM     17  C   UNL     1     -11.897   7.601  19.061  0.00  0.00    -0.033 A 
ATOM     18  C   UNL     1     -11.539   6.947  20.239  0.00  0.00    +0.007 A 
ATOM     19  C   UNL     1     -13.243   7.821  18.766  0.00  0.00    +0.007 A 
ATOM     21  C   UNL     1     -13.872   6.729  20.828  0.00  0.00    +0.088 A 
ATOM     22  C   UNL     1     -12.527   6.510  21.122  0.00  0.00    +0.027 A 
ATOM     23  C   UNL     1     -14.231   7.385  19.649  0.00  0.00    +0.027 A 
BRANCH  21   1
ATOM      1  S   UNL     1     -15.108   6.186  21.935  0.00  0.00    -0.006 S 
ATOM      3  O   UNL     1     -15.099   4.730  21.975  0.00  0.00    -0.170 OA
ATOM      4  O   UNL     1     -14.966   6.943  23.171  0.00  0.00    -0.170 OA
ATOM     25  C   UNL     1     -16.636   6.673  21.166  0.00  0.00    +0.200 C 
ENDBRANCH  21   1
ENDBRANCH  15  17
ENDBRANCH   5  15
TORSDOF 5
ENDMDL
MODEL 8
REMARK VINA RESULT:      -6.4     28.317     30.221
REMARK  Name = 45783758
REMARK  6 active torsions:
REMARK  status: ('A' for Active; 'I' for Inactive)
REMARK    1  A    between atoms: S_1  and  C_21
REMARK    2  A    between atoms: S_1  and  C_25
REMARK    3  A    between atoms: N_5  and  C_15
REMARK    4  A    between atoms: C_11  and  C_16
REMARK    5  A    between atoms: C_15  and  C_17
REMARK    6  A    between atoms: C_20  and  C_24
REMARK                            x       y       z     vdW  Elec       q    Type
REMARK                         _______ _______ _______ _____ _____    ______ ____
ROOT
ATOM      5  N   UNL     1     -10.296 -12.022  19.295  0.00  0.00    -0.287 NA
ATOM     11  C   UNL     1      -9.056 -12.381  20.012  0.00  0.00    +0.146 C 
ATOM     12  C   UNL     1      -9.016 -13.920  19.975  0.00  0.00    +0.030 C 
ATOM     13  C   UNL     1     -11.217 -13.144  19.473  0.00  0.00    +0.085 C 
ATOM     14  C   UNL     1     -10.301 -14.335  19.273  0.00  0.00    +0.017 C 
ENDROOT
BRANCH  11  16
ATOM      2  O   UNL     1      -7.167 -10.839  20.161  0.00  0.00    -0.336 OA
ATOM      6  N   UNL     1      -7.288 -11.949  18.220  0.00  0.00    -0.190 NA
ATOM      7  N   UNL     1      -6.081 -10.399  19.393  0.00  0.00    -0.056 NA
ATOM     16  C   UNL     1      -7.825 -11.750  19.398  0.00  0.00    +0.245 A 
ATOM     20  C   UNL     1      -6.222 -11.100  18.263  0.00  0.00    +0.207 A 
BRANCH  20  24
ATOM      8  N   UNL     1      -3.133 -11.235  16.174  0.00  0.00    -0.220 NA
ATOM      9  N   UNL     1      -3.481 -11.899  18.418  0.00  0.00    -0.342 N 
ATOM     10  N   UNL     1      -4.939 -10.306  14.878  0.00  0.00    -0.243 NA
ATOM     24  C   UNL     1      -5.313 -10.975  17.160  0.00  0.00    +0.080 A 
ATOM     26  C   UNL     1      -3.988 -11.354  17.212  0.00  0.00    +0.130 A 
ATOM     27  C   UNL     1      -5.738 -10.452  15.955  0.00  0.00    +0.127 A 
ATOM     28  C   UNL     1      -3.668 -10.712  15.055  0.00  0.00    +0.223 A 
ATOM     29  H   UNL     1      -2.506 -12.175  18.411  0.00  0.00    +0.144 HD
ATOM     30  H   UNL     1      -3.865 -11.580  19.298  0.00  0.00    +0.144 HD
ENDBRANCH  20  24
ENDBRANCH  11  16
BRANCH   5  15
ATOM     15  C   UNL     1     -10.875 -10.762  19.746  0.00  0.00    +0.120 C 
BRANCH  15  17
ATOM     17  C   UNL     1     -11.112  -9.812  18.601  0.00  0.00    -0.033 A 
ATOM     18  C   UNL     1     -10.052  -9.074  18.077  0.00  0.00    +0.007 A 
ATOM     19  C   UNL     1     -12.392  -9.674  18.064  0.00  0.00    +0.007 A 
ATOM     21  C   UNL     1     -11.551  -8.055  16.480  0.00  0.00    +0.088 A 
ATOM     22  C   UNL     1     -10.272  -8.194  17.016  0.00  0.00    +0.027 A 
ATOM     23  C   UNL     1     -12.612  -8.794  17.004  0.00  0.00    +0.027 A 
BRANCH  21   1
ATOM      1  S   UNL     1     -11.825  -6.957  15.150  0.00  0.00    -0.006 S 
ATOM      3  O   UNL     1     -10.929  -5.817  15.287  0.00  0.00    -0.170 OA
ATOM      4  O   UNL     1     -11.822  -7.735  13.919  0.00  0.00    -0.170 OA
ATOM     25  C   UNL     1     -13.477  -6.350  15.410  0.00  0.00    +0.200 C 
ENDBRANCH  21   1
ENDBRANCH  15  17
ENDBRANCH   5  15
TORSDOF 5
ENDMDL
MODEL 9
REMARK VINA RESULT:      -6.3     26.701     28.912
REMARK  Name = 45783758
REMARK  6 active torsions:
REMARK  status: ('A' for Active; 'I' for Inactive)
REMARK    1  A    between atoms: S_1  and  C_21
REMARK    2  A    between atoms: S_1  and  C_25
REMARK    3  A    between atoms: N_5  and  C_15
REMARK    4  A    between atoms: C_11  and  C_16
REMARK    5  A    between atoms: C_15  and  C_17
REMARK    6  A    between atoms: C_20  and  C_24
REMARK                            x       y       z     vdW  Elec       q    Type
REMARK                         _______ _______ _______ _____ _____    ______ ____
ROOT
ATOM      5  N   UNL     1      -3.955  -9.955  11.675  0.00  0.00    -0.287 NA
ATOM     11  C   UNL     1      -2.984 -10.802  12.397  0.00  0.00    +0.146 C 
ATOM     12  C   UNL     1      -1.606 -10.310  11.918  0.00  0.00    +0.030 C 
ATOM     13  C   UNL     1      -3.309  -9.560  10.424  0.00  0.00    +0.085 C 
ATOM     14  C   UNL     1      -1.904  -9.231  10.887  0.00  0.00    +0.017 C 
ENDROOT
BRANCH  11  16
ATOM      2  O   UNL     1      -2.037 -10.377  14.609  0.00  0.00    -0.336 OA
ATOM      6  N   UNL     1      -4.206 -10.932  14.636  0.00  0.00    -0.190 NA
ATOM      7  N   UNL     1      -2.425 -10.366  15.955  0.00  0.00    -0.056 NA
ATOM     16  C   UNL     1      -3.144 -10.719  13.900  0.00  0.00    +0.245 A 
ATOM     20  C   UNL     1      -3.716 -10.704  15.888  0.00  0.00    +0.207 A 
BRANCH  20  24
ATOM      8  N   UNL     1      -6.538 -10.288  18.296  0.00  0.00    -0.220 NA
ATOM      9  N   UNL     1      -6.225  -9.357  16.143  0.00  0.00    -0.342 N 
ATOM     10  N   UNL     1      -4.881 -11.758  19.245  0.00  0.00    -0.243 NA
ATOM     24  C   UNL     1      -4.545 -10.820  17.054  0.00  0.00    +0.080 A 
ATOM     26  C   UNL     1      -5.758 -10.180  17.198  0.00  0.00    +0.130 A 
ATOM     27  C   UNL     1      -4.152 -11.604  18.120  0.00  0.00    +0.127 A 
ATOM     28  C   UNL     1      -6.045 -11.082  19.265  0.00  0.00    +0.223 A 
ATOM     29  H   UNL     1      -7.126  -8.914  16.284  0.00  0.00    +0.144 HD
ATOM     30  H   UNL     1      -5.551  -8.863  15.573  0.00  0.00    +0.144 HD
ENDBRANCH  20  24
ENDBRANCH  11  16
BRANCH   5  15
ATOM     15  C   UNL     1      -5.234 -10.616  11.446  0.00  0.00    +0.120 C 
BRANCH  15  17
ATOM     17  C   UNL     1      -5.910 -10.113  10.198  0.00  0.00    -0.033 A 
ATOM     18  C   UNL     1      -6.534  -8.866  10.197  0.00  0.00    +0.007 A 
ATOM     19  C   UNL     1      -5.910 -10.894   9.042  0.00  0.00    +0.007 A 
ATOM     21  C   UNL     1      -7.161  -9.181   7.885  0.00  0.00    +0.088 A 
ATOM     22  C   UNL     1      -7.160  -8.401   9.040  0.00  0.00    +0.027 A 
ATOM     23  C   UNL     1      -6.535 -10.429   7.885  0.00  0.00    +0.027 A 
BRANCH  21   1
ATOM      1  S   UNL     1      -7.940  -8.596   6.437  0.00  0.00    -0.006 S 
ATOM      3  O   UNL     1      -6.952  -8.511   5.370  0.00  0.00    -0.170 OA
ATOM      4  O   UNL     1      -9.155  -9.374   6.236  0.00  0.00    -0.170 OA
ATOM     25  C   UNL     1      -8.417  -6.929   6.833  0.00  0.00    +0.200 C 
ENDBRANCH  21   1
ENDBRANCH  15  17
ENDBRANCH   5  15
TORSDOF 5
ENDMDL
MODEL 10
REMARK VINA RESULT:      -6.3     25.561     28.581
REMARK  Name = 45783758
REMARK  6 active torsions:
REMARK  status: ('A' for Active; 'I' for Inactive)
REMARK    1  A    between atoms: S_1  and  C_21
REMARK    2  A    between atoms: S_1  and  C_25
REMARK    3  A    between atoms: N_5  and  C_15
REMARK    4  A    between atoms: C_11  and  C_16
REMARK    5  A    between atoms: C_15  and  C_17
REMARK    6  A    between atoms: C_20  and  C_24
REMARK                            x       y       z     vdW  Elec       q    Type
REMARK                         _______ _______ _______ _____ _____    ______ ____
ROOT
ATOM      5  N   UNL     1     -13.944   9.497  22.963  0.00  0.00    -0.287 NA
ATOM     11  C   UNL     1     -13.358  10.397  21.949  0.00  0.00    +0.146 C 
ATOM     12  C   UNL     1     -12.304  11.216  22.717  0.00  0.00    +0.030 C 
ATOM     13  C   UNL     1     -13.816  10.183  24.248  0.00  0.00    +0.085 C 
ATOM     14  C   UNL     1     -12.413  10.750  24.161  0.00  0.00    +0.017 C 
ENDROOT
BRANCH  11  16
ATOM      2  O   UNL     1     -12.114   8.492  21.059  0.00  0.00    -0.336 OA
ATOM      6  N   UNL     1     -12.799   9.944  19.498  0.00  0.00    -0.190 NA
ATOM      7  N   UNL     1     -11.666   7.985  19.833  0.00  0.00    -0.056 NA
ATOM     16  C   UNL     1     -12.771   9.645  20.773  0.00  0.00    +0.245 A 
ATOM     20  C   UNL     1     -12.109   8.897  18.962  0.00  0.00    +0.207 A 
BRANCH  20  24
ATOM      8  N   UNL     1     -10.438   8.896  15.625  0.00  0.00    -0.220 NA
ATOM      9  N   UNL     1      -9.546   9.335  17.772  0.00  0.00    -0.342 N 
ATOM     10  N   UNL     1     -12.768   8.346  15.357  0.00  0.00    -0.243 NA
ATOM     24  C   UNL     1     -11.880   8.789  17.549  0.00  0.00    +0.080 A 
ATOM     26  C   UNL     1     -10.653   8.996  16.954  0.00  0.00    +0.130 A 
ATOM     27  C   UNL     1     -12.912   8.463  16.693  0.00  0.00    +0.127 A 
ATOM     28  C   UNL     1     -11.523   8.572  14.897  0.00  0.00    +0.223 A 
ATOM     29  H   UNL     1      -8.661   9.468  17.297  0.00  0.00    +0.144 HD
ATOM     30  H   UNL     1      -9.706   9.877  18.611  0.00  0.00    +0.144 HD
ENDBRANCH  20  24
ENDBRANCH  11  16
BRANCH   5  15
ATOM     15  C   UNL     1     -15.324   9.129  22.674  0.00  0.00    +0.120 C 
BRANCH  15  17
ATOM     17  C   UNL     1     -15.605   7.690  23.018  0.00  0.00    -0.033 A 
ATOM     18  C   UNL     1     -16.824   7.335  23.594  0.00  0.00    +0.007 A 
ATOM     19  C   UNL     1     -14.645   6.711  22.759  0.00  0.00    +0.007 A 
ATOM     21  C   UNL     1     -16.125   5.024  23.655  0.00  0.00    +0.088 A 
ATOM     22  C   UNL     1     -17.084   6.003  23.913  0.00  0.00    +0.027 A 
ATOM     23  C   UNL     1     -14.904   5.378  23.078  0.00  0.00    +0.027 A 
BRANCH  21   1
ATOM      1  S   UNL     1     -16.452   3.355  24.050  0.00  0.00    -0.006 S 
ATOM      3  O   UNL     1     -16.410   2.564  22.828  0.00  0.00    -0.170 OA
ATOM      4  O   UNL     1     -15.607   2.988  25.178  0.00  0.00    -0.170 OA
ATOM     25  C   UNL     1     -18.141   3.356  24.609  0.00  0.00    +0.200 C 
ENDBRANCH  21   1
ENDBRANCH  15  17
ENDBRANCH   5  15
TORSDOF 5
ENDMDL
