MODEL 1
REMARK VINA RESULT:      -7.2      0.000      0.000
REMARK  Name = 7673830
REMARK  4 active torsions:
REMARK  status: ('A' for Active; 'I' for Inactive)
REMARK    1  A    between atoms: S_1  and  N_5
REMARK    2  A    between atoms: S_1  and  C_19
REMARK    3  A    between atoms: C_17  and  C_20
REMARK    4  A    between atoms: C_28  and  C_31
REMARK                            x       y       z     vdW  Elec       q    Type
REMARK                         _______ _______ _______ _____ _____    ______ ____
ROOT
ATOM      4  O   UNL     1      12.167   7.441   4.705  0.00  0.00    -0.267 OA
ATOM      5  N   UNL     1      11.797   6.268  -0.123  0.00  0.00    -0.176 NA
ATOM      6  N   UNL     1      12.358   5.900   2.964  0.00  0.00    -0.311 N 
ATOM      8  C   UNL     1      14.010   6.201   1.030  0.00  0.00    +0.025 C 
ATOM      9  C   UNL     1      12.546   4.230   1.087  0.00  0.00    +0.052 C 
ATOM     10  C   UNL     1      14.000   4.678   0.970  0.00  0.00    +0.017 C 
ATOM     11  C   UNL     1      13.193   6.793  -0.130  0.00  0.00    +0.114 C 
ATOM     12  C   UNL     1      11.741   4.776  -0.106  0.00  0.00    +0.119 C 
ATOM     13  C   UNL     1      13.490   6.648   2.402  0.00  0.00    +0.130 C 
ATOM     14  C   UNL     1      11.933   4.696   2.395  0.00  0.00    +0.026 A 
ATOM     15  C   UNL     1      10.974   3.970   2.990  0.00  0.00    +0.022 A 
ATOM     16  C   UNL     1      11.799   6.401   4.157  0.00  0.00    +0.259 A 
ATOM     17  C   UNL     1      10.701   5.581   4.777  0.00  0.00    +0.047 A 
ATOM     18  C   UNL     1      10.347   4.424   4.200  0.00  0.00    +0.015 A 
ENDROOT
BRANCH  17  20
ATOM     20  C   UNL     1      10.048   6.021   5.969  0.00  0.00    -0.011 A 
ATOM     23  C   UNL     1      10.267   5.353   7.174  0.00  0.00    +0.027 A 
ATOM     24  C   UNL     1       9.189   7.120   5.928  0.00  0.00    +0.009 A 
ATOM     28  C   UNL     1       9.628   5.782   8.337  0.00  0.00    +0.052 A 
ATOM     29  C   UNL     1       8.549   7.549   7.091  0.00  0.00    +0.002 A 
ATOM     30  C   UNL     1       8.769   6.880   8.296  0.00  0.00    +0.019 A 
BRANCH  28  31
ATOM      7  N   UNL     1      10.036   4.542  10.574  0.00  0.00    -0.191 NA
ATOM     31  C   UNL     1       9.853   5.098   9.571  0.00  0.00    +0.099 C 
ENDBRANCH  28  31
ENDBRANCH  17  20
BRANCH   5   1
ATOM      1  S   UNL     1      10.713   7.037  -1.199  0.00  0.00    +0.061 S 
ATOM      2  O   UNL     1       9.933   6.031  -1.888  0.00  0.00    -0.153 OA
ATOM      3  O   UNL     1      11.426   8.059  -1.937  0.00  0.00    -0.153 OA
BRANCH   1  19
ATOM     19  C   UNL     1       9.650   7.845  -0.044  0.00  0.00    +0.105 A 
ATOM     21  C   UNL     1       9.718   7.501   1.295  0.00  0.00    +0.028 A 
ATOM     22  C   UNL     1       8.764   8.809  -0.498  0.00  0.00    +0.028 A 
ATOM     25  C   UNL     1       8.877   8.138   2.207  0.00  0.00    +0.002 A 
ATOM     26  C   UNL     1       7.923   9.446   0.414  0.00  0.00    +0.002 A 
ATOM     27  C   UNL     1       7.979   9.111   1.767  0.00  0.00    +0.000 A 
ENDBRANCH   1  19
ENDBRANCH   5   1
TORSDOF 4
ENDMDL
MODEL 2
REMARK VINA RESULT:      -6.9      2.233      3.147
REMARK  Name = 7673830
REMARK  4 active torsions:
REMARK  status: ('A' for Active; 'I' for Inactive)
REMARK    1  A    between atoms: S_1  and  N_5
REMARK    2  A    between atoms: S_1  and  C_19
REMARK    3  A    between atoms: C_17  and  C_20
REMARK    4  A    between atoms: C_28  and  C_31
REMARK                            x       y       z     vdW  Elec       q    Type
REMARK                         _______ _______ _______ _____ _____    ______ ____
ROOT
ATOM      4  O   UNL     1      12.447   7.582   2.811  0.00  0.00    -0.267 OA
ATOM      5  N   UNL     1      13.674   4.631  -1.011  0.00  0.00    -0.176 NA
ATOM      6  N   UNL     1      13.034   5.490   1.960  0.00  0.00    -0.311 N 
ATOM      8  C   UNL     1      15.295   5.040   0.843  0.00  0.00    +0.025 C 
ATOM      9  C   UNL     1      13.650   3.227   1.040  0.00  0.00    +0.052 C 
ATOM     10  C   UNL     1      15.096   3.612   1.338  0.00  0.00    +0.017 C 
ATOM     11  C   UNL     1      15.038   5.129  -0.670  0.00  0.00    +0.114 C 
ATOM     12  C   UNL     1      13.410   3.261  -0.480  0.00  0.00    +0.119 C 
ATOM     13  C   UNL     1      14.385   5.976   1.648  0.00  0.00    +0.130 C 
ATOM     14  C   UNL     1      12.679   4.155   1.748  0.00  0.00    +0.026 A 
ATOM     15  C   UNL     1      11.480   3.704   2.147  0.00  0.00    +0.022 A 
ATOM     16  C   UNL     1      12.160   6.406   2.579  0.00  0.00    +0.259 A 
ATOM     17  C   UNL     1      10.811   5.876   2.980  0.00  0.00    +0.047 A 
ATOM     18  C   UNL     1      10.530   4.582   2.771  0.00  0.00    +0.015 A 
ENDROOT
BRANCH  17  20
ATOM     20  C   UNL     1       9.841   6.735   3.583  0.00  0.00    -0.011 A 
ATOM     23  C   UNL     1       9.711   6.777   4.972  0.00  0.00    +0.027 A 
ATOM     24  C   UNL     1       9.022   7.532   2.784  0.00  0.00    +0.009 A 
ATOM     28  C   UNL     1       8.764   7.614   5.560  0.00  0.00    +0.052 A 
ATOM     29  C   UNL     1       8.074   8.370   3.372  0.00  0.00    +0.002 A 
ATOM     30  C   UNL     1       7.945   8.411   4.760  0.00  0.00    +0.019 A 
BRANCH  28  31
ATOM      7  N   UNL     1       8.525   7.692   8.139  0.00  0.00    -0.191 NA
ATOM     31  C   UNL     1       8.632   7.657   6.983  0.00  0.00    +0.099 C 
ENDBRANCH  28  31
ENDBRANCH  17  20
BRANCH   5   1
ATOM      1  S   UNL     1      13.166   4.912  -2.620  0.00  0.00    +0.061 S 
ATOM      2  O   UNL     1      13.237   3.673  -3.364  0.00  0.00    -0.153 OA
ATOM      3  O   UNL     1      13.806   6.114  -3.113  0.00  0.00    -0.153 OA
BRANCH   1  19
ATOM     19  C   UNL     1      11.461   5.281  -2.347  0.00  0.00    +0.105 A 
ATOM     21  C   UNL     1      11.080   5.887  -1.161  0.00  0.00    +0.028 A 
ATOM     22  C   UNL     1      10.532   4.955  -3.322  0.00  0.00    +0.028 A 
ATOM     25  C   UNL     1       9.733   6.176  -0.944  0.00  0.00    +0.002 A 
ATOM     26  C   UNL     1       9.185   5.244  -3.105  0.00  0.00    +0.002 A 
ATOM     27  C   UNL     1       8.785   5.854  -1.916  0.00  0.00    +0.000 A 
ENDBRANCH   1  19
ENDBRANCH   5   1
TORSDOF 4
ENDMDL
MODEL 3
REMARK VINA RESULT:      -6.8      2.841      7.509
REMARK  Name = 7673830
REMARK  4 active torsions:
REMARK  status: ('A' for Active; 'I' for Inactive)
REMARK    1  A    between atoms: S_1  and  N_5
REMARK    2  A    between atoms: S_1  and  C_19
REMARK    3  A    between atoms: C_17  and  C_20
REMARK    4  A    between atoms: C_28  and  C_31
REMARK                            x       y       z     vdW  Elec       q    Type
REMARK                         _______ _______ _______ _____ _____    ______ ____
ROOT
ATOM      4  O   UNL     1      10.920   6.828   0.929  0.00  0.00    -0.267 OA
ATOM      5  N   UNL     1      11.268   7.102   5.891  0.00  0.00    -0.176 NA
ATOM      6  N   UNL     1      10.268   6.129   3.057  0.00  0.00    -0.311 N 
ATOM      8  C   UNL     1       9.136   7.697   4.737  0.00  0.00    +0.025 C 
ATOM      9  C   UNL     1       9.577   5.361   5.354  0.00  0.00    +0.052 C 
ATOM     10  C   UNL     1       8.487   6.426   5.271  0.00  0.00    +0.017 C 
ATOM     11  C   UNL     1      10.252   8.172   5.681  0.00  0.00    +0.114 C 
ATOM     12  C   UNL     1      10.665   5.813   6.345  0.00  0.00    +0.119 C 
ATOM     13  C   UNL     1       9.645   7.435   3.314  0.00  0.00    +0.130 C 
ATOM     14  C   UNL     1      10.184   5.092   3.990  0.00  0.00    +0.026 A 
ATOM     15  C   UNL     1      10.658   3.873   3.688  0.00  0.00    +0.022 A 
ATOM     16  C   UNL     1      10.856   5.948   1.788  0.00  0.00    +0.259 A 
ATOM     17  C   UNL     1      11.409   4.580   1.497  0.00  0.00    +0.047 A 
ATOM     18  C   UNL     1      11.283   3.616   2.421  0.00  0.00    +0.015 A 
ENDROOT
BRANCH  17  20
ATOM     20  C   UNL     1      12.054   4.305   0.252  0.00  0.00    -0.011 A 
ATOM     23  C   UNL     1      13.441   4.415   0.144  0.00  0.00    +0.027 A 
ATOM     24  C   UNL     1      11.296   3.928  -0.857  0.00  0.00    +0.009 A 
ATOM     28  C   UNL     1      14.069   4.149  -1.072  0.00  0.00    +0.052 A 
ATOM     29  C   UNL     1      11.925   3.662  -2.074  0.00  0.00    +0.002 A 
ATOM     30  C   UNL     1      13.312   3.772  -2.181  0.00  0.00    +0.019 A 
BRANCH  28  31
ATOM      7  N   UNL     1      16.644   4.352  -1.273  0.00  0.00    -0.191 NA
ATOM     31  C   UNL     1      15.490   4.261  -1.183  0.00  0.00    +0.099 C 
ENDBRANCH  28  31
ENDBRANCH  17  20
BRANCH   5   1
ATOM      1  S   UNL     1      12.691   7.582   6.711  0.00  0.00    +0.061 S 
ATOM      2  O   UNL     1      13.078   6.541   7.639  0.00  0.00    -0.153 OA
ATOM      3  O   UNL     1      12.540   8.954   7.151  0.00  0.00    -0.153 OA
BRANCH   1  19
ATOM     19  C   UNL     1      13.841   7.567   5.372  0.00  0.00    +0.105 A 
ATOM     21  C   UNL     1      13.385   7.308   4.090  0.00  0.00    +0.028 A 
ATOM     22  C   UNL     1      15.181   7.810   5.627  0.00  0.00    +0.028 A 
ATOM     25  C   UNL     1      14.294   7.294   3.033  0.00  0.00    +0.002 A 
ATOM     26  C   UNL     1      16.090   7.796   4.569  0.00  0.00    +0.002 A 
ATOM     27  C   UNL     1      15.647   7.538   3.272  0.00  0.00    +0.000 A 
ENDBRANCH   1  19
ENDBRANCH   5   1
TORSDOF 4
ENDMDL
MODEL 4
REMARK VINA RESULT:      -6.7     25.554     28.854
REMARK  Name = 7673830
REMARK  4 active torsions:
REMARK  status: ('A' for Active; 'I' for Inactive)
REMARK    1  A    between atoms: S_1  and  N_5
REMARK    2  A    between atoms: S_1  and  C_19
REMARK    3  A    between atoms: C_17  and  C_20
REMARK    4  A    between atoms: C_28  and  C_31
REMARK                            x       y       z     vdW  Elec       q    Type
REMARK                         _______ _______ _______ _____ _____    ______ ____
ROOT
ATOM      4  O   UNL     1     -14.895   9.395  19.834  0.00  0.00    -0.267 OA
ATOM      5  N   UNL     1     -11.352   9.510  16.333  0.00  0.00    -0.176 NA
ATOM      6  N   UNL     1     -12.648   9.492  19.213  0.00  0.00    -0.311 N 
ATOM      8  C   UNL     1     -11.669  11.446  17.877  0.00  0.00    +0.025 C 
ATOM      9  C   UNL     1     -10.220   9.578  18.544  0.00  0.00    +0.052 C 
ATOM     10  C   UNL     1     -10.368  11.097  18.589  0.00  0.00    +0.017 C 
ATOM     11  C   UNL     1     -11.629  10.973  16.415  0.00  0.00    +0.114 C 
ATOM     12  C   UNL     1     -10.123   9.112  17.081  0.00  0.00    +0.119 C 
ATOM     13  C   UNL     1     -12.841  10.838  18.657  0.00  0.00    +0.130 C 
ATOM     14  C   UNL     1     -11.384   8.895  19.239  0.00  0.00    +0.026 A 
ATOM     15  C   UNL     1     -11.207   7.716  19.855  0.00  0.00    +0.022 A 
ATOM     16  C   UNL     1     -13.773   8.886  19.809  0.00  0.00    +0.259 A 
ATOM     17  C   UNL     1     -13.546   7.549  20.458  0.00  0.00    +0.047 A 
ATOM     18  C   UNL     1     -12.310   7.031  20.472  0.00  0.00    +0.015 A 
ENDROOT
BRANCH  17  20
ATOM     20  C   UNL     1     -14.631   6.839  21.060  0.00  0.00    -0.011 A 
ATOM     23  C   UNL     1     -15.541   6.144  20.262  0.00  0.00    +0.027 A 
ATOM     24  C   UNL     1     -14.781   6.841  22.447  0.00  0.00    +0.009 A 
ATOM     28  C   UNL     1     -16.599   5.453  20.849  0.00  0.00    +0.052 A 
ATOM     29  C   UNL     1     -15.841   6.150  23.035  0.00  0.00    +0.002 A 
ATOM     30  C   UNL     1     -16.750   5.456  22.236  0.00  0.00    +0.019 A 
BRANCH  28  31
ATOM      7  N   UNL     1     -18.287   4.163  19.367  0.00  0.00    -0.191 NA
ATOM     31  C   UNL     1     -17.531   4.741  20.031  0.00  0.00    +0.099 C 
ENDBRANCH  28  31
ENDBRANCH  17  20
BRANCH   5   1
ATOM      1  S   UNL     1     -11.536   8.809  14.783  0.00  0.00    +0.061 S 
ATOM      2  O   UNL     1     -10.611   7.703  14.650  0.00  0.00    -0.153 OA
ATOM      3  O   UNL     1     -11.582   9.863  13.791  0.00  0.00    -0.153 OA
BRANCH   1  19
ATOM     19  C   UNL     1     -13.161   8.137  14.937  0.00  0.00    +0.105 A 
ATOM     21  C   UNL     1     -13.750   7.529  13.841  0.00  0.00    +0.028 A 
ATOM     22  C   UNL     1     -13.821   8.232  16.151  0.00  0.00    +0.028 A 
ATOM     25  C   UNL     1     -15.034   7.000  13.962  0.00  0.00    +0.002 A 
ATOM     26  C   UNL     1     -15.106   7.703  16.272  0.00  0.00    +0.002 A 
ATOM     27  C   UNL     1     -15.713   7.088  15.178  0.00  0.00    +0.000 A 
ENDBRANCH   1  19
ENDBRANCH   5   1
TORSDOF 4
ENDMDL
MODEL 5
REMARK VINA RESULT:      -6.6     27.172     31.345
REMARK  Name = 7673830
REMARK  4 active torsions:
REMARK  status: ('A' for Active; 'I' for Inactive)
REMARK    1  A    between atoms: S_1  and  N_5
REMARK    2  A    between atoms: S_1  and  C_19
REMARK    3  A    between atoms: C_17  and  C_20
REMARK    4  A    between atoms: C_28  and  C_31
REMARK                            x       y       z     vdW  Elec       q    Type
REMARK                         _______ _______ _______ _____ _____    ______ ____
ROOT
ATOM      4  O   UNL     1     -14.507   8.267  18.385  0.00  0.00    -0.267 OA
ATOM      5  N   UNL     1     -16.459   7.703  22.934  0.00  0.00    -0.176 NA
ATOM      6  N   UNL     1     -14.911   6.968  20.280  0.00  0.00    -0.311 N 
ATOM      8  C   UNL     1     -17.273   6.314  21.027  0.00  0.00    +0.025 C 
ATOM      9  C   UNL     1     -15.331   5.570  22.334  0.00  0.00    +0.052 C 
ATOM     10  C   UNL     1     -16.593   5.088  21.623  0.00  0.00    +0.017 C 
ATOM     11  C   UNL     1     -17.653   7.312  22.132  0.00  0.00    +0.114 C 
ATOM     12  C   UNL     1     -15.717   6.526  23.477  0.00  0.00    +0.119 C 
ATOM     13  C   UNL     1     -16.347   6.932  19.972  0.00  0.00    +0.130 C 
ATOM     14  C   UNL     1     -14.388   6.261  21.366  0.00  0.00    +0.026 A 
ATOM     15  C   UNL     1     -13.060   6.212  21.563  0.00  0.00    +0.022 A 
ATOM     16  C   UNL     1     -14.086   7.659  19.370  0.00  0.00    +0.259 A 
ATOM     17  C   UNL     1     -12.607   7.613  19.642  0.00  0.00    +0.047 A 
ATOM     18  C   UNL     1     -12.157   6.903  20.686  0.00  0.00    +0.015 A 
ENDROOT
BRANCH  17  20
ATOM     20  C   UNL     1     -11.691   8.310  18.796  0.00  0.00    -0.011 A 
ATOM     23  C   UNL     1     -11.525   7.915  17.468  0.00  0.00    +0.027 A 
ATOM     24  C   UNL     1     -10.959   9.387  19.298  0.00  0.00    +0.009 A 
ATOM     28  C   UNL     1     -10.629   8.594  16.644  0.00  0.00    +0.052 A 
ATOM     29  C   UNL     1     -10.062  10.067  18.474  0.00  0.00    +0.002 A 
ATOM     30  C   UNL     1      -9.897   9.670  17.146  0.00  0.00    +0.019 A 
BRANCH  28  31
ATOM      7  N   UNL     1     -10.322   7.860  14.178  0.00  0.00    -0.191 NA
ATOM     31  C   UNL     1     -10.459   8.188  15.283  0.00  0.00    +0.099 C 
ENDBRANCH  28  31
ENDBRANCH  17  20
BRANCH   5   1
ATOM      1  S   UNL     1     -16.693   8.999  24.027  0.00  0.00    +0.061 S 
ATOM      2  O   UNL     1     -16.940   8.465  25.349  0.00  0.00    -0.153 OA
ATOM      3  O   UNL     1     -17.598   9.959  23.431  0.00  0.00    -0.153 OA
BRANCH   1  19
ATOM     19  C   UNL     1     -15.075   9.704  24.023  0.00  0.00    +0.105 A 
ATOM     21  C   UNL     1     -14.331   9.688  22.854  0.00  0.00    +0.028 A 
ATOM     22  C   UNL     1     -14.575  10.261  25.189  0.00  0.00    +0.028 A 
ATOM     25  C   UNL     1     -13.052  10.243  22.852  0.00  0.00    +0.002 A 
ATOM     26  C   UNL     1     -13.296  10.816  25.186  0.00  0.00    +0.002 A 
ATOM     27  C   UNL     1     -12.534  10.808  24.018  0.00  0.00    +0.000 A 
ENDBRANCH   1  19
ENDBRANCH   5   1
TORSDOF 4
ENDMDL
MODEL 6
REMARK VINA RESULT:      -6.6     24.133     27.387
REMARK  Name = 7673830
REMARK  4 active torsions:
REMARK  status: ('A' for Active; 'I' for Inactive)
REMARK    1  A    between atoms: S_1  and  N_5
REMARK    2  A    between atoms: S_1  and  C_19
REMARK    3  A    between atoms: C_17  and  C_20
REMARK    4  A    between atoms: C_28  and  C_31
REMARK                            x       y       z     vdW  Elec       q    Type
REMARK                         _______ _______ _______ _____ _____    ______ ____
ROOT
ATOM      4  O   UNL     1      -6.690 -10.483  14.132  0.00  0.00    -0.267 OA
ATOM      5  N   UNL     1      -2.509 -13.019  13.179  0.00  0.00    -0.176 NA
ATOM      6  N   UNL     1      -4.362 -10.648  14.137  0.00  0.00    -0.311 N 
ATOM      8  C   UNL     1      -2.992 -10.880  11.986  0.00  0.00    +0.025 C 
ATOM      9  C   UNL     1      -1.850 -10.833  14.160  0.00  0.00    +0.052 C 
ATOM     10  C   UNL     1      -1.892 -10.185  12.779  0.00  0.00    +0.017 C 
ATOM     11  C   UNL     1      -2.689 -12.380  11.843  0.00  0.00    +0.114 C 
ATOM     12  C   UNL     1      -1.490 -12.323  14.020  0.00  0.00    +0.119 C 
ATOM     13  C   UNL     1      -4.339 -10.617  12.669  0.00  0.00    +0.130 C 
ATOM     14  C   UNL     1      -3.178 -10.676  14.878  0.00  0.00    +0.026 A 
ATOM     15  C   UNL     1      -3.217 -10.587  16.217  0.00  0.00    +0.022 A 
ATOM     16  C   UNL     1      -5.626 -10.542  14.752  0.00  0.00    +0.259 A 
ATOM     17  C   UNL     1      -5.636 -10.481  16.255  0.00  0.00    +0.047 A 
ATOM     18  C   UNL     1      -4.469 -10.491  16.915  0.00  0.00    +0.015 A 
ENDROOT
BRANCH  17  20
ATOM     20  C   UNL     1      -6.869 -10.407  16.973  0.00  0.00    -0.011 A 
ATOM     23  C   UNL     1      -7.728  -9.324  16.777  0.00  0.00    +0.027 A 
ATOM     24  C   UNL     1      -7.215 -11.416  17.872  0.00  0.00    +0.009 A 
ATOM     28  C   UNL     1      -8.930  -9.251  17.479  0.00  0.00    +0.052 A 
ATOM     29  C   UNL     1      -8.418 -11.343  18.574  0.00  0.00    +0.002 A 
ATOM     30  C   UNL     1      -9.276 -10.260  18.378  0.00  0.00    +0.019 A 
BRANCH  28  31
ATOM      7  N   UNL     1     -10.524  -7.242  17.115  0.00  0.00    -0.191 NA
ATOM     31  C   UNL     1      -9.809  -8.142  17.278  0.00  0.00    +0.099 C 
ENDBRANCH  28  31
ENDBRANCH  17  20
BRANCH   5   1
ATOM      1  S   UNL     1      -2.423 -14.728  13.176  0.00  0.00    +0.061 S 
ATOM      2  O   UNL     1      -1.051 -15.134  13.392  0.00  0.00    -0.153 OA
ATOM      3  O   UNL     1      -3.181 -15.236  12.051  0.00  0.00    -0.153 OA
BRANCH   1  19
ATOM     19  C   UNL     1      -3.330 -15.087  14.647  0.00  0.00    +0.105 A 
ATOM     21  C   UNL     1      -4.301 -14.199  15.078  0.00  0.00    +0.028 A 
ATOM     22  C   UNL     1      -3.053 -16.250  15.347  0.00  0.00    +0.028 A 
ATOM     25  C   UNL     1      -5.016 -14.481  16.242  0.00  0.00    +0.002 A 
ATOM     26  C   UNL     1      -3.768 -16.533  16.510  0.00  0.00    +0.002 A 
ATOM     27  C   UNL     1      -4.749 -15.649  16.959  0.00  0.00    +0.000 A 
ENDBRANCH   1  19
ENDBRANCH   5   1
TORSDOF 4
ENDMDL
MODEL 7
REMARK VINA RESULT:      -6.4     32.538     35.089
REMARK  Name = 7673830
REMARK  4 active torsions:
REMARK  status: ('A' for Active; 'I' for Inactive)
REMARK    1  A    between atoms: S_1  and  N_5
REMARK    2  A    between atoms: S_1  and  C_19
REMARK    3  A    between atoms: C_17  and  C_20
REMARK    4  A    between atoms: C_28  and  C_31
REMARK                            x       y       z     vdW  Elec       q    Type
REMARK                         _______ _______ _______ _____ _____    ______ ____
ROOT
ATOM      4  O   UNL     1       9.158 -11.950  31.775  0.00  0.00    -0.267 OA
ATOM      5  N   UNL     1       6.924  -8.975  35.089  0.00  0.00    -0.176 NA
ATOM      6  N   UNL     1       8.406  -9.843  32.438  0.00  0.00    -0.311 N 
ATOM      8  C   UNL     1       9.326  -8.636  34.501  0.00  0.00    +0.025 C 
ATOM      9  C   UNL     1       7.578  -7.571  33.145  0.00  0.00    +0.052 C 
ATOM     10  C   UNL     1       8.966  -7.364  33.744  0.00  0.00    +0.017 C 
ATOM     11  C   UNL     1       8.313  -8.901  35.626  0.00  0.00    +0.114 C 
ATOM     12  C   UNL     1       6.554  -7.779  34.275  0.00  0.00    +0.119 C 
ATOM     13  C   UNL     1       9.414  -9.800  33.506  0.00  0.00    +0.130 C 
ATOM     14  C   UNL     1       7.562  -8.756  32.196  0.00  0.00    +0.026 A 
ATOM     15  C   UNL     1       6.729  -8.769  31.143  0.00  0.00    +0.022 A 
ATOM     16  C   UNL     1       8.408 -10.986  31.612  0.00  0.00    +0.259 A 
ATOM     17  C   UNL     1       7.437 -10.982  30.464  0.00  0.00    +0.047 A 
ATOM     18  C   UNL     1       6.665  -9.904  30.266  0.00  0.00    +0.015 A 
ENDROOT
BRANCH  17  20
ATOM     20  C   UNL     1       7.340 -12.108  29.590  0.00  0.00    -0.011 A 
ATOM     23  C   UNL     1       6.395 -13.106  29.836  0.00  0.00    +0.027 A 
ATOM     24  C   UNL     1       8.190 -12.212  28.489  0.00  0.00    +0.009 A 
ATOM     28  C   UNL     1       6.303 -14.205  28.984  0.00  0.00    +0.052 A 
ATOM     29  C   UNL     1       8.097 -13.312  27.636  0.00  0.00    +0.002 A 
ATOM     30  C   UNL     1       7.153 -14.309  27.883  0.00  0.00    +0.019 A 
BRANCH  28  31
ATOM      7  N   UNL     1       4.550 -16.057  29.442  0.00  0.00    -0.191 NA
ATOM     31  C   UNL     1       5.335 -15.227  29.237  0.00  0.00    +0.099 C 
ENDBRANCH  28  31
ENDBRANCH  17  20
BRANCH   5   1
ATOM      1  S   UNL     1       5.733  -9.519  36.190  0.00  0.00    +0.061 S 
ATOM      2  O   UNL     1       4.765  -8.463  36.401  0.00  0.00    -0.153 OA
ATOM      3  O   UNL     1       6.386 -10.164  37.311  0.00  0.00    -0.153 OA
BRANCH   1  19
ATOM     19  C   UNL     1       4.960 -10.773  35.218  0.00  0.00    +0.105 A 
ATOM     21  C   UNL     1       3.642 -11.113  35.473  0.00  0.00    +0.028 A 
ATOM     22  C   UNL     1       5.686 -11.398  34.218  0.00  0.00    +0.028 A 
ATOM     25  C   UNL     1       3.033 -12.106  34.706  0.00  0.00    +0.002 A 
ATOM     26  C   UNL     1       5.077 -12.391  33.450  0.00  0.00    +0.002 A 
ATOM     27  C   UNL     1       3.750 -12.745  33.694  0.00  0.00    +0.000 A 
ENDBRANCH   1  19
ENDBRANCH   5   1
TORSDOF 4
ENDMDL
MODEL 8
REMARK VINA RESULT:      -6.3      2.846      7.573
REMARK  Name = 7673830
REMARK  4 active torsions:
REMARK  status: ('A' for Active; 'I' for Inactive)
REMARK    1  A    between atoms: S_1  and  N_5
REMARK    2  A    between atoms: S_1  and  C_19
REMARK    3  A    between atoms: C_17  and  C_20
REMARK    4  A    between atoms: C_28  and  C_31
REMARK                            x       y       z     vdW  Elec       q    Type
REMARK                         _______ _______ _______ _____ _____    ______ ____
ROOT
ATOM      4  O   UNL     1      10.215   7.239   1.232  0.00  0.00    -0.267 OA
ATOM      5  N   UNL     1      11.308   7.036   6.088  0.00  0.00    -0.176 NA
ATOM      6  N   UNL     1       9.934   6.289   3.344  0.00  0.00    -0.311 N 
ATOM      8  C   UNL     1       8.997   7.601   5.334  0.00  0.00    +0.025 C 
ATOM      9  C   UNL     1       9.644   5.250   5.621  0.00  0.00    +0.052 C 
ATOM     10  C   UNL     1       8.502   6.243   5.816  0.00  0.00    +0.017 C 
ATOM     11  C   UNL     1      10.219   8.053   6.149  0.00  0.00    +0.114 C 
ATOM     12  C   UNL     1      10.848   5.671   6.482  0.00  0.00    +0.119 C 
ATOM     13  C   UNL     1       9.294   7.518   3.831  0.00  0.00    +0.130 C 
ATOM     14  C   UNL     1      10.047   5.160   4.160  0.00  0.00    +0.026 A 
ATOM     15  C   UNL     1      10.530   4.011   3.660  0.00  0.00    +0.022 A 
ATOM     16  C   UNL     1      10.327   6.275   1.990  0.00  0.00    +0.259 A 
ATOM     17  C   UNL     1      10.897   4.983   1.473  0.00  0.00    +0.047 A 
ATOM     18  C   UNL     1      10.964   3.925   2.294  0.00  0.00    +0.015 A 
ENDROOT
BRANCH  17  20
ATOM     20  C   UNL     1      11.356   4.878   0.124  0.00  0.00    -0.011 A 
ATOM     23  C   UNL     1      10.492   4.425  -0.875  0.00  0.00    +0.027 A 
ATOM     24  C   UNL     1      12.668   5.226  -0.196  0.00  0.00    +0.009 A 
ATOM     28  C   UNL     1      10.940   4.321  -2.191  0.00  0.00    +0.052 A 
ATOM     29  C   UNL     1      13.117   5.122  -1.513  0.00  0.00    +0.002 A 
ATOM     30  C   UNL     1      12.253   4.670  -2.511  0.00  0.00    +0.019 A 
BRANCH  28  31
ATOM      7  N   UNL     1       9.337   3.482  -4.045  0.00  0.00    -0.191 NA
ATOM     31  C   UNL     1      10.056   3.859  -3.214  0.00  0.00    +0.099 C 
ENDBRANCH  28  31
ENDBRANCH  17  20
BRANCH   5   1
ATOM      1  S   UNL     1      12.814   7.525   6.736  0.00  0.00    +0.061 S 
ATOM      2  O   UNL     1      13.286   6.513   7.656  0.00  0.00    -0.153 OA
ATOM      3  O   UNL     1      12.725   8.914   7.138  0.00  0.00    -0.153 OA
BRANCH   1  19
ATOM     19  C   UNL     1      13.817   7.445   5.285  0.00  0.00    +0.105 A 
ATOM     21  C   UNL     1      15.191   7.576   5.403  0.00  0.00    +0.028 A 
ATOM     22  C   UNL     1      13.213   7.253   4.053  0.00  0.00    +0.028 A 
ATOM     25  C   UNL     1      15.983   7.515   4.256  0.00  0.00    +0.002 A 
ATOM     26  C   UNL     1      14.005   7.192   2.907  0.00  0.00    +0.002 A 
ATOM     27  C   UNL     1      15.390   7.323   3.008  0.00  0.00    +0.000 A 
ENDBRANCH   1  19
ENDBRANCH   5   1
TORSDOF 4
ENDMDL
MODEL 9
REMARK VINA RESULT:      -6.3     23.612     25.827
REMARK  Name = 7673830
REMARK  4 active torsions:
REMARK  status: ('A' for Active; 'I' for Inactive)
REMARK    1  A    between atoms: S_1  and  N_5
REMARK    2  A    between atoms: S_1  and  C_19
REMARK    3  A    between atoms: C_17  and  C_20
REMARK    4  A    between atoms: C_28  and  C_31
REMARK                            x       y       z     vdW  Elec       q    Type
REMARK                         _______ _______ _______ _____ _____    ______ ____
ROOT
ATOM      4  O   UNL     1      -5.225 -12.685  10.161  0.00  0.00    -0.267 OA
ATOM      5  N   UNL     1      -3.626 -11.921  14.817  0.00  0.00    -0.176 NA
ATOM      6  N   UNL     1      -3.510 -12.231  11.676  0.00  0.00    -0.311 N 
ATOM      8  C   UNL     1      -2.813 -13.883  13.505  0.00  0.00    +0.025 C 
ATOM      9  C   UNL     1      -1.660 -11.723  13.309  0.00  0.00    +0.052 C 
ATOM     10  C   UNL     1      -1.441 -13.232  13.374  0.00  0.00    +0.017 C 
ATOM     11  C   UNL     1      -3.516 -13.408  14.787  0.00  0.00    +0.114 C 
ATOM     12  C   UNL     1      -2.312 -11.240  14.617  0.00  0.00    +0.119 C 
ATOM     13  C   UNL     1      -3.629 -13.581  12.243  0.00  0.00    +0.130 C 
ATOM     14  C   UNL     1      -2.523 -11.346  12.119  0.00  0.00    +0.026 A 
ATOM     15  C   UNL     1      -2.356 -10.162  11.509  0.00  0.00    +0.022 A 
ATOM     16  C   UNL     1      -4.365 -11.919  10.600  0.00  0.00    +0.259 A 
ATOM     17  C   UNL     1      -4.174 -10.570   9.964  0.00  0.00    +0.047 A 
ATOM     18  C   UNL     1      -3.199  -9.768  10.415  0.00  0.00    +0.015 A 
ENDROOT
BRANCH  17  20
ATOM     20  C   UNL     1      -5.014 -10.147   8.888  0.00  0.00    -0.011 A 
ATOM     23  C   UNL     1      -6.017  -9.203   9.112  0.00  0.00    +0.027 A 
ATOM     24  C   UNL     1      -4.832 -10.679   7.611  0.00  0.00    +0.009 A 
ATOM     28  C   UNL     1      -6.838  -8.793   8.063  0.00  0.00    +0.052 A 
ATOM     29  C   UNL     1      -5.652 -10.268   6.560  0.00  0.00    +0.002 A 
ATOM     30  C   UNL     1      -6.656  -9.325   6.786  0.00  0.00    +0.019 A 
BRANCH  28  31
ATOM      7  N   UNL     1      -8.700  -7.041   8.481  0.00  0.00    -0.191 NA
ATOM     31  C   UNL     1      -7.865  -7.826   8.293  0.00  0.00    +0.099 C 
ENDBRANCH  28  31
ENDBRANCH  17  20
BRANCH   5   1
ATOM      1  S   UNL     1      -4.612 -11.277  16.058  0.00  0.00    +0.061 S 
ATOM      2  O   UNL     1      -3.928 -10.162  16.677  0.00  0.00    -0.153 OA
ATOM      3  O   UNL     1      -5.134 -12.366  16.858  0.00  0.00    -0.153 OA
BRANCH   1  19
ATOM     19  C   UNL     1      -5.941 -10.628  15.094  0.00  0.00    +0.105 A 
ATOM     21  C   UNL     1      -5.716 -10.293  13.769  0.00  0.00    +0.028 A 
ATOM     22  C   UNL     1      -7.185 -10.462  15.680  0.00  0.00    +0.028 A 
ATOM     25  C   UNL     1      -6.765  -9.778  13.008  0.00  0.00    +0.002 A 
ATOM     26  C   UNL     1      -8.234  -9.947  14.919  0.00  0.00    +0.002 A 
ATOM     27  C   UNL     1      -8.025  -9.605  13.583  0.00  0.00    +0.000 A 
ENDBRANCH   1  19
ENDBRANCH   5   1
TORSDOF 4
ENDMDL
MODEL 10
REMARK VINA RESULT:      -6.2     14.235     16.437
REMARK  Name = 7673830
REMARK  4 active torsions:
REMARK  status: ('A' for Active; 'I' for Inactive)
REMARK    1  A    between atoms: S_1  and  N_5
REMARK    2  A    between atoms: S_1  and  C_19
REMARK    3  A    between atoms: C_17  and  C_20
REMARK    4  A    between atoms: C_28  and  C_31
REMARK                            x       y       z     vdW  Elec       q    Type
REMARK                         _______ _______ _______ _____ _____    ______ ____
ROOT
ATOM      4  O   UNL     1      -6.529   9.707   5.469  0.00  0.00    -0.267 OA
ATOM      5  N   UNL     1      -1.836  10.526   4.009  0.00  0.00    -0.176 NA
ATOM      6  N   UNL     1      -4.238   9.306   5.658  0.00  0.00    -0.311 N 
ATOM      8  C   UNL     1      -2.568  11.133   6.317  0.00  0.00    +0.025 C 
ATOM      9  C   UNL     1      -1.766   8.859   5.851  0.00  0.00    +0.052 C 
ATOM     10  C   UNL     1      -1.748   9.982   6.885  0.00  0.00    +0.017 C 
ATOM     11  C   UNL     1      -1.956  11.635   4.999  0.00  0.00    +0.114 C 
ATOM     12  C   UNL     1      -1.102   9.345   4.551  0.00  0.00    +0.119 C 
ATOM     13  C   UNL     1      -4.022  10.674   6.151  0.00  0.00    +0.130 C 
ATOM     14  C   UNL     1      -3.184   8.392   5.577  0.00  0.00    +0.026 A 
ATOM     15  C   UNL     1      -3.423   7.116   5.236  0.00  0.00    +0.022 A 
ATOM     16  C   UNL     1      -5.570   8.939   5.378  0.00  0.00    +0.259 A 
ATOM     17  C   UNL     1      -5.796   7.511   4.964  0.00  0.00    +0.047 A 
ATOM     18  C   UNL     1      -4.752   6.671   4.921  0.00  0.00    +0.015 A 
ENDROOT
BRANCH  17  20
ATOM     20  C   UNL     1      -7.105   7.050   4.626  0.00  0.00    -0.011 A 
ATOM     23  C   UNL     1      -7.751   7.545   3.492  0.00  0.00    +0.027 A 
ATOM     24  C   UNL     1      -7.741   6.104   5.431  0.00  0.00    +0.009 A 
ATOM     28  C   UNL     1      -9.029   7.096   3.164  0.00  0.00    +0.052 A 
ATOM     29  C   UNL     1      -9.020   5.654   5.104  0.00  0.00    +0.002 A 
ATOM     30  C   UNL     1      -9.665   6.150   3.970  0.00  0.00    +0.019 A 
BRANCH  28  31
ATOM      7  N   UNL     1     -10.226   8.015   1.059  0.00  0.00    -0.191 NA
ATOM     31  C   UNL     1      -9.690   7.603   2.002  0.00  0.00    +0.099 C 
ENDBRANCH  28  31
ENDBRANCH  17  20
BRANCH   5   1
ATOM      1  S   UNL     1      -1.412  10.997   2.420  0.00  0.00    +0.061 S 
ATOM      2  O   UNL     1      -0.399  10.096   1.913  0.00  0.00    -0.153 OA
ATOM      3  O   UNL     1      -1.215  12.431   2.390  0.00  0.00    -0.153 OA
BRANCH   1  19
ATOM     19  C   UNL     1      -2.922  10.640   1.577  0.00  0.00    +0.105 A 
ATOM     21  C   UNL     1      -2.931  10.591   0.193  0.00  0.00    +0.028 A 
ATOM     22  C   UNL     1      -4.073  10.416   2.315  0.00  0.00    +0.028 A 
ATOM     25  C   UNL     1      -4.124  10.311  -0.472  0.00  0.00    +0.002 A 
ATOM     26  C   UNL     1      -5.267  10.136   1.650  0.00  0.00    +0.002 A 
ATOM     27  C   UNL     1      -5.293  10.084   0.256  0.00  0.00    +0.000 A 
ENDBRANCH   1  19
ENDBRANCH   5   1
TORSDOF 4
ENDMDL
