MODEL 1
REMARK VINA RESULT:      -7.1      0.000      0.000
REMARK  Name = 71693193
REMARK  15 active torsions:
REMARK  status: ('A' for Active; 'I' for Inactive)
REMARK    1  A    between atoms: O_1  and  C_34
REMARK    2  A    between atoms: O_1  and  C_36
REMARK    3  A    between atoms: N_4  and  C_15
REMARK    4  A    between atoms: N_4  and  C_21
REMARK    5  A    between atoms: N_7  and  C_33
REMARK    6  A    between atoms: C_8  and  C_12
REMARK    7  A    between atoms: C_9  and  C_15
REMARK    8  A    between atoms: C_11  and  C_16
REMARK    9  A    between atoms: C_12  and  C_17
REMARK   10  A    between atoms: C_12  and  C_18
REMARK   11  A    between atoms: C_13  and  C_19
REMARK   12  A    between atoms: C_16  and  C_20
REMARK   13  A    between atoms: C_21  and  C_24
REMARK   14  A    between atoms: C_29  and  C_34
REMARK   15  A    between atoms: C_35  and  C_37
REMARK                            x       y       z     vdW  Elec       q    Type
REMARK                         _______ _______ _______ _____ _____    ______ ____
ROOT
ATOM      8  C   UNL     1      -5.031 -12.438  15.520  0.00  0.00    +0.000 C 
ATOM      9  C   UNL     1      -4.947 -10.924  15.820  0.00  0.00    +0.029 C 
ATOM     10  C   UNL     1      -4.017 -12.828  14.435  0.00  0.00    +0.012 C 
ATOM     11  C   UNL     1      -2.562 -12.456  14.797  0.00  0.00    +0.022 C 
ATOM     13  C   UNL     1      -2.447 -11.106  15.489  0.00  0.00    -0.073 C 
ATOM     14  C   UNL     1      -3.526 -10.432  15.928  0.00  0.00    -0.023 C 
ATOM     19  C   UNL     1      -1.066 -10.562  15.725  0.00  0.00    +0.039 C 
ENDROOT
BRANCH   8  12
ATOM     12  C   UNL     1      -4.831 -13.272  16.792  0.00  0.00    -0.013 C 
ATOM     17  C   UNL     1      -5.752 -12.777  17.903  0.00  0.00    +0.007 C 
ATOM     18  C   UNL     1      -5.077 -14.750  16.504  0.00  0.00    +0.007 C 
ENDBRANCH   8  12
BRANCH   9  15
ATOM     15  C   UNL     1      -5.687 -10.096  14.764  0.00  0.00    +0.089 C 
BRANCH  15   4
ATOM      4  N   UNL     1      -6.902  -9.525  15.319  0.00  0.00    -0.311 NA
ATOM     38  H   UNL     1      -7.698 -10.091  15.023  0.00  0.00    +0.122 HD
BRANCH   4  21
ATOM     21  C   UNL     1      -6.851  -9.500  16.777  0.00  0.00    +0.116 C 
BRANCH  21  24
ATOM     24  C   UNL     1      -8.227  -9.516  17.387  0.00  0.00    -0.033 A 
ATOM     27  C   UNL     1      -8.561 -10.489  18.328  0.00  0.00    +0.007 A 
ATOM     28  C   UNL     1      -9.168  -8.556  17.013  0.00  0.00    +0.007 A 
ATOM     31  C   UNL     1      -9.835 -10.504  18.895  0.00  0.00    +0.023 A 
ATOM     32  C   UNL     1     -10.442  -8.571  17.579  0.00  0.00    +0.023 A 
ATOM     33  C   UNL     1     -10.776  -9.545  18.520  0.00  0.00    +0.033 A 
BRANCH  33   7
ATOM      3  O   UNL     1     -13.431 -10.325  17.333  0.00  0.00    -0.276 OA
ATOM      7  N   UNL     1     -12.051  -9.560  19.085  0.00  0.00    -0.286 N 
ATOM     35  C   UNL     1     -13.260  -9.933  18.483  0.00  0.00    +0.214 C 
ATOM     37  C   UNL     1     -14.421  -9.809  19.436  0.00  0.00    +0.109 C 
ATOM     40  H   UNL     1     -12.099  -9.262  20.057  0.00  0.00    +0.155 HD
ENDBRANCH  33   7
ENDBRANCH  21  24
ENDBRANCH   4  21
ENDBRANCH  15   4
ENDBRANCH   9  15
BRANCH  11  16
ATOM     16  C   UNL     1      -1.704 -12.550  13.528  0.00  0.00    +0.082 C 
BRANCH  16  20
ATOM      5  N   UNL     1      -3.025 -12.457  11.406  0.00  0.00    -0.342 N 
ATOM      6  N   UNL     1      -2.296 -10.506  12.182  0.00  0.00    -0.232 NA
ATOM     20  C   UNL     1      -2.330 -11.804  12.385  0.00  0.00    +0.109 A 
ATOM     22  C   UNL     1      -3.471 -11.517  10.512  0.00  0.00    +0.067 A 
ATOM     23  C   UNL     1      -3.002 -10.308  11.018  0.00  0.00    +0.089 A 
ATOM     25  C   UNL     1      -4.220 -11.618   9.339  0.00  0.00    +0.042 A 
ATOM     26  C   UNL     1      -3.288  -9.119  10.326  0.00  0.00    +0.030 A 
ATOM     29  C   UNL     1      -4.495 -10.425   8.664  0.00  0.00    +0.061 A 
ATOM     30  C   UNL     1      -4.040  -9.196   9.146  0.00  0.00    +0.017 A 
ATOM     39  H   UNL     1      -3.187 -13.453  11.350  0.00  0.00    +0.167 HD
BRANCH  29  34
ATOM      2  O   UNL     1      -5.933  -9.518   6.991  0.00  0.00    -0.245 OA
ATOM     34  C   UNL     1      -5.272 -10.467   7.434  0.00  0.00    +0.339 C 
BRANCH  34   1
ATOM      1  O   UNL     1      -5.181 -11.687   6.823  0.00  0.00    -0.464 OA
ATOM     36  C   UNL     1      -4.624 -11.711   5.505  0.00  0.00    +0.280 C 
ENDBRANCH  34   1
ENDBRANCH  29  34
ENDBRANCH  16  20
ENDBRANCH  11  16
TORSDOF 10
ENDMDL
MODEL 2
REMARK VINA RESULT:      -7.1      2.192      2.568
REMARK  Name = 71693193
REMARK  15 active torsions:
REMARK  status: ('A' for Active; 'I' for Inactive)
REMARK    1  A    between atoms: O_1  and  C_34
REMARK    2  A    between atoms: O_1  and  C_36
REMARK    3  A    between atoms: N_4  and  C_15
REMARK    4  A    between atoms: N_4  and  C_21
REMARK    5  A    between atoms: N_7  and  C_33
REMARK    6  A    between atoms: C_8  and  C_12
REMARK    7  A    between atoms: C_9  and  C_15
REMARK    8  A    between atoms: C_11  and  C_16
REMARK    9  A    between atoms: C_12  and  C_17
REMARK   10  A    between atoms: C_12  and  C_18
REMARK   11  A    between atoms: C_13  and  C_19
REMARK   12  A    between atoms: C_16  and  C_20
REMARK   13  A    between atoms: C_21  and  C_24
REMARK   14  A    between atoms: C_29  and  C_34
REMARK   15  A    between atoms: C_35  and  C_37
REMARK                            x       y       z     vdW  Elec       q    Type
REMARK                         _______ _______ _______ _____ _____    ______ ____
ROOT
ATOM      8  C   UNL     1      -4.823 -12.469  15.572  0.00  0.00    +0.000 C 
ATOM      9  C   UNL     1      -4.732 -10.969  15.935  0.00  0.00    +0.029 C 
ATOM     10  C   UNL     1      -3.883 -12.798  14.403  0.00  0.00    +0.012 C 
ATOM     11  C   UNL     1      -2.411 -12.425  14.680  0.00  0.00    +0.022 C 
ATOM     13  C   UNL     1      -2.259 -11.107  15.424  0.00  0.00    -0.073 C 
ATOM     14  C   UNL     1      -3.310 -10.467  15.968  0.00  0.00    -0.023 C 
ATOM     19  C   UNL     1      -0.869 -10.559  15.590  0.00  0.00    +0.039 C 
ENDROOT
BRANCH   8  12
ATOM     12  C   UNL     1      -4.529 -13.358  16.787  0.00  0.00    -0.013 C 
ATOM     17  C   UNL     1      -4.813 -12.602  18.081  0.00  0.00    +0.007 C 
ATOM     18  C   UNL     1      -5.350 -14.641  16.719  0.00  0.00    +0.007 C 
ENDBRANCH   8  12
BRANCH   9  15
ATOM     15  C   UNL     1      -5.550 -10.102  14.972  0.00  0.00    +0.089 C 
BRANCH  15   4
ATOM      4  N   UNL     1      -6.554  -9.341  15.695  0.00  0.00    -0.311 NA
ATOM     38  H   UNL     1      -6.652  -8.425  15.257  0.00  0.00    +0.122 HD
BRANCH   4  21
ATOM     21  C   UNL     1      -7.844 -10.022  15.673  0.00  0.00    +0.116 C 
BRANCH  21  24
ATOM     24  C   UNL     1      -8.012 -10.945  16.849  0.00  0.00    -0.033 A 
ATOM     27  C   UNL     1      -7.815 -10.467  18.145  0.00  0.00    +0.007 A 
ATOM     28  C   UNL     1      -8.366 -12.279  16.645  0.00  0.00    +0.007 A 
ATOM     31  C   UNL     1      -7.970 -11.321  19.235  0.00  0.00    +0.023 A 
ATOM     32  C   UNL     1      -8.521 -13.134  17.735  0.00  0.00    +0.023 A 
ATOM     33  C   UNL     1      -8.323 -12.656  19.030  0.00  0.00    +0.033 A 
BRANCH  33   7
ATOM      3  O   UNL     1     -10.788 -13.415  20.585  0.00  0.00    -0.276 OA
ATOM      7  N   UNL     1      -8.478 -13.511  20.121  0.00  0.00    -0.286 N 
ATOM     35  C   UNL     1      -9.656 -13.829  20.812  0.00  0.00    +0.214 C 
ATOM     37  C   UNL     1      -9.399 -14.798  21.938  0.00  0.00    +0.109 C 
ATOM     40  H   UNL     1      -7.623 -13.956  20.450  0.00  0.00    +0.155 HD
ENDBRANCH  33   7
ENDBRANCH  21  24
ENDBRANCH   4  21
ENDBRANCH  15   4
ENDBRANCH   9  15
BRANCH  11  16
ATOM     16  C   UNL     1      -1.642 -12.452  13.352  0.00  0.00    +0.082 C 
BRANCH  16  20
ATOM      5  N   UNL     1      -3.108 -12.206  11.340  0.00  0.00    -0.342 N 
ATOM      6  N   UNL     1      -2.280 -10.319  12.174  0.00  0.00    -0.232 NA
ATOM     20  C   UNL     1      -2.329 -11.626  12.303  0.00  0.00    +0.109 A 
ATOM     22  C   UNL     1      -3.593 -11.206  10.537  0.00  0.00    +0.067 A 
ATOM     23  C   UNL     1      -3.062 -10.039  11.078  0.00  0.00    +0.089 A 
ATOM     25  C   UNL     1      -4.426 -11.222   9.417  0.00  0.00    +0.042 A 
ATOM     26  C   UNL     1      -3.368  -8.805  10.479  0.00  0.00    +0.030 A 
ATOM     29  C   UNL     1      -4.720  -9.985   8.835  0.00  0.00    +0.061 A 
ATOM     30  C   UNL     1      -4.203  -8.797   9.354  0.00  0.00    +0.017 A 
ATOM     39  H   UNL     1      -3.297 -13.194  11.237  0.00  0.00    +0.167 HD
BRANCH  29  34
ATOM      2  O   UNL     1      -5.338 -10.503   6.590  0.00  0.00    -0.245 OA
ATOM     34  C   UNL     1      -5.583  -9.938   7.664  0.00  0.00    +0.339 C 
BRANCH  34   1
ATOM      1  O   UNL     1      -6.705  -9.190   7.896  0.00  0.00    -0.464 OA
ATOM     36  C   UNL     1      -7.526  -8.887   6.763  0.00  0.00    +0.280 C 
ENDBRANCH  34   1
ENDBRANCH  29  34
ENDBRANCH  16  20
ENDBRANCH  11  16
TORSDOF 10
ENDMDL
MODEL 3
REMARK VINA RESULT:      -7.1      2.444      8.650
REMARK  Name = 71693193
REMARK  15 active torsions:
REMARK  status: ('A' for Active; 'I' for Inactive)
REMARK    1  A    between atoms: O_1  and  C_34
REMARK    2  A    between atoms: O_1  and  C_36
REMARK    3  A    between atoms: N_4  and  C_15
REMARK    4  A    between atoms: N_4  and  C_21
REMARK    5  A    between atoms: N_7  and  C_33
REMARK    6  A    between atoms: C_8  and  C_12
REMARK    7  A    between atoms: C_9  and  C_15
REMARK    8  A    between atoms: C_11  and  C_16
REMARK    9  A    between atoms: C_12  and  C_17
REMARK   10  A    between atoms: C_12  and  C_18
REMARK   11  A    between atoms: C_13  and  C_19
REMARK   12  A    between atoms: C_16  and  C_20
REMARK   13  A    between atoms: C_21  and  C_24
REMARK   14  A    between atoms: C_29  and  C_34
REMARK   15  A    between atoms: C_35  and  C_37
REMARK                            x       y       z     vdW  Elec       q    Type
REMARK                         _______ _______ _______ _____ _____    ______ ____
ROOT
ATOM      8  C   UNL     1      -4.168 -10.821  17.256  0.00  0.00    +0.000 C 
ATOM      9  C   UNL     1      -3.350 -11.788  16.369  0.00  0.00    +0.029 C 
ATOM     10  C   UNL     1      -5.232 -10.094  16.421  0.00  0.00    +0.012 C 
ATOM     11  C   UNL     1      -6.193 -11.054  15.687  0.00  0.00    +0.022 C 
ATOM     13  C   UNL     1      -5.493 -12.280  15.119  0.00  0.00    -0.073 C 
ATOM     14  C   UNL     1      -4.219 -12.584  15.427  0.00  0.00    -0.023 C 
ATOM     19  C   UNL     1      -6.297 -13.191  14.233  0.00  0.00    +0.039 C 
ENDROOT
BRANCH   8  12
ATOM     12  C   UNL     1      -4.801 -11.553  18.446  0.00  0.00    -0.013 C 
ATOM     17  C   UNL     1      -3.719 -12.156  19.337  0.00  0.00    +0.007 C 
ATOM     18  C   UNL     1      -5.690 -10.604  19.243  0.00  0.00    +0.007 C 
ENDBRANCH   8  12
BRANCH   9  15
ATOM     15  C   UNL     1      -2.279 -11.047  15.562  0.00  0.00    +0.089 C 
BRANCH  15   4
ATOM      4  N   UNL     1      -2.247 -11.527  14.191  0.00  0.00    -0.311 NA
ATOM     38  H   UNL     1      -3.181 -11.843  13.930  0.00  0.00    +0.122 HD
BRANCH   4  21
ATOM     21  C   UNL     1      -1.826 -10.472  13.276  0.00  0.00    +0.116 C 
BRANCH  21  24
ATOM     24  C   UNL     1      -2.798 -10.294  12.140  0.00  0.00    -0.033 A 
ATOM     27  C   UNL     1      -2.432  -9.547  11.021  0.00  0.00    +0.007 A 
ATOM     28  C   UNL     1      -4.064 -10.876  12.206  0.00  0.00    +0.007 A 
ATOM     31  C   UNL     1      -3.331  -9.382   9.968  0.00  0.00    +0.023 A 
ATOM     32  C   UNL     1      -4.963 -10.711  11.154  0.00  0.00    +0.023 A 
ATOM     33  C   UNL     1      -4.597  -9.964  10.035  0.00  0.00    +0.033 A 
BRANCH  33   7
ATOM      3  O   UNL     1      -7.179  -8.421   9.896  0.00  0.00    -0.276 OA
ATOM      7  N   UNL     1      -5.498  -9.798   8.982  0.00  0.00    -0.286 N 
ATOM     35  C   UNL     1      -6.693  -9.066   8.973  0.00  0.00    +0.214 C 
ATOM     37  C   UNL     1      -7.381  -9.136   7.633  0.00  0.00    +0.109 C 
ATOM     40  H   UNL     1      -5.247 -10.272   8.116  0.00  0.00    +0.155 HD
ENDBRANCH  33   7
ENDBRANCH  21  24
ENDBRANCH   4  21
ENDBRANCH  15   4
ENDBRANCH   9  15
BRANCH  11  16
ATOM     16  C   UNL     1      -6.960 -10.259  14.623  0.00  0.00    +0.082 C 
BRANCH  16  20
ATOM      5  N   UNL     1      -9.008  -8.833  14.455  0.00  0.00    -0.342 N 
ATOM      6  N   UNL     1      -8.821 -10.049  16.306  0.00  0.00    -0.232 NA
ATOM     20  C   UNL     1      -8.261  -9.734  15.160  0.00  0.00    +0.109 A 
ATOM     22  C   UNL     1     -10.127  -8.547  15.196  0.00  0.00    +0.067 A 
ATOM     23  C   UNL     1      -9.986  -9.318  16.346  0.00  0.00    +0.089 A 
ATOM     25  C   UNL     1     -11.215  -7.705  14.966  0.00  0.00    +0.042 A 
ATOM     26  C   UNL     1     -10.981  -9.258  17.337  0.00  0.00    +0.030 A 
ATOM     29  C   UNL     1     -12.196  -7.658  15.962  0.00  0.00    +0.061 A 
ATOM     30  C   UNL     1     -12.084  -8.420  17.127  0.00  0.00    +0.017 A 
ATOM     39  H   UNL     1      -8.783  -8.446  13.549  0.00  0.00    +0.167 HD
BRANCH  29  34
ATOM      2  O   UNL     1     -14.447  -6.967  16.338  0.00  0.00    -0.245 OA
ATOM     34  C   UNL     1     -13.355  -6.798  15.779  0.00  0.00    +0.339 C 
BRANCH  34   1
ATOM      1  O   UNL     1     -13.090  -5.774  14.911  0.00  0.00    -0.464 OA
ATOM     36  C   UNL     1     -14.055  -5.532  13.883  0.00  0.00    +0.280 C 
ENDBRANCH  34   1
ENDBRANCH  29  34
ENDBRANCH  16  20
ENDBRANCH  11  16
TORSDOF 10
ENDMDL
MODEL 4
REMARK VINA RESULT:      -7.1      4.215      9.384
REMARK  Name = 71693193
REMARK  15 active torsions:
REMARK  status: ('A' for Active; 'I' for Inactive)
REMARK    1  A    between atoms: O_1  and  C_34
REMARK    2  A    between atoms: O_1  and  C_36
REMARK    3  A    between atoms: N_4  and  C_15
REMARK    4  A    between atoms: N_4  and  C_21
REMARK    5  A    between atoms: N_7  and  C_33
REMARK    6  A    between atoms: C_8  and  C_12
REMARK    7  A    between atoms: C_9  and  C_15
REMARK    8  A    between atoms: C_11  and  C_16
REMARK    9  A    between atoms: C_12  and  C_17
REMARK   10  A    between atoms: C_12  and  C_18
REMARK   11  A    between atoms: C_13  and  C_19
REMARK   12  A    between atoms: C_16  and  C_20
REMARK   13  A    between atoms: C_21  and  C_24
REMARK   14  A    between atoms: C_29  and  C_34
REMARK   15  A    between atoms: C_35  and  C_37
REMARK                            x       y       z     vdW  Elec       q    Type
REMARK                         _______ _______ _______ _____ _____    ______ ____
ROOT
ATOM      8  C   UNL     1     -10.401 -11.461  19.616  0.00  0.00    +0.000 C 
ATOM      9  C   UNL     1      -9.246 -12.255  18.962  0.00  0.00    +0.029 C 
ATOM     10  C   UNL     1     -10.336  -9.983  19.208  0.00  0.00    +0.012 C 
ATOM     11  C   UNL     1     -10.369  -9.769  17.679  0.00  0.00    +0.022 C 
ATOM     13  C   UNL     1      -9.551 -10.801  16.916  0.00  0.00    -0.073 C 
ATOM     14  C   UNL     1      -9.049 -11.899  17.510  0.00  0.00    -0.023 C 
ATOM     19  C   UNL     1      -9.365 -10.587  15.439  0.00  0.00    +0.039 C 
ENDROOT
BRANCH   8  12
ATOM     12  C   UNL     1     -11.766 -12.073  19.273  0.00  0.00    -0.013 C 
ATOM     17  C   UNL     1     -11.752 -13.578  19.521  0.00  0.00    +0.007 C 
ATOM     18  C   UNL     1     -12.869 -11.401  20.084  0.00  0.00    +0.007 C 
ENDBRANCH   8  12
BRANCH   9  15
ATOM     15  C   UNL     1      -7.926 -12.056  19.714  0.00  0.00    +0.089 C 
BRANCH  15   4
ATOM      4  N   UNL     1      -7.526 -10.660  19.687  0.00  0.00    -0.311 NA
ATOM     38  H   UNL     1      -7.932 -10.185  20.494  0.00  0.00    +0.122 HD
BRANCH   4  21
ATOM     21  C   UNL     1      -6.075 -10.529  19.738  0.00  0.00    +0.116 C 
BRANCH  21  24
ATOM     24  C   UNL     1      -5.456 -10.603  18.367  0.00  0.00    -0.033 A 
ATOM     27  C   UNL     1      -4.342 -11.413  18.148  0.00  0.00    +0.007 A 
ATOM     28  C   UNL     1      -5.998  -9.862  17.317  0.00  0.00    +0.007 A 
ATOM     31  C   UNL     1      -3.769 -11.481  16.879  0.00  0.00    +0.023 A 
ATOM     32  C   UNL     1      -5.425  -9.930  16.047  0.00  0.00    +0.023 A 
ATOM     33  C   UNL     1      -4.311 -10.740  15.828  0.00  0.00    +0.033 A 
BRANCH  33   7
ATOM      3  O   UNL     1      -1.545 -10.005  14.891  0.00  0.00    -0.276 OA
ATOM      7  N   UNL     1      -3.737 -10.808  14.558  0.00  0.00    -0.286 N 
ATOM     35  C   UNL     1      -2.437 -10.448  14.176  0.00  0.00    +0.214 C 
ATOM     37  C   UNL     1      -2.205 -10.673  12.703  0.00  0.00    +0.109 C 
ATOM     40  H   UNL     1      -4.346 -11.163  13.824  0.00  0.00    +0.155 HD
ENDBRANCH  33   7
ENDBRANCH  21  24
ENDBRANCH   4  21
ENDBRANCH  15   4
ENDBRANCH   9  15
BRANCH  11  16
ATOM     16  C   UNL     1      -9.940  -8.328  17.377  0.00  0.00    +0.082 C 
BRANCH  16  20
ATOM      5  N   UNL     1     -10.602  -6.557  15.739  0.00  0.00    -0.342 N 
ATOM      6  N   UNL     1     -12.231  -7.908  16.421  0.00  0.00    -0.232 NA
ATOM     20  C   UNL     1     -10.953  -7.620  16.524  0.00  0.00    +0.109 A 
ATOM     22  C   UNL     1     -11.730  -6.130  15.086  0.00  0.00    +0.067 A 
ATOM     23  C   UNL     1     -12.732  -6.988  15.528  0.00  0.00    +0.089 A 
ATOM     25  C   UNL     1     -11.953  -5.097  14.174  0.00  0.00    +0.042 A 
ATOM     26  C   UNL     1     -14.041  -6.821  15.043  0.00  0.00    +0.030 A 
ATOM     29  C   UNL     1     -13.260  -4.946  13.702  0.00  0.00    +0.061 A 
ATOM     30  C   UNL     1     -14.287  -5.791  14.127  0.00  0.00    +0.017 A 
ATOM     39  H   UNL     1      -9.678  -6.157  15.651  0.00  0.00    +0.167 HD
BRANCH  29  34
ATOM      2  O   UNL     1     -12.698  -3.172  12.211  0.00  0.00    -0.245 OA
ATOM     34  C   UNL     1     -13.554  -3.886  12.749  0.00  0.00    +0.339 C 
BRANCH  34   1
ATOM      1  O   UNL     1     -14.898  -3.776  12.518  0.00  0.00    -0.464 OA
ATOM     36  C   UNL     1     -15.305  -2.863  11.493  0.00  0.00    +0.280 C 
ENDBRANCH  34   1
ENDBRANCH  29  34
ENDBRANCH  16  20
ENDBRANCH  11  16
TORSDOF 10
ENDMDL
MODEL 5
REMARK VINA RESULT:      -7.1      2.865      6.356
REMARK  Name = 71693193
REMARK  15 active torsions:
REMARK  status: ('A' for Active; 'I' for Inactive)
REMARK    1  A    between atoms: O_1  and  C_34
REMARK    2  A    between atoms: O_1  and  C_36
REMARK    3  A    between atoms: N_4  and  C_15
REMARK    4  A    between atoms: N_4  and  C_21
REMARK    5  A    between atoms: N_7  and  C_33
REMARK    6  A    between atoms: C_8  and  C_12
REMARK    7  A    between atoms: C_9  and  C_15
REMARK    8  A    between atoms: C_11  and  C_16
REMARK    9  A    between atoms: C_12  and  C_17
REMARK   10  A    between atoms: C_12  and  C_18
REMARK   11  A    between atoms: C_13  and  C_19
REMARK   12  A    between atoms: C_16  and  C_20
REMARK   13  A    between atoms: C_21  and  C_24
REMARK   14  A    between atoms: C_29  and  C_34
REMARK   15  A    between atoms: C_35  and  C_37
REMARK                            x       y       z     vdW  Elec       q    Type
REMARK                         _______ _______ _______ _____ _____    ______ ____
ROOT
ATOM      8  C   UNL     1      -9.667  -9.136  17.476  0.00  0.00    +0.000 C 
ATOM      9  C   UNL     1     -10.084 -10.539  17.975  0.00  0.00    +0.029 C 
ATOM     10  C   UNL     1      -8.329  -9.208  16.726  0.00  0.00    +0.012 C 
ATOM     11  C   UNL     1      -8.349 -10.192  15.536  0.00  0.00    +0.022 C 
ATOM     13  C   UNL     1      -9.119 -11.470  15.831  0.00  0.00    -0.073 C 
ATOM     14  C   UNL     1      -9.880 -11.609  16.932  0.00  0.00    -0.023 C 
ATOM     19  C   UNL     1      -9.054 -12.573  14.811  0.00  0.00    +0.039 C 
ENDROOT
BRANCH   8  12
ATOM     12  C   UNL     1     -10.759  -8.505  16.603  0.00  0.00    -0.013 C 
ATOM     17  C   UNL     1     -12.131  -8.701  17.243  0.00  0.00    +0.007 C 
ATOM     18  C   UNL     1     -10.473  -7.024  16.381  0.00  0.00    +0.007 C 
ENDBRANCH   8  12
BRANCH   9  15
ATOM     15  C   UNL     1      -9.335 -10.932  19.253  0.00  0.00    +0.089 C 
BRANCH  15   4
ATOM      4  N   UNL     1      -9.057 -12.357  19.267  0.00  0.00    -0.311 NA
ATOM     38  H   UNL     1      -9.042 -12.700  18.306  0.00  0.00    +0.122 HD
BRANCH   4  21
ATOM     21  C   UNL     1      -7.770 -12.635  19.894  0.00  0.00    +0.116 C 
BRANCH  21  24
ATOM     24  C   UNL     1      -6.618 -12.224  19.015  0.00  0.00    -0.033 A 
ATOM     27  C   UNL     1      -6.221 -13.042  17.959  0.00  0.00    +0.007 A 
ATOM     28  C   UNL     1      -5.949 -11.024  19.258  0.00  0.00    +0.007 A 
ATOM     31  C   UNL     1      -5.154 -12.662  17.145  0.00  0.00    +0.023 A 
ATOM     32  C   UNL     1      -4.882 -10.644  18.445  0.00  0.00    +0.023 A 
ATOM     33  C   UNL     1      -4.484 -11.462  17.388  0.00  0.00    +0.033 A 
BRANCH  33   7
ATOM      3  O   UNL     1      -3.754 -12.319  14.596  0.00  0.00    -0.276 OA
ATOM      7  N   UNL     1      -3.417 -11.083  16.575  0.00  0.00    -0.286 N 
ATOM     35  C   UNL     1      -3.121 -11.517  15.275  0.00  0.00    +0.214 C 
ATOM     37  C   UNL     1      -1.873 -10.865  14.738  0.00  0.00    +0.109 C 
ATOM     40  H   UNL     1      -2.777 -10.405  16.985  0.00  0.00    +0.155 HD
ENDBRANCH  33   7
ENDBRANCH  21  24
ENDBRANCH   4  21
ENDBRANCH  15   4
ENDBRANCH   9  15
BRANCH  11  16
ATOM     16  C   UNL     1      -6.902 -10.456  15.096  0.00  0.00    +0.082 C 
BRANCH  16  20
ATOM      5  N   UNL     1      -7.687  -9.696  12.847  0.00  0.00    -0.342 N 
ATOM      6  N   UNL     1      -5.485  -9.734  13.144  0.00  0.00    -0.232 NA
ATOM     20  C   UNL     1      -6.653  -9.962  13.700  0.00  0.00    +0.109 A 
ATOM     22  C   UNL     1      -7.149  -9.266  11.660  0.00  0.00    +0.067 A 
ATOM     23  C   UNL     1      -5.774  -9.300  11.871  0.00  0.00    +0.089 A 
ATOM     25  C   UNL     1      -7.730  -8.864  10.457  0.00  0.00    +0.042 A 
ATOM     26  C   UNL     1      -4.911  -8.913  10.831  0.00  0.00    +0.030 A 
ATOM     29  C   UNL     1      -6.857  -8.482   9.433  0.00  0.00    +0.061 A 
ATOM     30  C   UNL     1      -5.473  -8.505   9.615  0.00  0.00    +0.017 A 
ATOM     39  H   UNL     1      -8.673  -9.793  13.050  0.00  0.00    +0.167 HD
BRANCH  29  34
ATOM      2  O   UNL     1      -7.574  -8.799   7.181  0.00  0.00    -0.245 OA
ATOM     34  C   UNL     1      -7.404  -8.054   8.155  0.00  0.00    +0.339 C 
BRANCH  34   1
ATOM      1  O   UNL     1      -7.711  -6.720   8.161  0.00  0.00    -0.464 OA
ATOM     36  C   UNL     1      -9.039  -6.361   7.767  0.00  0.00    +0.280 C 
ENDBRANCH  34   1
ENDBRANCH  29  34
ENDBRANCH  16  20
ENDBRANCH  11  16
TORSDOF 10
ENDMDL
MODEL 6
REMARK VINA RESULT:      -7.0      5.057      9.057
REMARK  Name = 71693193
REMARK  15 active torsions:
REMARK  status: ('A' for Active; 'I' for Inactive)
REMARK    1  A    between atoms: O_1  and  C_34
REMARK    2  A    between atoms: O_1  and  C_36
REMARK    3  A    between atoms: N_4  and  C_15
REMARK    4  A    between atoms: N_4  and  C_21
REMARK    5  A    between atoms: N_7  and  C_33
REMARK    6  A    between atoms: C_8  and  C_12
REMARK    7  A    between atoms: C_9  and  C_15
REMARK    8  A    between atoms: C_11  and  C_16
REMARK    9  A    between atoms: C_12  and  C_17
REMARK   10  A    between atoms: C_12  and  C_18
REMARK   11  A    between atoms: C_13  and  C_19
REMARK   12  A    between atoms: C_16  and  C_20
REMARK   13  A    between atoms: C_21  and  C_24
REMARK   14  A    between atoms: C_29  and  C_34
REMARK   15  A    between atoms: C_35  and  C_37
REMARK                            x       y       z     vdW  Elec       q    Type
REMARK                         _______ _______ _______ _____ _____    ______ ____
ROOT
ATOM      8  C   UNL     1      -9.733 -10.335  16.276  0.00  0.00    +0.000 C 
ATOM      9  C   UNL     1      -9.465  -9.602  17.611  0.00  0.00    +0.029 C 
ATOM     10  C   UNL     1     -11.143 -10.017  15.760  0.00  0.00    +0.012 C 
ATOM     11  C   UNL     1     -11.399  -8.505  15.576  0.00  0.00    +0.022 C 
ATOM     13  C   UNL     1     -10.790  -7.658  16.683  0.00  0.00    -0.073 C 
ATOM     14  C   UNL     1      -9.937  -8.169  17.589  0.00  0.00    -0.023 C 
ATOM     19  C   UNL     1     -11.127  -6.192  16.702  0.00  0.00    +0.039 C 
ENDROOT
BRANCH   8  12
ATOM     12  C   UNL     1      -8.667  -9.992  15.226  0.00  0.00    -0.013 C 
ATOM     17  C   UNL     1      -7.303  -9.822  15.888  0.00  0.00    +0.007 C 
ATOM     18  C   UNL     1      -8.615 -11.071  14.149  0.00  0.00    +0.007 C 
ENDBRANCH   8  12
BRANCH   9  15
ATOM     15  C   UNL     1     -10.113 -10.327  18.795  0.00  0.00    +0.089 C 
BRANCH  15   4
ATOM      4  N   UNL     1      -9.133 -10.586  19.835  0.00  0.00    -0.311 NA
ATOM     38  H   UNL     1      -9.597 -10.547  20.743  0.00  0.00    +0.122 HD
BRANCH   4  21
ATOM     21  C   UNL     1      -8.524 -11.900  19.667  0.00  0.00    +0.116 C 
BRANCH  21  24
ATOM     24  C   UNL     1      -7.168 -11.812  19.020  0.00  0.00    -0.033 A 
ATOM     27  C   UNL     1      -6.318 -10.749  19.325  0.00  0.00    +0.007 A 
ATOM     28  C   UNL     1      -6.760 -12.793  18.117  0.00  0.00    +0.007 A 
ATOM     31  C   UNL     1      -5.061 -10.666  18.727  0.00  0.00    +0.023 A 
ATOM     32  C   UNL     1      -5.504 -12.711  17.517  0.00  0.00    +0.023 A 
ATOM     33  C   UNL     1      -4.654 -11.648  17.822  0.00  0.00    +0.033 A 
BRANCH  33   7
ATOM      3  O   UNL     1      -3.818 -10.439  15.194  0.00  0.00    -0.276 OA
ATOM      7  N   UNL     1      -3.397 -11.565  17.223  0.00  0.00    -0.286 N 
ATOM     35  C   UNL     1      -3.063 -10.990  15.989  0.00  0.00    +0.214 C 
ATOM     37  C   UNL     1      -1.588 -11.105  15.699  0.00  0.00    +0.109 C 
ATOM     40  H   UNL     1      -2.633 -11.977  17.755  0.00  0.00    +0.155 HD
ENDBRANCH  33   7
ENDBRANCH  21  24
ENDBRANCH   4  21
ENDBRANCH  15   4
ENDBRANCH   9  15
BRANCH  11  16
ATOM     16  C   UNL     1     -12.909  -8.281  15.416  0.00  0.00    +0.082 C 
BRANCH  16  20
ATOM      5  N   UNL     1     -12.274  -6.923  13.414  0.00  0.00    -0.342 N 
ATOM      6  N   UNL     1     -14.321  -6.582  14.208  0.00  0.00    -0.232 NA
ATOM     20  C   UNL     1     -13.203  -7.256  14.359  0.00  0.00    +0.109 A 
ATOM     22  C   UNL     1     -12.829  -5.971  12.597  0.00  0.00    +0.067 A 
ATOM     23  C   UNL     1     -14.106  -5.775  13.114  0.00  0.00    +0.089 A 
ATOM     25  C   UNL     1     -12.339  -5.285  11.486  0.00  0.00    +0.042 A 
ATOM     26  C   UNL     1     -14.959  -4.843  12.499  0.00  0.00    +0.030 A 
ATOM     29  C   UNL     1     -13.200  -4.361  10.886  0.00  0.00    +0.061 A 
ATOM     30  C   UNL     1     -14.488  -4.143  11.381  0.00  0.00    +0.017 A 
ATOM     39  H   UNL     1     -11.343  -7.310  13.326  0.00  0.00    +0.167 HD
BRANCH  29  34
ATOM      2  O   UNL     1     -13.474  -3.268   8.784  0.00  0.00    -0.245 OA
ATOM     34  C   UNL     1     -12.745  -3.615   9.723  0.00  0.00    +0.339 C 
BRANCH  34   1
ATOM      1  O   UNL     1     -11.406  -3.340   9.794  0.00  0.00    -0.464 OA
ATOM     36  C   UNL     1     -10.561  -3.992   8.841  0.00  0.00    +0.280 C 
ENDBRANCH  34   1
ENDBRANCH  29  34
ENDBRANCH  16  20
ENDBRANCH  11  16
TORSDOF 10
ENDMDL
MODEL 7
REMARK VINA RESULT:      -7.0      3.410      5.184
REMARK  Name = 71693193
REMARK  15 active torsions:
REMARK  status: ('A' for Active; 'I' for Inactive)
REMARK    1  A    between atoms: O_1  and  C_34
REMARK    2  A    between atoms: O_1  and  C_36
REMARK    3  A    between atoms: N_4  and  C_15
REMARK    4  A    between atoms: N_4  and  C_21
REMARK    5  A    between atoms: N_7  and  C_33
REMARK    6  A    between atoms: C_8  and  C_12
REMARK    7  A    between atoms: C_9  and  C_15
REMARK    8  A    between atoms: C_11  and  C_16
REMARK    9  A    between atoms: C_12  and  C_17
REMARK   10  A    between atoms: C_12  and  C_18
REMARK   11  A    between atoms: C_13  and  C_19
REMARK   12  A    between atoms: C_16  and  C_20
REMARK   13  A    between atoms: C_21  and  C_24
REMARK   14  A    between atoms: C_29  and  C_34
REMARK   15  A    between atoms: C_35  and  C_37
REMARK                            x       y       z     vdW  Elec       q    Type
REMARK                         _______ _______ _______ _____ _____    ______ ____
ROOT
ATOM      8  C   UNL     1      -5.230 -10.740  13.288  0.00  0.00    +0.000 C 
ATOM      9  C   UNL     1      -4.109 -11.804  13.345  0.00  0.00    +0.029 C 
ATOM     10  C   UNL     1      -5.067  -9.852  12.047  0.00  0.00    +0.012 C 
ATOM     11  C   UNL     1      -5.047 -10.648  10.724  0.00  0.00    +0.022 C 
ATOM     13  C   UNL     1      -4.274 -11.955  10.826  0.00  0.00    -0.073 C 
ATOM     14  C   UNL     1      -3.854 -12.448  12.005  0.00  0.00    -0.023 C 
ATOM     19  C   UNL     1      -4.038 -12.724   9.556  0.00  0.00    +0.039 C 
ENDROOT
BRANCH   8  12
ATOM     12  C   UNL     1      -6.620 -11.389  13.327  0.00  0.00    -0.013 C 
ATOM     17  C   UNL     1      -6.660 -12.499  14.373  0.00  0.00    +0.007 C 
ATOM     18  C   UNL     1      -7.690 -10.340  13.610  0.00  0.00    +0.007 C 
ENDBRANCH   8  12
BRANCH   9  15
ATOM     15  C   UNL     1      -2.799 -11.217  13.880  0.00  0.00    +0.089 C 
BRANCH  15   4
ATOM      4  N   UNL     1      -3.063 -10.228  14.911  0.00  0.00    -0.311 NA
ATOM     38  H   UNL     1      -4.004  -9.856  14.778  0.00  0.00    +0.122 HD
BRANCH   4  21
ATOM     21  C   UNL     1      -2.968 -10.820  16.241  0.00  0.00    +0.116 C 
BRANCH  21  24
ATOM     24  C   UNL     1      -4.260 -10.699  17.003  0.00  0.00    -0.033 A 
ATOM     27  C   UNL     1      -5.268  -9.855  16.537  0.00  0.00    +0.007 A 
ATOM     28  C   UNL     1      -4.450 -11.430  18.176  0.00  0.00    +0.007 A 
ATOM     31  C   UNL     1      -6.465  -9.743  17.242  0.00  0.00    +0.023 A 
ATOM     32  C   UNL     1      -5.647 -11.317  18.882  0.00  0.00    +0.023 A 
ATOM     33  C   UNL     1      -6.655 -10.474  18.416  0.00  0.00    +0.033 A 
BRANCH  33   7
ATOM      3  O   UNL     1      -9.043 -12.304  18.520  0.00  0.00    -0.276 OA
ATOM      7  N   UNL     1      -7.852 -10.361  19.122  0.00  0.00    -0.286 N 
ATOM     35  C   UNL     1      -8.938 -11.247  19.133  0.00  0.00    +0.214 C 
ATOM     37  C   UNL     1     -10.048 -10.761  20.030  0.00  0.00    +0.109 C 
ATOM     40  H   UNL     1      -7.939  -9.527  19.700  0.00  0.00    +0.155 HD
ENDBRANCH  33   7
ENDBRANCH  21  24
ENDBRANCH   4  21
ENDBRANCH  15   4
ENDBRANCH   9  15
BRANCH  11  16
ATOM     16  C   UNL     1      -4.524  -9.732   9.609  0.00  0.00    +0.082 C 
BRANCH  16  20
ATOM      5  N   UNL     1      -5.842  -9.285   7.531  0.00  0.00    -0.342 N 
ATOM      6  N   UNL     1      -6.548  -8.253   9.369  0.00  0.00    -0.232 NA
ATOM     20  C   UNL     1      -5.651  -9.072   8.868  0.00  0.00    +0.109 A 
ATOM     22  C   UNL     1      -6.937  -8.555   7.144  0.00  0.00    +0.067 A 
ATOM     23  C   UNL     1      -7.359  -7.920   8.308  0.00  0.00    +0.089 A 
ATOM     25  C   UNL     1      -7.574  -8.399   5.912  0.00  0.00    +0.042 A 
ATOM     26  C   UNL     1      -8.481  -7.075   8.260  0.00  0.00    +0.030 A 
ATOM     29  C   UNL     1      -8.689  -7.555   5.882  0.00  0.00    +0.061 A 
ATOM     30  C   UNL     1      -9.137  -6.905   7.034  0.00  0.00    +0.017 A 
ATOM     39  H   UNL     1      -5.282  -9.876   6.932  0.00  0.00    +0.167 HD
BRANCH  29  34
ATOM      2  O   UNL     1      -8.923  -7.606   3.510  0.00  0.00    -0.245 OA
ATOM     34  C   UNL     1      -9.395  -7.354   4.626  0.00  0.00    +0.339 C 
BRANCH  34   1
ATOM      1  O   UNL     1     -10.650  -6.850   4.830  0.00  0.00    -0.464 OA
ATOM     36  C   UNL     1     -11.624  -7.109   3.813  0.00  0.00    +0.280 C 
ENDBRANCH  34   1
ENDBRANCH  29  34
ENDBRANCH  16  20
ENDBRANCH  11  16
TORSDOF 10
ENDMDL
MODEL 8
REMARK VINA RESULT:      -7.0      3.378      4.994
REMARK  Name = 71693193
REMARK  15 active torsions:
REMARK  status: ('A' for Active; 'I' for Inactive)
REMARK    1  A    between atoms: O_1  and  C_34
REMARK    2  A    between atoms: O_1  and  C_36
REMARK    3  A    between atoms: N_4  and  C_15
REMARK    4  A    between atoms: N_4  and  C_21
REMARK    5  A    between atoms: N_7  and  C_33
REMARK    6  A    between atoms: C_8  and  C_12
REMARK    7  A    between atoms: C_9  and  C_15
REMARK    8  A    between atoms: C_11  and  C_16
REMARK    9  A    between atoms: C_12  and  C_17
REMARK   10  A    between atoms: C_12  and  C_18
REMARK   11  A    between atoms: C_13  and  C_19
REMARK   12  A    between atoms: C_16  and  C_20
REMARK   13  A    between atoms: C_21  and  C_24
REMARK   14  A    between atoms: C_29  and  C_34
REMARK   15  A    between atoms: C_35  and  C_37
REMARK                            x       y       z     vdW  Elec       q    Type
REMARK                         _______ _______ _______ _____ _____    ______ ____
ROOT
ATOM      8  C   UNL     1      -5.053 -12.295  15.644  0.00  0.00    +0.000 C 
ATOM      9  C   UNL     1      -4.923 -10.777  15.907  0.00  0.00    +0.029 C 
ATOM     10  C   UNL     1      -4.050 -12.743  14.571  0.00  0.00    +0.012 C 
ATOM     11  C   UNL     1      -2.585 -12.406  14.925  0.00  0.00    +0.022 C 
ATOM     13  C   UNL     1      -2.429 -11.044  15.585  0.00  0.00    -0.073 C 
ATOM     14  C   UNL     1      -3.487 -10.327  16.006  0.00  0.00    -0.023 C 
ATOM     19  C   UNL     1      -1.032 -10.537  15.810  0.00  0.00    +0.039 C 
ENDROOT
BRANCH   8  12
ATOM     12  C   UNL     1      -4.880 -13.103  16.937  0.00  0.00    -0.013 C 
ATOM     17  C   UNL     1      -5.726 -12.504  18.056  0.00  0.00    +0.007 C 
ATOM     18  C   UNL     1      -5.250 -14.565  16.703  0.00  0.00    +0.007 C 
ENDBRANCH   8  12
BRANCH   9  15
ATOM     15  C   UNL     1      -5.636  -9.952  14.830  0.00  0.00    +0.089 C 
BRANCH  15   4
ATOM      4  N   UNL     1      -6.553 -10.785  14.071  0.00  0.00    -0.311 NA
ATOM     38  H   UNL     1      -6.719 -11.648  14.587  0.00  0.00    +0.122 HD
BRANCH   4  21
ATOM     21  C   UNL     1      -7.825 -10.104  13.858  0.00  0.00    +0.116 C 
BRANCH  21  24
ATOM     24  C   UNL     1      -8.005  -9.686  12.423  0.00  0.00    -0.033 A 
ATOM     27  C   UNL     1      -6.938  -9.124  11.722  0.00  0.00    +0.007 A 
ATOM     28  C   UNL     1      -9.237  -9.861  11.794  0.00  0.00    +0.007 A 
ATOM     31  C   UNL     1      -7.104  -8.737  10.392  0.00  0.00    +0.023 A 
ATOM     32  C   UNL     1      -9.404  -9.474  10.465  0.00  0.00    +0.023 A 
ATOM     33  C   UNL     1      -8.337  -8.912   9.764  0.00  0.00    +0.033 A 
BRANCH  33   7
ATOM      3  O   UNL     1      -8.808  -6.190   8.567  0.00  0.00    -0.276 OA
ATOM      7  N   UNL     1      -8.503  -8.524   8.434  0.00  0.00    -0.286 N 
ATOM     35  C   UNL     1      -8.723  -7.235   7.930  0.00  0.00    +0.214 C 
ATOM     37  C   UNL     1      -8.851  -7.236   6.428  0.00  0.00    +0.109 C 
ATOM     40  H   UNL     1      -8.458  -9.278   7.752  0.00  0.00    +0.155 HD
ENDBRANCH  33   7
ENDBRANCH  21  24
ENDBRANCH   4  21
ENDBRANCH  15   4
ENDBRANCH   9  15
BRANCH  11  16
ATOM     16  C   UNL     1      -1.729 -12.558  13.661  0.00  0.00    +0.082 C 
BRANCH  16  20
ATOM      5  N   UNL     1      -3.029 -12.451  11.527  0.00  0.00    -0.342 N 
ATOM      6  N   UNL     1      -2.246 -10.514  12.285  0.00  0.00    -0.232 NA
ATOM     20  C   UNL     1      -2.322 -11.808  12.503  0.00  0.00    +0.109 A 
ATOM     22  C   UNL     1      -3.438 -11.510  10.617  0.00  0.00    +0.067 A 
ATOM     23  C   UNL     1      -2.937 -10.310  11.112  0.00  0.00    +0.089 A 
ATOM     25  C   UNL     1      -4.179 -11.603   9.439  0.00  0.00    +0.042 A 
ATOM     26  C   UNL     1      -3.180  -9.121  10.402  0.00  0.00    +0.030 A 
ATOM     29  C   UNL     1      -4.412 -10.410   8.746  0.00  0.00    +0.061 A 
ATOM     30  C   UNL     1      -3.923  -9.190   9.217  0.00  0.00    +0.017 A 
ATOM     39  H   UNL     1      -3.221 -13.443  11.481  0.00  0.00    +0.167 HD
BRANCH  29  34
ATOM      2  O   UNL     1      -5.937  -9.540   7.132  0.00  0.00    -0.245 OA
ATOM     34  C   UNL     1      -5.180 -10.444   7.510  0.00  0.00    +0.339 C 
BRANCH  34   1
ATOM      1  O   UNL     1      -4.960 -11.600   6.813  0.00  0.00    -0.464 OA
ATOM     36  C   UNL     1      -4.999 -11.511   5.385  0.00  0.00    +0.280 C 
ENDBRANCH  34   1
ENDBRANCH  29  34
ENDBRANCH  16  20
ENDBRANCH  11  16
TORSDOF 10
ENDMDL
MODEL 9
REMARK VINA RESULT:      -6.9      2.712      4.574
REMARK  Name = 71693193
REMARK  15 active torsions:
REMARK  status: ('A' for Active; 'I' for Inactive)
REMARK    1  A    between atoms: O_1  and  C_34
REMARK    2  A    between atoms: O_1  and  C_36
REMARK    3  A    between atoms: N_4  and  C_15
REMARK    4  A    between atoms: N_4  and  C_21
REMARK    5  A    between atoms: N_7  and  C_33
REMARK    6  A    between atoms: C_8  and  C_12
REMARK    7  A    between atoms: C_9  and  C_15
REMARK    8  A    between atoms: C_11  and  C_16
REMARK    9  A    between atoms: C_12  and  C_17
REMARK   10  A    between atoms: C_12  and  C_18
REMARK   11  A    between atoms: C_13  and  C_19
REMARK   12  A    between atoms: C_16  and  C_20
REMARK   13  A    between atoms: C_21  and  C_24
REMARK   14  A    between atoms: C_29  and  C_34
REMARK   15  A    between atoms: C_35  and  C_37
REMARK                            x       y       z     vdW  Elec       q    Type
REMARK                         _______ _______ _______ _____ _____    ______ ____
ROOT
ATOM      8  C   UNL     1      -3.912 -13.169  12.230  0.00  0.00    +0.000 C 
ATOM      9  C   UNL     1      -3.019 -12.597  13.354  0.00  0.00    +0.029 C 
ATOM     10  C   UNL     1      -4.563 -12.033  11.428  0.00  0.00    +0.012 C 
ATOM     11  C   UNL     1      -3.539 -11.051  10.820  0.00  0.00    +0.022 C 
ATOM     13  C   UNL     1      -2.376 -10.748  11.753  0.00  0.00    -0.073 C 
ATOM     14  C   UNL     1      -2.168 -11.443  12.886  0.00  0.00    -0.023 C 
ATOM     19  C   UNL     1      -1.414  -9.670  11.337  0.00  0.00    +0.039 C 
ENDROOT
BRANCH   8  12
ATOM     12  C   UNL     1      -3.123 -14.114  11.314  0.00  0.00    -0.013 C 
ATOM     17  C   UNL     1      -2.507 -15.250  12.124  0.00  0.00    +0.007 C 
ATOM     18  C   UNL     1      -4.023 -14.661  10.211  0.00  0.00    +0.007 C 
ENDBRANCH   8  12
BRANCH   9  15
ATOM     15  C   UNL     1      -3.846 -12.153  14.565  0.00  0.00    +0.089 C 
BRANCH  15   4
ATOM      4  N   UNL     1      -2.990 -11.931  15.717  0.00  0.00    -0.311 NA
ATOM     38  H   UNL     1      -2.016 -12.021  15.427  0.00  0.00    +0.122 HD
BRANCH   4  21
ATOM     21  C   UNL     1      -3.200 -10.600  16.277  0.00  0.00    +0.116 C 
BRANCH  21  24
ATOM     24  C   UNL     1      -4.490 -10.512  17.046  0.00  0.00    -0.033 A 
ATOM     27  C   UNL     1      -4.603 -11.129  18.292  0.00  0.00    +0.007 A 
ATOM     28  C   UNL     1      -5.574  -9.813  16.514  0.00  0.00    +0.007 A 
ATOM     31  C   UNL     1      -5.798 -11.047  19.006  0.00  0.00    +0.023 A 
ATOM     32  C   UNL     1      -6.769  -9.732  17.227  0.00  0.00    +0.023 A 
ATOM     33  C   UNL     1      -6.882 -10.348  18.473  0.00  0.00    +0.033 A 
BRANCH  33   7
ATOM      3  O   UNL     1      -9.350 -12.068  18.351  0.00  0.00    -0.276 OA
ATOM      7  N   UNL     1      -8.078 -10.267  19.186  0.00  0.00    -0.286 N 
ATOM     35  C   UNL     1      -9.202 -11.098  19.087  0.00  0.00    +0.214 C 
ATOM     37  C   UNL     1     -10.296 -10.675  20.035  0.00  0.00    +0.109 C 
ATOM     40  H   UNL     1      -8.132  -9.506  19.860  0.00  0.00    +0.155 HD
ENDBRANCH  33   7
ENDBRANCH  21  24
ENDBRANCH   4  21
ENDBRANCH  15   4
ENDBRANCH   9  15
BRANCH  11  16
ATOM     16  C   UNL     1      -4.283  -9.788  10.366  0.00  0.00    +0.082 C 
BRANCH  16  20
ATOM      5  N   UNL     1      -5.938  -9.223   8.577  0.00  0.00    -0.342 N 
ATOM      6  N   UNL     1      -4.436 -10.776   8.054  0.00  0.00    -0.232 NA
ATOM     20  C   UNL     1      -4.860  -9.955   8.990  0.00  0.00    +0.109 A 
ATOM     22  C   UNL     1      -6.229  -9.595   7.289  0.00  0.00    +0.067 A 
ATOM     23  C   UNL     1      -5.279 -10.565   6.986  0.00  0.00    +0.089 A 
ATOM     25  C   UNL     1      -7.213  -9.179   6.392  0.00  0.00    +0.042 A 
ATOM     26  C   UNL     1      -5.295 -11.167   5.717  0.00  0.00    +0.030 A 
ATOM     29  C   UNL     1      -7.214  -9.789   5.133  0.00  0.00    +0.061 A 
ATOM     30  C   UNL     1      -6.273 -10.765   4.799  0.00  0.00    +0.017 A 
ATOM     39  H   UNL     1      -6.433  -8.528   9.120  0.00  0.00    +0.167 HD
BRANCH  29  34
ATOM      2  O   UNL     1      -9.415  -9.222   4.411  0.00  0.00    -0.245 OA
ATOM     34  C   UNL     1      -8.217  -9.396   4.154  0.00  0.00    +0.339 C 
BRANCH  34   1
ATOM      1  O   UNL     1      -7.670  -9.241   2.909  0.00  0.00    -0.464 OA
ATOM     36  C   UNL     1      -7.860  -7.972   2.274  0.00  0.00    +0.280 C 
ENDBRANCH  34   1
ENDBRANCH  29  34
ENDBRANCH  16  20
ENDBRANCH  11  16
TORSDOF 10
ENDMDL
MODEL 10
REMARK VINA RESULT:      -6.8      3.066      8.131
REMARK  Name = 71693193
REMARK  15 active torsions:
REMARK  status: ('A' for Active; 'I' for Inactive)
REMARK    1  A    between atoms: O_1  and  C_34
REMARK    2  A    between atoms: O_1  and  C_36
REMARK    3  A    between atoms: N_4  and  C_15
REMARK    4  A    between atoms: N_4  and  C_21
REMARK    5  A    between atoms: N_7  and  C_33
REMARK    6  A    between atoms: C_8  and  C_12
REMARK    7  A    between atoms: C_9  and  C_15
REMARK    8  A    between atoms: C_11  and  C_16
REMARK    9  A    between atoms: C_12  and  C_17
REMARK   10  A    between atoms: C_12  and  C_18
REMARK   11  A    between atoms: C_13  and  C_19
REMARK   12  A    between atoms: C_16  and  C_20
REMARK   13  A    between atoms: C_21  and  C_24
REMARK   14  A    between atoms: C_29  and  C_34
REMARK   15  A    between atoms: C_35  and  C_37
REMARK                            x       y       z     vdW  Elec       q    Type
REMARK                         _______ _______ _______ _____ _____    ______ ____
ROOT
ATOM      8  C   UNL     1     -11.075 -11.319  19.387  0.00  0.00    +0.000 C 
ATOM      9  C   UNL     1     -10.778 -12.427  18.350  0.00  0.00    +0.029 C 
ATOM     10  C   UNL     1     -10.241 -10.066  19.089  0.00  0.00    +0.012 C 
ATOM     11  C   UNL     1     -10.462  -9.509  17.665  0.00  0.00    +0.022 C 
ATOM     13  C   UNL     1     -10.590 -10.600  16.612  0.00  0.00    -0.073 C 
ATOM     14  C   UNL     1     -10.719 -11.899  16.939  0.00  0.00    -0.023 C 
ATOM     19  C   UNL     1     -10.630 -10.173  15.171  0.00  0.00    +0.039 C 
ENDROOT
BRANCH   8  12
ATOM     12  C   UNL     1     -12.572 -10.990  19.440  0.00  0.00    -0.013 C 
ATOM     17  C   UNL     1     -13.385 -12.250  19.723  0.00  0.00    +0.007 C 
ATOM     18  C   UNL     1     -12.845  -9.923  20.495  0.00  0.00    +0.007 C 
ENDBRANCH   8  12
BRANCH   9  15
ATOM     15  C   UNL     1      -9.472 -13.164  18.667  0.00  0.00    +0.089 C 
BRANCH  15   4
ATOM      4  N   UNL     1      -8.956 -13.826  17.481  0.00  0.00    -0.311 NA
ATOM     38  H   UNL     1      -9.313 -13.347  16.654  0.00  0.00    +0.122 HD
BRANCH   4  21
ATOM     21  C   UNL     1      -7.498 -13.798  17.457  0.00  0.00    +0.116 C 
BRANCH  21  24
ATOM     24  C   UNL     1      -6.966 -13.431  16.097  0.00  0.00    -0.033 A 
ATOM     27  C   UNL     1      -5.752 -13.957  15.659  0.00  0.00    +0.007 A 
ATOM     28  C   UNL     1      -7.688 -12.564  15.276  0.00  0.00    +0.007 A 
ATOM     31  C   UNL     1      -5.258 -13.618  14.399  0.00  0.00    +0.023 A 
ATOM     32  C   UNL     1      -7.195 -12.224  14.017  0.00  0.00    +0.023 A 
ATOM     33  C   UNL     1      -5.980 -12.751  13.578  0.00  0.00    +0.033 A 
BRANCH  33   7
ATOM      3  O   UNL     1      -4.966 -10.120  12.522  0.00  0.00    -0.276 OA
ATOM      7  N   UNL     1      -5.486 -12.410  12.319  0.00  0.00    -0.286 N 
ATOM     35  C   UNL     1      -5.027 -11.162  11.878  0.00  0.00    +0.214 C 
ATOM     37  C   UNL     1      -4.574 -11.208  10.441  0.00  0.00    +0.109 C 
ATOM     40  H   UNL     1      -5.461 -13.170  11.641  0.00  0.00    +0.155 HD
ENDBRANCH  33   7
ENDBRANCH  21  24
ENDBRANCH   4  21
ENDBRANCH  15   4
ENDBRANCH   9  15
BRANCH  11  16
ATOM     16  C   UNL     1      -9.342  -8.508  17.352  0.00  0.00    +0.082 C 
BRANCH  16  20
ATOM      5  N   UNL     1      -7.128  -9.032  16.313  0.00  0.00    -0.342 N 
ATOM      6  N   UNL     1      -7.496  -9.925  18.316  0.00  0.00    -0.232 NA
ATOM     20  C   UNL     1      -7.994  -9.171  17.361  0.00  0.00    +0.109 A 
ATOM     22  C   UNL     1      -5.994  -9.745  16.611  0.00  0.00    +0.067 A 
ATOM     23  C   UNL     1      -6.249 -10.293  17.865  0.00  0.00    +0.089 A 
ATOM     25  C   UNL     1      -4.805  -9.952  15.912  0.00  0.00    +0.042 A 
ATOM     26  C   UNL     1      -5.270 -11.097  18.473  0.00  0.00    +0.030 A 
ATOM     29  C   UNL     1      -3.842 -10.754  16.532  0.00  0.00    +0.061 A 
ATOM     30  C   UNL     1      -4.068 -11.318  17.790  0.00  0.00    +0.017 A 
ATOM     39  H   UNL     1      -7.288  -8.499  15.469  0.00  0.00    +0.167 HD
BRANCH  29  34
ATOM      2  O   UNL     1      -1.464 -10.821  16.356  0.00  0.00    -0.245 OA
ATOM     34  C   UNL     1      -2.580 -11.006  15.852  0.00  0.00    +0.339 C 
BRANCH  34   1
ATOM      1  O   UNL     1      -2.779 -11.476  14.582  0.00  0.00    -0.464 OA
ATOM     36  C   UNL     1      -1.826 -12.423  14.087  0.00  0.00    +0.280 C 
ENDBRANCH  34   1
ENDBRANCH  29  34
ENDBRANCH  16  20
ENDBRANCH  11  16
TORSDOF 10
ENDMDL
