MODEL 1
REMARK VINA RESULT:      -7.0      0.000      0.000
REMARK  Name = 7687186
REMARK  3 active torsions:
REMARK  status: ('A' for Active; 'I' for Inactive)
REMARK    1  A    between atoms: C_15  and  C_20
REMARK    2  A    between atoms: C_17  and  C_21
REMARK    3  A    between atoms: C_28  and  C_30
REMARK                            x       y       z     vdW  Elec       q    Type
REMARK                         _______ _______ _______ _____ _____    ______ ____
ROOT
ATOM      1  O   UNL     1      13.370  10.377  16.044  0.00  0.00    -0.268 OA
ATOM      2  O   UNL     1      10.543   8.453  19.765  0.00  0.00    -0.270 OA
ATOM      3  N   UNL     1      12.764   8.001  20.337  0.00  0.00    -0.297 N 
ATOM      4  N   UNL     1      14.289   9.459  17.993  0.00  0.00    -0.311 N 
ATOM      8  C   UNL     1      14.082   6.954  18.515  0.00  0.00    +0.027 C 
ATOM      9  C   UNL     1      15.198   8.458  20.110  0.00  0.00    +0.054 C 
ATOM     10  C   UNL     1      15.359   7.164  19.313  0.00  0.00    +0.018 C 
ATOM     11  C   UNL     1      12.868   6.842  19.453  0.00  0.00    +0.113 C 
ATOM     12  C   UNL     1      13.934   8.111  17.525  0.00  0.00    +0.130 C 
ATOM     13  C   UNL     1      13.995   8.326  21.071  0.00  0.00    +0.117 C 
ATOM     14  C   UNL     1      15.003   9.668  19.190  0.00  0.00    +0.034 A 
ATOM     15  C   UNL     1      15.455  10.913  19.500  0.00  0.00    +0.005 A 
ATOM     16  C   UNL     1      13.978  10.506  17.106  0.00  0.00    +0.252 A 
ATOM     17  C   UNL     1      11.572   8.728  20.380  0.00  0.00    +0.247 C 
ATOM     18  C   UNL     1      15.147  12.017  18.609  0.00  0.00    +0.015 A 
ATOM     19  C   UNL     1      14.444  11.857  17.490  0.00  0.00    +0.071 A 
ENDROOT
BRANCH  15  20
ATOM      5  N   UNL     1      16.299  11.828  22.996  0.00  0.00    -0.243 NA
ATOM      6  N   UNL     1      18.307  11.123  21.866  0.00  0.00    -0.243 NA
ATOM     20  C   UNL     1      16.212  11.144  20.702  0.00  0.00    +0.020 A 
ATOM     22  C   UNL     1      15.620  11.601  21.853  0.00  0.00    +0.122 A 
ATOM     23  C   UNL     1      17.565  10.918  20.757  0.00  0.00    +0.122 A 
ATOM     29  C   UNL     1      17.619  11.571  22.933  0.00  0.00    +0.221 A 
ENDBRANCH  15  20
BRANCH  17  21
ATOM     21  C   UNL     1      11.525   9.938  21.211  0.00  0.00    +0.037 A 
ATOM     24  C   UNL     1      10.963   9.881  22.485  0.00  0.00    +0.014 A 
ATOM     25  C   UNL     1      12.042  11.134  20.723  0.00  0.00    +0.014 A 
ATOM     26  C   UNL     1      10.918  11.029  23.274  0.00  0.00    +0.019 A 
ATOM     27  C   UNL     1      11.997  12.283  21.513  0.00  0.00    +0.019 A 
ATOM     28  C   UNL     1      11.434  12.231  22.788  0.00  0.00    +0.052 A 
BRANCH  28  30
ATOM      7  N   UNL     1      11.353  14.366  24.254  0.00  0.00    -0.191 NA
ATOM     30  C   UNL     1      11.390  13.408  23.597  0.00  0.00    +0.099 C 
ENDBRANCH  28  30
ENDBRANCH  17  21
TORSDOF 3
ENDMDL
MODEL 2
REMARK VINA RESULT:      -6.4     14.021     16.910
REMARK  Name = 7687186
REMARK  3 active torsions:
REMARK  status: ('A' for Active; 'I' for Inactive)
REMARK    1  A    between atoms: C_15  and  C_20
REMARK    2  A    between atoms: C_17  and  C_21
REMARK    3  A    between atoms: C_28  and  C_30
REMARK                            x       y       z     vdW  Elec       q    Type
REMARK                         _______ _______ _______ _____ _____    ______ ____
ROOT
ATOM      1  O   UNL     1      10.658   5.224   8.530  0.00  0.00    -0.268 OA
ATOM      2  O   UNL     1      10.688  10.242   7.931  0.00  0.00    -0.270 OA
ATOM      3  N   UNL     1      11.881   9.365   6.121  0.00  0.00    -0.297 N 
ATOM      4  N   UNL     1      11.538   6.271   6.629  0.00  0.00    -0.311 N 
ATOM      8  C   UNL     1      13.640   7.738   6.766  0.00  0.00    +0.027 C 
ATOM      9  C   UNL     1      12.463   7.467   4.623  0.00  0.00    +0.054 C 
ATOM     10  C   UNL     1      13.826   7.355   5.307  0.00  0.00    +0.018 C 
ATOM     11  C   UNL     1      13.113   9.179   6.886  0.00  0.00    +0.113 C 
ATOM     12  C   UNL     1      12.694   6.728   7.417  0.00  0.00    +0.130 C 
ATOM     13  C   UNL     1      11.954   8.923   4.721  0.00  0.00    +0.117 C 
ATOM     14  C   UNL     1      11.439   6.511   5.244  0.00  0.00    +0.034 A 
ATOM     15  C   UNL     1      10.440   5.929   4.526  0.00  0.00    +0.005 A 
ATOM     16  C   UNL     1      10.611   5.476   7.327  0.00  0.00    +0.252 A 
ATOM     17  C   UNL     1      10.747   9.873   6.759  0.00  0.00    +0.247 C 
ATOM     18  C   UNL     1       9.463   5.107   5.216  0.00  0.00    +0.015 A 
ATOM     19  C   UNL     1       9.510   4.891   6.529  0.00  0.00    +0.071 A 
ENDROOT
BRANCH  15  20
ATOM      5  N   UNL     1      10.920   5.494   0.872  0.00  0.00    -0.243 NA
ATOM      6  N   UNL     1       9.462   7.374   1.251  0.00  0.00    -0.243 NA
ATOM     20  C   UNL     1      10.338   6.136   3.106  0.00  0.00    +0.020 A 
ATOM     22  C   UNL     1      10.993   5.328   2.209  0.00  0.00    +0.122 A 
ATOM     23  C   UNL     1       9.580   7.151   2.577  0.00  0.00    +0.122 A 
ATOM     29  C   UNL     1      10.148   6.519   0.468  0.00  0.00    +0.221 A 
ENDBRANCH  15  20
BRANCH  17  21
ATOM     21  C   UNL     1       9.500   9.967   5.989  0.00  0.00    +0.037 A 
ATOM     24  C   UNL     1       9.133  11.181   5.412  0.00  0.00    +0.014 A 
ATOM     25  C   UNL     1       8.692   8.843   5.838  0.00  0.00    +0.014 A 
ATOM     26  C   UNL     1       7.950  11.271   4.680  0.00  0.00    +0.019 A 
ATOM     27  C   UNL     1       7.508   8.934   5.107  0.00  0.00    +0.019 A 
ATOM     28  C   UNL     1       7.137  10.148   4.528  0.00  0.00    +0.052 A 
BRANCH  28  30
ATOM      7  N   UNL     1       4.938  10.313   3.168  0.00  0.00    -0.191 NA
ATOM     30  C   UNL     1       5.924  10.239   3.778  0.00  0.00    +0.099 C 
ENDBRANCH  28  30
ENDBRANCH  17  21
TORSDOF 3
ENDMDL
MODEL 3
REMARK VINA RESULT:      -6.3      2.390      5.017
REMARK  Name = 7687186
REMARK  3 active torsions:
REMARK  status: ('A' for Active; 'I' for Inactive)
REMARK    1  A    between atoms: C_15  and  C_20
REMARK    2  A    between atoms: C_17  and  C_21
REMARK    3  A    between atoms: C_28  and  C_30
REMARK                            x       y       z     vdW  Elec       q    Type
REMARK                         _______ _______ _______ _____ _____    ______ ____
ROOT
ATOM      1  O   UNL     1      10.874   9.806  22.071  0.00  0.00    -0.268 OA
ATOM      2  O   UNL     1      14.198   6.204  20.838  0.00  0.00    -0.270 OA
ATOM      3  N   UNL     1      14.026   7.597  18.968  0.00  0.00    -0.297 N 
ATOM      4  N   UNL     1      12.082   9.825  20.065  0.00  0.00    -0.311 N 
ATOM      8  C   UNL     1      11.693   8.046  18.256  0.00  0.00    +0.027 C 
ATOM      9  C   UNL     1      13.413   9.774  17.935  0.00  0.00    +0.054 C 
ATOM     10  C   UNL     1      12.187   9.119  17.299  0.00  0.00    +0.018 C 
ATOM     11  C   UNL     1      12.784   6.989  18.496  0.00  0.00    +0.113 C 
ATOM     12  C   UNL     1      11.254   8.720  19.557  0.00  0.00    +0.130 C 
ATOM     13  C   UNL     1      14.516   8.712  18.145  0.00  0.00    +0.117 C 
ATOM     14  C   UNL     1      13.069  10.443  19.270  0.00  0.00    +0.034 A 
ATOM     15  C   UNL     1      13.693  11.565  19.718  0.00  0.00    +0.005 A 
ATOM     16  C   UNL     1      11.735  10.299  21.343  0.00  0.00    +0.252 A 
ATOM     17  C   UNL     1      14.609   7.138  20.152  0.00  0.00    +0.247 C 
ATOM     18  C   UNL     1      13.363  12.078  21.036  0.00  0.00    +0.015 A 
ATOM     19  C   UNL     1      12.461  11.495  21.823  0.00  0.00    +0.071 A 
ENDROOT
BRANCH  15  20
ATOM      5  N   UNL     1      16.977  12.589  18.325  0.00  0.00    -0.243 NA
ATOM      6  N   UNL     1      15.231  13.786  17.174  0.00  0.00    -0.243 NA
ATOM     20  C   UNL     1      14.681  12.230  18.911  0.00  0.00    +0.020 A 
ATOM     22  C   UNL     1      16.024  11.984  19.064  0.00  0.00    +0.122 A 
ATOM     23  C   UNL     1      14.332  13.143  17.948  0.00  0.00    +0.122 A 
ATOM     29  C   UNL     1      16.517  13.464  17.412  0.00  0.00    +0.221 A 
ENDBRANCH  15  20
BRANCH  17  21
ATOM     21  C   UNL     1      15.808   7.825  20.648  0.00  0.00    +0.037 A 
ATOM     24  C   UNL     1      15.679   9.018  21.356  0.00  0.00    +0.014 A 
ATOM     25  C   UNL     1      17.067   7.281  20.410  0.00  0.00    +0.014 A 
ATOM     26  C   UNL     1      16.817   9.671  21.828  0.00  0.00    +0.019 A 
ATOM     27  C   UNL     1      18.205   7.935  20.881  0.00  0.00    +0.019 A 
ATOM     28  C   UNL     1      18.080   9.130  21.589  0.00  0.00    +0.052 A 
BRANCH  28  30
ATOM      7  N   UNL     1      20.196  10.341  22.467  0.00  0.00    -0.191 NA
ATOM     30  C   UNL     1      19.247   9.798  22.073  0.00  0.00    +0.099 C 
ENDBRANCH  28  30
ENDBRANCH  17  21
TORSDOF 3
ENDMDL
MODEL 4
REMARK VINA RESULT:      -6.1     28.262     30.250
REMARK  Name = 7687186
REMARK  3 active torsions:
REMARK  status: ('A' for Active; 'I' for Inactive)
REMARK    1  A    between atoms: C_15  and  C_20
REMARK    2  A    between atoms: C_17  and  C_21
REMARK    3  A    between atoms: C_28  and  C_30
REMARK                            x       y       z     vdW  Elec       q    Type
REMARK                         _______ _______ _______ _____ _____    ______ ____
ROOT
ATOM      1  O   UNL     1      -6.647 -14.940  16.689  0.00  0.00    -0.268 OA
ATOM      2  O   UNL     1      -8.032 -10.695  19.055  0.00  0.00    -0.270 OA
ATOM      3  N   UNL     1      -6.174 -10.135  17.752  0.00  0.00    -0.297 N 
ATOM      4  N   UNL     1      -5.652 -12.864  16.259  0.00  0.00    -0.311 N 
ATOM      8  C   UNL     1      -4.242 -11.666  18.039  0.00  0.00    +0.027 C 
ATOM      9  C   UNL     1      -4.635 -10.603  15.855  0.00  0.00    +0.054 C 
ATOM     10  C   UNL     1      -3.551 -11.022  16.848  0.00  0.00    +0.018 C 
ATOM     11  C   UNL     1      -5.207 -10.672  18.708  0.00  0.00    +0.113 C 
ATOM     12  C   UNL     1      -4.964 -12.926  17.558  0.00  0.00    +0.130 C 
ATOM     13  C   UNL     1      -5.582  -9.582  16.525  0.00  0.00    +0.117 C 
ATOM     14  C   UNL     1      -5.436 -11.808  15.351  0.00  0.00    +0.034 A 
ATOM     15  C   UNL     1      -5.962 -11.874  14.098  0.00  0.00    +0.005 A 
ATOM     16  C   UNL     1      -6.437 -13.987  15.939  0.00  0.00    +0.252 A 
ATOM     17  C   UNL     1      -7.540 -10.232  18.028  0.00  0.00    +0.247 C 
ATOM     18  C   UNL     1      -6.782 -13.017  13.737  0.00  0.00    +0.015 A 
ATOM     19  C   UNL     1      -7.033 -14.012  14.586  0.00  0.00    +0.071 A 
ENDROOT
BRANCH  15  20
ATOM      5  N   UNL     1      -6.438  -8.797  12.080  0.00  0.00    -0.243 NA
ATOM      6  N   UNL     1      -4.346  -9.820  11.463  0.00  0.00    -0.243 NA
ATOM     20  C   UNL     1      -5.728 -10.823  13.145  0.00  0.00    +0.020 A 
ATOM     22  C   UNL     1      -6.625  -9.798  12.965  0.00  0.00    +0.122 A 
ATOM     23  C   UNL     1      -4.597 -10.791  12.367  0.00  0.00    +0.122 A 
ATOM     29  C   UNL     1      -5.294  -8.868  11.374  0.00  0.00    +0.221 A 
ENDBRANCH  15  20
BRANCH  17  21
ATOM     21  C   UNL     1      -8.489  -9.764  17.011  0.00  0.00    +0.037 A 
ATOM     24  C   UNL     1      -8.874 -10.616  15.978  0.00  0.00    +0.014 A 
ATOM     25  C   UNL     1      -9.000  -8.471  17.083  0.00  0.00    +0.014 A 
ATOM     26  C   UNL     1      -9.776 -10.172  15.012  0.00  0.00    +0.019 A 
ATOM     27  C   UNL     1      -9.901  -8.026  16.116  0.00  0.00    +0.019 A 
ATOM     28  C   UNL     1     -10.289  -8.877  15.080  0.00  0.00    +0.052 A 
BRANCH  28  30
ATOM      7  N   UNL     1     -11.966  -8.049  13.287  0.00  0.00    -0.191 NA
ATOM     30  C   UNL     1     -11.214  -8.420  14.091  0.00  0.00    +0.099 C 
ENDBRANCH  28  30
ENDBRANCH  17  21
TORSDOF 3
ENDMDL
MODEL 5
REMARK VINA RESULT:      -6.1     14.028     17.374
REMARK  Name = 7687186
REMARK  3 active torsions:
REMARK  status: ('A' for Active; 'I' for Inactive)
REMARK    1  A    between atoms: C_15  and  C_20
REMARK    2  A    between atoms: C_17  and  C_21
REMARK    3  A    between atoms: C_28  and  C_30
REMARK                            x       y       z     vdW  Elec       q    Type
REMARK                         _______ _______ _______ _____ _____    ______ ____
ROOT
ATOM      1  O   UNL     1       7.302   8.882   4.252  0.00  0.00    -0.268 OA
ATOM      2  O   UNL     1      11.226   9.805   7.301  0.00  0.00    -0.270 OA
ATOM      3  N   UNL     1      11.269   7.509   6.865  0.00  0.00    -0.297 N 
ATOM      4  N   UNL     1       8.882   7.249   4.820  0.00  0.00    -0.311 N 
ATOM      8  C   UNL     1       9.092   6.373   7.224  0.00  0.00    +0.027 C 
ATOM      9  C   UNL     1      10.615   5.552   5.475  0.00  0.00    +0.054 C 
ATOM     10  C   UNL     1       9.634   5.116   6.563  0.00  0.00    +0.018 C 
ATOM     11  C   UNL     1      10.233   7.194   7.848  0.00  0.00    +0.113 C 
ATOM     12  C   UNL     1       8.318   7.176   6.176  0.00  0.00    +0.130 C 
ATOM     13  C   UNL     1      11.774   6.351   6.114  0.00  0.00    +0.117 C 
ATOM     14  C   UNL     1       9.926   6.400   4.400  0.00  0.00    +0.034 A 
ATOM     15  C   UNL     1      10.303   6.385   3.093  0.00  0.00    +0.005 A 
ATOM     16  C   UNL     1       8.226   8.130   3.941  0.00  0.00    +0.252 A 
ATOM     17  C   UNL     1      11.650   8.838   6.671  0.00  0.00    +0.247 C 
ATOM     18  C   UNL     1       9.651   7.287   2.161  0.00  0.00    +0.015 A 
ATOM     19  C   UNL     1       8.686   8.126   2.535  0.00  0.00    +0.071 A 
ENDROOT
BRANCH  15  20
ATOM      5  N   UNL     1      12.102   3.296   2.098  0.00  0.00    -0.243 NA
ATOM      6  N   UNL     1      13.590   5.177   1.864  0.00  0.00    -0.243 NA
ATOM     20  C   UNL     1      11.345   5.505   2.637  0.00  0.00    +0.020 A 
ATOM     22  C   UNL     1      11.148   4.150   2.522  0.00  0.00    +0.122 A 
ATOM     23  C   UNL     1      12.589   5.974   2.295  0.00  0.00    +0.122 A 
ATOM     29  C   UNL     1      13.281   3.868   1.790  0.00  0.00    +0.221 A 
ENDBRANCH  15  20
BRANCH  17  21
ATOM     21  C   UNL     1      12.629   9.133   5.616  0.00  0.00    +0.037 A 
ATOM     24  C   UNL     1      12.196   9.341   4.308  0.00  0.00    +0.014 A 
ATOM     25  C   UNL     1      13.984   9.204   5.928  0.00  0.00    +0.014 A 
ATOM     26  C   UNL     1      13.124   9.621   3.307  0.00  0.00    +0.019 A 
ATOM     27  C   UNL     1      14.912   9.484   4.926  0.00  0.00    +0.019 A 
ATOM     28  C   UNL     1      14.483   9.692   3.616  0.00  0.00    +0.052 A 
BRANCH  28  30
ATOM      7  N   UNL     1      16.211  10.214   1.757  0.00  0.00    -0.191 NA
ATOM     30  C   UNL     1      15.435   9.980   2.590  0.00  0.00    +0.099 C 
ENDBRANCH  28  30
ENDBRANCH  17  21
TORSDOF 3
ENDMDL
MODEL 6
REMARK VINA RESULT:      -6.0     27.227     30.416
REMARK  Name = 7687186
REMARK  3 active torsions:
REMARK  status: ('A' for Active; 'I' for Inactive)
REMARK    1  A    between atoms: C_15  and  C_20
REMARK    2  A    between atoms: C_17  and  C_21
REMARK    3  A    between atoms: C_28  and  C_30
REMARK                            x       y       z     vdW  Elec       q    Type
REMARK                         _______ _______ _______ _____ _____    ______ ____
ROOT
ATOM      1  O   UNL     1      -1.514 -15.238  14.089  0.00  0.00    -0.268 OA
ATOM      2  O   UNL     1      -1.835 -10.868  16.606  0.00  0.00    -0.270 OA
ATOM      3  N   UNL     1      -3.199 -10.633  14.721  0.00  0.00    -0.297 N 
ATOM      4  N   UNL     1      -2.975 -13.518  13.465  0.00  0.00    -0.311 N 
ATOM      8  C   UNL     1      -2.094 -11.270  12.593  0.00  0.00    +0.027 C 
ATOM      9  C   UNL     1      -4.514 -11.626  12.859  0.00  0.00    +0.054 C 
ATOM     10  C   UNL     1      -3.430 -11.192  11.872  0.00  0.00    +0.018 C 
ATOM     11  C   UNL     1      -2.085 -10.342  13.820  0.00  0.00    +0.113 C 
ATOM     12  C   UNL     1      -1.834 -12.727  12.976  0.00  0.00    +0.130 C 
ATOM     13  C   UNL     1      -4.518 -10.672  14.074  0.00  0.00    +0.117 C 
ATOM     14  C   UNL     1      -4.305 -13.071  13.327  0.00  0.00    +0.034 A 
ATOM     15  C   UNL     1      -5.334 -13.903  13.640  0.00  0.00    +0.005 A 
ATOM     16  C   UNL     1      -2.655 -14.794  13.961  0.00  0.00    +0.252 A 
ATOM     17  C   UNL     1      -2.940 -10.902  16.068  0.00  0.00    +0.247 C 
ATOM     18  C   UNL     1      -5.039 -15.226  14.159  0.00  0.00    +0.015 A 
ATOM     19  C   UNL     1      -3.793 -15.662  14.334  0.00  0.00    +0.071 A 
ENDROOT
BRANCH  15  20
ATOM      5  N   UNL     1      -8.703 -12.548  14.405  0.00  0.00    -0.243 NA
ATOM      6  N   UNL     1      -8.626 -13.188  12.084  0.00  0.00    -0.243 NA
ATOM     20  C   UNL     1      -6.699 -13.478  13.478  0.00  0.00    +0.020 A 
ATOM     22  C   UNL     1      -7.422 -12.956  14.522  0.00  0.00    +0.122 A 
ATOM     23  C   UNL     1      -7.347 -13.575  12.271  0.00  0.00    +0.122 A 
ATOM     29  C   UNL     1      -9.235 -12.690  13.177  0.00  0.00    +0.221 A 
ENDBRANCH  15  20
BRANCH  17  21
ATOM     21  C   UNL     1      -4.068 -11.276  16.930  0.00  0.00    +0.037 A 
ATOM     24  C   UNL     1      -4.458 -12.611  17.020  0.00  0.00    +0.014 A 
ATOM     25  C   UNL     1      -4.743 -10.297  17.654  0.00  0.00    +0.014 A 
ATOM     26  C   UNL     1      -5.528 -12.967  17.839  0.00  0.00    +0.019 A 
ATOM     27  C   UNL     1      -5.814 -10.653  18.472  0.00  0.00    +0.019 A 
ATOM     28  C   UNL     1      -6.207 -11.988  18.564  0.00  0.00    +0.052 A 
BRANCH  28  30
ATOM      7  N   UNL     1      -8.196 -12.648  20.088  0.00  0.00    -0.191 NA
ATOM     30  C   UNL     1      -7.304 -12.352  19.404  0.00  0.00    +0.099 C 
ENDBRANCH  28  30
ENDBRANCH  17  21
TORSDOF 3
ENDMDL
MODEL 7
REMARK VINA RESULT:      -5.8     24.404     27.153
REMARK  Name = 7687186
REMARK  3 active torsions:
REMARK  status: ('A' for Active; 'I' for Inactive)
REMARK    1  A    between atoms: C_15  and  C_20
REMARK    2  A    between atoms: C_17  and  C_21
REMARK    3  A    between atoms: C_28  and  C_30
REMARK                            x       y       z     vdW  Elec       q    Type
REMARK                         _______ _______ _______ _____ _____    ______ ____
ROOT
ATOM      1  O   UNL     1     -14.188  10.620  15.065  0.00  0.00    -0.268 OA
ATOM      2  O   UNL     1     -10.758   7.588  17.205  0.00  0.00    -0.270 OA
ATOM      3  N   UNL     1     -10.584   9.644  18.305  0.00  0.00    -0.297 N 
ATOM      4  N   UNL     1     -12.928  11.250  16.935  0.00  0.00    -0.311 N 
ATOM      8  C   UNL     1     -10.388  11.591  16.780  0.00  0.00    +0.027 C 
ATOM      9  C   UNL     1     -11.537  11.852  18.939  0.00  0.00    +0.054 C 
ATOM     10  C   UNL     1     -10.590  12.536  17.953  0.00  0.00    +0.018 C 
ATOM     11  C   UNL     1      -9.778  10.260  17.253  0.00  0.00    +0.113 C 
ATOM     12  C   UNL     1     -11.735  11.386  16.085  0.00  0.00    +0.130 C 
ATOM     13  C   UNL     1     -10.904  10.531  19.432  0.00  0.00    +0.117 C 
ATOM     14  C   UNL     1     -12.905  11.573  18.307  0.00  0.00    +0.034 A 
ATOM     15  C   UNL     1     -14.065  11.591  19.017  0.00  0.00    +0.005 A 
ATOM     16  C   UNL     1     -14.111  10.897  16.262  0.00  0.00    +0.252 A 
ATOM     17  C   UNL     1     -11.027   8.329  18.149  0.00  0.00    +0.247 C 
ATOM     18  C   UNL     1     -15.304  11.228  18.354  0.00  0.00    +0.015 A 
ATOM     19  C   UNL     1     -15.351  10.883  17.068  0.00  0.00    +0.071 A 
ENDROOT
BRANCH  15  20
ATOM      5  N   UNL     1     -14.148  13.627  22.119  0.00  0.00    -0.243 NA
ATOM      6  N   UNL     1     -14.004  11.297  22.716  0.00  0.00    -0.243 NA
ATOM     20  C   UNL     1     -14.070  11.948  20.411  0.00  0.00    +0.020 A 
ATOM     22  C   UNL     1     -14.141  13.257  20.821  0.00  0.00    +0.122 A 
ATOM     23  C   UNL     1     -14.002  10.999  21.400  0.00  0.00    +0.122 A 
ATOM     29  C   UNL     1     -14.078  12.612  23.000  0.00  0.00    +0.221 A 
ENDBRANCH  15  20
BRANCH  17  21
ATOM     21  C   UNL     1     -11.907   7.765  19.181  0.00  0.00    +0.037 A 
ATOM     24  C   UNL     1     -13.286   7.940  19.086  0.00  0.00    +0.014 A 
ATOM     25  C   UNL     1     -11.360   7.059  20.249  0.00  0.00    +0.014 A 
ATOM     26  C   UNL     1     -14.122   7.405  20.065  0.00  0.00    +0.019 A 
ATOM     27  C   UNL     1     -12.196   6.525  21.229  0.00  0.00    +0.019 A 
ATOM     28  C   UNL     1     -13.577   6.698  21.137  0.00  0.00    +0.052 A 
BRANCH  28  30
ATOM      7  N   UNL     1     -15.129   5.701  22.957  0.00  0.00    -0.191 NA
ATOM     30  C   UNL     1     -14.433   6.149  22.141  0.00  0.00    +0.099 C 
ENDBRANCH  28  30
ENDBRANCH  17  21
TORSDOF 3
ENDMDL
MODEL 8
REMARK VINA RESULT:      -5.7     27.296     30.429
REMARK  Name = 7687186
REMARK  3 active torsions:
REMARK  status: ('A' for Active; 'I' for Inactive)
REMARK    1  A    between atoms: C_15  and  C_20
REMARK    2  A    between atoms: C_17  and  C_21
REMARK    3  A    between atoms: C_28  and  C_30
REMARK                            x       y       z     vdW  Elec       q    Type
REMARK                         _______ _______ _______ _____ _____    ______ ____
ROOT
ATOM      1  O   UNL     1      -3.274 -15.390  15.103  0.00  0.00    -0.268 OA
ATOM      2  O   UNL     1      -3.139 -11.886  18.742  0.00  0.00    -0.270 OA
ATOM      3  N   UNL     1      -3.767 -10.768  16.787  0.00  0.00    -0.297 N 
ATOM      4  N   UNL     1      -3.965 -13.178  14.763  0.00  0.00    -0.311 N 
ATOM      8  C   UNL     1      -2.295 -11.230  14.844  0.00  0.00    +0.027 C 
ATOM      9  C   UNL     1      -4.687 -10.789  14.477  0.00  0.00    +0.054 C 
ATOM     10  C   UNL     1      -3.285 -10.535  13.924  0.00  0.00    +0.018 C 
ATOM     11  C   UNL     1      -2.401 -10.674  16.275  0.00  0.00    +0.113 C 
ATOM     12  C   UNL     1      -2.563 -12.735  14.795  0.00  0.00    +0.130 C 
ATOM     13  C   UNL     1      -4.795 -10.202  15.902  0.00  0.00    +0.117 C 
ATOM     14  C   UNL     1      -5.023 -12.284  14.500  0.00  0.00    +0.034 A 
ATOM     15  C   UNL     1      -6.283 -12.762  14.315  0.00  0.00    +0.005 A 
ATOM     16  C   UNL     1      -4.162 -14.565  14.887  0.00  0.00    +0.252 A 
ATOM     17  C   UNL     1      -4.002 -11.413  18.004  0.00  0.00    +0.247 C 
ATOM     18  C   UNL     1      -6.522 -14.189  14.442  0.00  0.00    +0.015 A 
ATOM     19  C   UNL     1      -5.549 -15.053  14.725  0.00  0.00    +0.071 A 
ENDROOT
BRANCH  15  20
ATOM      5  N   UNL     1      -8.639 -10.613  12.417  0.00  0.00    -0.243 NA
ATOM      6  N   UNL     1      -9.239 -10.561  14.750  0.00  0.00    -0.243 NA
ATOM     20  C   UNL     1      -7.372 -11.871  14.015  0.00  0.00    +0.020 A 
ATOM     22  C   UNL     1      -7.628 -11.448  12.734  0.00  0.00    +0.122 A 
ATOM     23  C   UNL     1      -8.209 -11.399  14.995  0.00  0.00    +0.122 A 
ATOM     29  C   UNL     1      -9.395 -10.215  13.458  0.00  0.00    +0.221 A 
ENDBRANCH  15  20
BRANCH  17  21
ATOM     21  C   UNL     1      -5.391 -11.569  18.451  0.00  0.00    +0.037 A 
ATOM     24  C   UNL     1      -5.960 -10.611  19.289  0.00  0.00    +0.014 A 
ATOM     25  C   UNL     1      -6.135 -12.670  18.035  0.00  0.00    +0.014 A 
ATOM     26  C   UNL     1      -7.280 -10.758  19.714  0.00  0.00    +0.019 A 
ATOM     27  C   UNL     1      -7.454 -12.817  18.461  0.00  0.00    +0.019 A 
ATOM     28  C   UNL     1      -8.027 -11.861  19.301  0.00  0.00    +0.052 A 
BRANCH  28  30
ATOM      7  N   UNL     1     -10.480 -12.134  20.089  0.00  0.00    -0.191 NA
ATOM     30  C   UNL     1      -9.380 -12.012  19.735  0.00  0.00    +0.099 C 
ENDBRANCH  28  30
ENDBRANCH  17  21
TORSDOF 3
ENDMDL
MODEL 9
REMARK VINA RESULT:      -5.7     27.659     29.859
REMARK  Name = 7687186
REMARK  3 active torsions:
REMARK  status: ('A' for Active; 'I' for Inactive)
REMARK    1  A    between atoms: C_15  and  C_20
REMARK    2  A    between atoms: C_17  and  C_21
REMARK    3  A    between atoms: C_28  and  C_30
REMARK                            x       y       z     vdW  Elec       q    Type
REMARK                         _______ _______ _______ _____ _____    ______ ____
ROOT
ATOM      1  O   UNL     1      -1.589  -9.919  11.853  0.00  0.00    -0.268 OA
ATOM      2  O   UNL     1      -6.468  -8.828  12.588  0.00  0.00    -0.270 OA
ATOM      3  N   UNL     1      -6.353 -11.149  12.330  0.00  0.00    -0.297 N 
ATOM      4  N   UNL     1      -3.236 -11.566  12.093  0.00  0.00    -0.311 N 
ATOM      8  C   UNL     1      -5.077 -11.879  10.331  0.00  0.00    +0.027 C 
ATOM      9  C   UNL     1      -5.060 -13.273  12.358  0.00  0.00    +0.054 C 
ATOM     10  C   UNL     1      -5.108 -13.314  10.831  0.00  0.00    +0.018 C 
ATOM     11  C   UNL     1      -6.283 -11.090  10.871  0.00  0.00    +0.113 C 
ATOM     12  C   UNL     1      -3.748 -11.249  10.751  0.00  0.00    +0.130 C 
ATOM     13  C   UNL     1      -6.290 -12.505  12.893  0.00  0.00    +0.117 C 
ATOM     14  C   UNL     1      -3.772 -12.617  12.865  0.00  0.00    +0.034 A 
ATOM     15  C   UNL     1      -3.162 -12.982  14.026  0.00  0.00    +0.005 A 
ATOM     16  C   UNL     1      -2.103 -10.835  12.494  0.00  0.00    +0.252 A 
ATOM     17  C   UNL     1      -6.415  -9.961  13.063  0.00  0.00    +0.247 C 
ATOM     18  C   UNL     1      -1.994 -12.245  14.471  0.00  0.00    +0.015 A 
ATOM     19  C   UNL     1      -1.487 -11.225  13.781  0.00  0.00    +0.071 A 
ENDROOT
BRANCH  15  20
ATOM      5  N   UNL     1      -5.075 -14.866  16.587  0.00  0.00    -0.243 NA
ATOM      6  N   UNL     1      -3.743 -16.415  15.310  0.00  0.00    -0.243 NA
ATOM     20  C   UNL     1      -3.673 -14.072  14.814  0.00  0.00    +0.020 A 
ATOM     22  C   UNL     1      -4.576 -13.868  15.829  0.00  0.00    +0.122 A 
ATOM     23  C   UNL     1      -3.284 -15.369  14.591  0.00  0.00    +0.122 A 
ATOM     29  C   UNL     1      -4.623 -16.096  16.278  0.00  0.00    +0.221 A 
ENDBRANCH  15  20
BRANCH  17  21
ATOM     21  C   UNL     1      -6.397 -10.048  14.528  0.00  0.00    +0.037 A 
ATOM     24  C   UNL     1      -5.183 -10.174  15.200  0.00  0.00    +0.014 A 
ATOM     25  C   UNL     1      -7.593 -10.003  15.240  0.00  0.00    +0.014 A 
ATOM     26  C   UNL     1      -5.165 -10.256  16.592  0.00  0.00    +0.019 A 
ATOM     27  C   UNL     1      -7.575 -10.086  16.632  0.00  0.00    +0.019 A 
ATOM     28  C   UNL     1      -6.362 -10.213  17.308  0.00  0.00    +0.052 A 
BRANCH  28  30
ATOM      7  N   UNL     1      -6.332 -10.365  19.894  0.00  0.00    -0.191 NA
ATOM     30  C   UNL     1      -6.345 -10.297  18.734  0.00  0.00    +0.099 C 
ENDBRANCH  28  30
ENDBRANCH  17  21
TORSDOF 3
ENDMDL
MODEL 10
REMARK VINA RESULT:      -5.6     25.700     28.043
REMARK  Name = 7687186
REMARK  3 active torsions:
REMARK  status: ('A' for Active; 'I' for Inactive)
REMARK    1  A    between atoms: C_15  and  C_20
REMARK    2  A    between atoms: C_17  and  C_21
REMARK    3  A    between atoms: C_28  and  C_30
REMARK                            x       y       z     vdW  Elec       q    Type
REMARK                         _______ _______ _______ _____ _____    ______ ____
ROOT
ATOM      1  O   UNL     1     -10.700   7.699  17.720  0.00  0.00    -0.268 OA
ATOM      2  O   UNL     1     -12.919  12.218  18.156  0.00  0.00    -0.270 OA
ATOM      3  N   UNL     1     -14.610  10.632  18.461  0.00  0.00    -0.297 N 
ATOM      4  N   UNL     1     -12.943   7.958  18.342  0.00  0.00    -0.311 N 
ATOM      8  C   UNL     1     -14.684   8.886  16.700  0.00  0.00    +0.027 C 
ATOM      9  C   UNL     1     -15.340   8.318  19.001  0.00  0.00    +0.054 C 
ATOM     10  C   UNL     1     -15.677   8.088  17.528  0.00  0.00    +0.018 C 
ATOM     11  C   UNL     1     -14.783  10.386  17.031  0.00  0.00    +0.113 C 
ATOM     12  C   UNL     1     -13.281   8.336  16.961  0.00  0.00    +0.130 C 
ATOM     13  C   UNL     1     -15.471   9.821  19.333  0.00  0.00    +0.117 C 
ATOM     14  C   UNL     1     -13.928   7.827  19.341  0.00  0.00    +0.034 A 
ATOM     15  C   UNL     1     -13.596   7.316  20.557  0.00  0.00    +0.005 A 
ATOM     16  C   UNL     1     -11.596   7.617  18.560  0.00  0.00    +0.252 A 
ATOM     17  C   UNL     1     -13.638  11.540  18.888  0.00  0.00    +0.247 C 
ATOM     18  C   UNL     1     -12.213   6.959  20.817  0.00  0.00    +0.015 A 
ATOM     19  C   UNL     1     -11.253   7.105  19.905  0.00  0.00    +0.071 A 
ENDROOT
BRANCH  15  20
ATOM      5  N   UNL     1     -16.298   5.815  22.609  0.00  0.00    -0.243 NA
ATOM      6  N   UNL     1     -15.752   7.985  23.502  0.00  0.00    -0.243 NA
ATOM     20  C   UNL     1     -14.591   7.145  21.581  0.00  0.00    +0.020 A 
ATOM     22  C   UNL     1     -15.356   6.008  21.663  0.00  0.00    +0.122 A 
ATOM     23  C   UNL     1     -14.826   8.111  22.528  0.00  0.00    +0.122 A 
ATOM     29  C   UNL     1     -16.441   6.828  23.484  0.00  0.00    +0.221 A 
ENDBRANCH  15  20
BRANCH  17  21
ATOM     21  C   UNL     1     -13.427  11.703  20.332  0.00  0.00    +0.037 A 
ATOM     24  C   UNL     1     -12.534  10.868  21.000  0.00  0.00    +0.014 A 
ATOM     25  C   UNL     1     -14.119  12.691  21.027  0.00  0.00    +0.014 A 
ATOM     26  C   UNL     1     -12.332  11.022  22.371  0.00  0.00    +0.019 A 
ATOM     27  C   UNL     1     -13.918  12.845  22.398  0.00  0.00    +0.019 A 
ATOM     28  C   UNL     1     -13.025  12.010  23.070  0.00  0.00    +0.052 A 
BRANCH  28  30
ATOM      7  N   UNL     1     -12.651  12.299  25.618  0.00  0.00    -0.191 NA
ATOM     30  C   UNL     1     -12.819  12.170  24.475  0.00  0.00    +0.099 C 
ENDBRANCH  28  30
ENDBRANCH  17  21
TORSDOF 3
ENDMDL
