MODEL 1
REMARK VINA RESULT:      -7.1      0.000      0.000
REMARK  Name = 45360841
REMARK  8 active torsions:
REMARK  status: ('A' for Active; 'I' for Inactive)
REMARK    1  A    between atoms: N_4  and  C_15
REMARK    2  A    between atoms: N_5  and  C_17
REMARK    3  A    between atoms: N_7  and  C_26
REMARK    4  A    between atoms: C_12  and  C_16
REMARK    5  A    between atoms: C_15  and  C_19
REMARK    6  A    between atoms: C_16  and  C_18
REMARK    7  A    between atoms: C_18  and  C_20
REMARK    8  A    between atoms: C_26  and  C_27
REMARK                            x       y       z     vdW  Elec       q    Type
REMARK                         _______ _______ _______ _____ _____    ______ ____
ROOT
ATOM      1  O   UNL     1     -12.795   4.879  22.253  0.00  0.00    -0.274 OA
ATOM      4  N   UNL     1     -14.067   6.957  21.090  0.00  0.00    -0.286 NA
ATOM      5  N   UNL     1     -16.633   4.492  21.943  0.00  0.00    -0.296 NA
ATOM      6  N   UNL     1     -14.429   4.483  23.804  0.00  0.00    -0.312 N 
ATOM      8  C   UNL     1     -16.160   5.864  21.655  0.00  0.00    +0.084 C 
ATOM      9  C   UNL     1     -14.770   6.299  22.208  0.00  0.00    +0.161 C 
ATOM     10  C   UNL     1     -16.018   6.174  20.153  0.00  0.00    +0.036 C 
ATOM     11  C   UNL     1     -15.083   7.363  20.125  0.00  0.00    +0.087 C 
ATOM     12  C   UNL     1     -16.856   4.208  23.388  0.00  0.00    +0.074 C 
ATOM     13  C   UNL     1     -13.895   5.160  22.724  0.00  0.00    +0.232 C 
ATOM     14  C   UNL     1     -15.756   4.737  24.330  0.00  0.00    +0.123 C 
ATOM     17  C   UNL     1     -17.850   4.186  21.170  0.00  0.00    +0.105 C 
ATOM     31  H   UNL     1     -13.886   3.727  24.211  0.00  0.00    +0.149 HD
ENDROOT
BRANCH   4  15
ATOM     15  C   UNL     1     -13.232   8.075  21.512  0.00  0.00    +0.120 C 
BRANCH  15  19
ATOM     19  C   UNL     1     -12.232   8.458  20.453  0.00  0.00    -0.033 A 
ATOM     21  C   UNL     1     -11.756   9.768  20.386  0.00  0.00    +0.005 A 
ATOM     22  C   UNL     1     -11.781   7.505  19.540  0.00  0.00    +0.005 A 
ATOM     23  C   UNL     1     -10.830  10.124  19.406  0.00  0.00    +0.000 A 
ATOM     24  C   UNL     1     -10.856   7.861  18.560  0.00  0.00    +0.000 A 
ATOM     25  C   UNL     1     -10.380   9.170  18.492  0.00  0.00    +0.000 A 
ENDBRANCH  15  19
ENDBRANCH   4  15
BRANCH  12  16
ATOM     16  C   UNL     1     -16.979   2.688  23.626  0.00  0.00    +0.029 C 
BRANCH  16  18
ATOM     18  C   UNL     1     -17.700   2.406  24.932  0.00  0.00    +0.097 C 
BRANCH  18  20
ATOM      2  O   UNL     1     -16.342   0.443  25.339  0.00  0.00    -0.276 OA
ATOM      7  N   UNL     1     -16.983   1.766  27.136  0.00  0.00    -0.308 N 
ATOM     20  C   UNL     1     -16.931   1.421  25.793  0.00  0.00    +0.213 C 
ATOM     32  H   UNL     1     -17.481   2.605  27.419  0.00  0.00    +0.149 HD
BRANCH   7  26
ATOM     26  C   UNL     1     -16.329   0.984  28.158  0.00  0.00    +0.178 C 
BRANCH  26  27
ATOM      3  O   UNL     1     -14.505   1.168  29.760  0.00  0.00    -0.466 OA
ATOM     27  C   UNL     1     -15.439   1.830  29.029  0.00  0.00    +0.122 A 
ATOM     28  C   UNL     1     -15.360   3.185  29.258  0.00  0.00    +0.046 A 
ATOM     29  C   UNL     1     -14.311   3.366  30.189  0.00  0.00    +0.041 A 
ATOM     30  C   UNL     1     -13.822   2.109  30.463  0.00  0.00    +0.195 A 
ENDBRANCH  26  27
ENDBRANCH   7  26
ENDBRANCH  18  20
ENDBRANCH  16  18
ENDBRANCH  12  16
TORSDOF 7
ENDMDL
MODEL 2
REMARK VINA RESULT:      -7.0     27.445     31.294
REMARK  Name = 45360841
REMARK  8 active torsions:
REMARK  status: ('A' for Active; 'I' for Inactive)
REMARK    1  A    between atoms: N_4  and  C_15
REMARK    2  A    between atoms: N_5  and  C_17
REMARK    3  A    between atoms: N_7  and  C_26
REMARK    4  A    between atoms: C_12  and  C_16
REMARK    5  A    between atoms: C_15  and  C_19
REMARK    6  A    between atoms: C_16  and  C_18
REMARK    7  A    between atoms: C_18  and  C_20
REMARK    8  A    between atoms: C_26  and  C_27
REMARK                            x       y       z     vdW  Elec       q    Type
REMARK                         _______ _______ _______ _____ _____    ______ ____
ROOT
ATOM      1  O   UNL     1      17.798   6.127  19.234  0.00  0.00    -0.274 OA
ATOM      4  N   UNL     1      18.506   7.712  21.301  0.00  0.00    -0.286 NA
ATOM      5  N   UNL     1      15.370   9.049  19.973  0.00  0.00    -0.296 NA
ATOM      6  N   UNL     1      15.557   6.184  19.693  0.00  0.00    -0.312 N 
ATOM      8  C   UNL     1      16.371   8.837  21.042  0.00  0.00    +0.084 C 
ATOM      9  C   UNL     1      17.064   7.447  21.142  0.00  0.00    +0.161 C 
ATOM     10  C   UNL     1      17.577   9.792  20.966  0.00  0.00    +0.036 C 
ATOM     11  C   UNL     1      18.638   9.084  21.780  0.00  0.00    +0.087 C 
ATOM     12  C   UNL     1      14.157   8.190  20.085  0.00  0.00    +0.074 C 
ATOM     13  C   UNL     1      16.872   6.540  19.929  0.00  0.00    +0.232 C 
ATOM     14  C   UNL     1      14.438   6.718  20.444  0.00  0.00    +0.123 C 
ATOM     17  C   UNL     1      14.982  10.468  19.892  0.00  0.00    +0.105 C 
ATOM     31  H   UNL     1      15.362   5.562  18.914  0.00  0.00    +0.149 HD
ENDROOT
BRANCH   4  15
ATOM     15  C   UNL     1      19.176   6.759  22.176  0.00  0.00    +0.120 C 
BRANCH  15  19
ATOM     19  C   UNL     1      20.573   6.452  21.705  0.00  0.00    -0.033 A 
ATOM     21  C   UNL     1      21.657   7.154  22.232  0.00  0.00    +0.005 A 
ATOM     22  C   UNL     1      20.785   5.463  20.743  0.00  0.00    +0.005 A 
ATOM     23  C   UNL     1      22.951   6.871  21.796  0.00  0.00    +0.000 A 
ATOM     24  C   UNL     1      22.078   5.180  20.308  0.00  0.00    +0.000 A 
ATOM     25  C   UNL     1      23.162   5.883  20.833  0.00  0.00    +0.000 A 
ENDBRANCH  15  19
ENDBRANCH   4  15
BRANCH  12  16
ATOM     16  C   UNL     1      13.363   8.203  18.762  0.00  0.00    +0.029 C 
BRANCH  16  18
ATOM     18  C   UNL     1      12.043   8.931  18.936  0.00  0.00    +0.097 C 
BRANCH  18  20
ATOM      2  O   UNL     1      10.869   7.490  20.489  0.00  0.00    -0.276 OA
ATOM      7  N   UNL     1      11.433   9.643  21.150  0.00  0.00    -0.308 N 
ATOM     20  C   UNL     1      11.382   8.582  20.257  0.00  0.00    +0.213 C 
ATOM     32  H   UNL     1      11.895  10.506  20.877  0.00  0.00    +0.149 HD
BRANCH   7  26
ATOM     26  C   UNL     1      10.871   9.561  22.477  0.00  0.00    +0.178 C 
BRANCH  26  27
ATOM      3  O   UNL     1      10.958  10.795  24.574  0.00  0.00    -0.466 OA
ATOM     27  C   UNL     1      10.986  10.866  23.217  0.00  0.00    +0.122 A 
ATOM     28  C   UNL     1      11.118  12.173  22.805  0.00  0.00    +0.046 A 
ATOM     29  C   UNL     1      11.175  12.953  23.984  0.00  0.00    +0.041 A 
ATOM     30  C   UNL     1      11.074  12.069  25.032  0.00  0.00    +0.195 A 
ENDBRANCH  26  27
ENDBRANCH   7  26
ENDBRANCH  18  20
ENDBRANCH  16  18
ENDBRANCH  12  16
TORSDOF 7
ENDMDL
MODEL 3
REMARK VINA RESULT:      -7.0     27.417     31.320
REMARK  Name = 45360841
REMARK  8 active torsions:
REMARK  status: ('A' for Active; 'I' for Inactive)
REMARK    1  A    between atoms: N_4  and  C_15
REMARK    2  A    between atoms: N_5  and  C_17
REMARK    3  A    between atoms: N_7  and  C_26
REMARK    4  A    between atoms: C_12  and  C_16
REMARK    5  A    between atoms: C_15  and  C_19
REMARK    6  A    between atoms: C_16  and  C_18
REMARK    7  A    between atoms: C_18  and  C_20
REMARK    8  A    between atoms: C_26  and  C_27
REMARK                            x       y       z     vdW  Elec       q    Type
REMARK                         _______ _______ _______ _____ _____    ______ ____
ROOT
ATOM      1  O   UNL     1      14.262  10.226  22.093  0.00  0.00    -0.274 OA
ATOM      4  N   UNL     1      11.832   9.216  21.489  0.00  0.00    -0.286 NA
ATOM      5  N   UNL     1      14.244   7.540  19.306  0.00  0.00    -0.296 NA
ATOM      6  N   UNL     1      15.370   8.237  21.869  0.00  0.00    -0.312 N 
ATOM      8  C   UNL     1      12.961   7.630  20.038  0.00  0.00    +0.084 C 
ATOM      9  C   UNL     1      12.963   8.269  21.459  0.00  0.00    +0.161 C 
ATOM     10  C   UNL     1      11.886   8.461  19.314  0.00  0.00    +0.036 C 
ATOM     11  C   UNL     1      10.919   8.826  20.420  0.00  0.00    +0.087 C 
ATOM     12  C   UNL     1      15.264   6.668  19.955  0.00  0.00    +0.074 C 
ATOM     13  C   UNL     1      14.236   9.027  21.824  0.00  0.00    +0.232 C 
ATOM     14  C   UNL     1      15.386   6.840  21.481  0.00  0.00    +0.123 C 
ATOM     17  C   UNL     1      14.023   7.115  17.913  0.00  0.00    +0.105 C 
ATOM     31  H   UNL     1      16.248   8.675  22.130  0.00  0.00    +0.149 HD
ENDROOT
BRANCH   4  15
ATOM     15  C   UNL     1      11.167   9.280  22.784  0.00  0.00    +0.120 C 
BRANCH  15  19
ATOM     19  C   UNL     1      11.063  10.694  23.291  0.00  0.00    -0.033 A 
ATOM     21  C   UNL     1      11.015  10.940  24.664  0.00  0.00    +0.005 A 
ATOM     22  C   UNL     1      11.017  11.758  22.390  0.00  0.00    +0.005 A 
ATOM     23  C   UNL     1      10.919  12.249  25.135  0.00  0.00    +0.000 A 
ATOM     24  C   UNL     1      10.921  13.067  22.862  0.00  0.00    +0.000 A 
ATOM     25  C   UNL     1      10.872  13.313  24.233  0.00  0.00    +0.000 A 
ENDBRANCH  15  19
ENDBRANCH   4  15
BRANCH  12  16
ATOM     16  C   UNL     1      16.658   6.924  19.344  0.00  0.00    +0.029 C 
BRANCH  16  18
ATOM     18  C   UNL     1      17.642   5.858  19.790  0.00  0.00    +0.097 C 
BRANCH  18  20
ATOM      2  O   UNL     1      18.846   7.573  21.004  0.00  0.00    -0.276 OA
ATOM      7  N   UNL     1      19.951   5.617  20.415  0.00  0.00    -0.308 N 
ATOM     20  C   UNL     1      18.854   6.465  20.472  0.00  0.00    +0.213 C 
ATOM     32  H   UNL     1      19.860   4.709  19.969  0.00  0.00    +0.149 HD
BRANCH   7  26
ATOM     26  C   UNL     1      21.227   5.968  20.993  0.00  0.00    +0.178 C 
BRANCH  26  27
ATOM      3  O   UNL     1      21.791   3.850  22.053  0.00  0.00    -0.466 OA
ATOM     27  C   UNL     1      22.134   4.774  21.117  0.00  0.00    +0.122 A 
ATOM     28  C   UNL     1      23.285   4.395  20.464  0.00  0.00    +0.046 A 
ATOM     29  C   UNL     1      23.672   3.160  21.035  0.00  0.00    +0.041 A 
ATOM     30  C   UNL     1      22.731   2.872  21.997  0.00  0.00    +0.195 A 
ENDBRANCH  26  27
ENDBRANCH   7  26
ENDBRANCH  18  20
ENDBRANCH  16  18
ENDBRANCH  12  16
TORSDOF 7
ENDMDL
MODEL 4
REMARK VINA RESULT:      -6.8     29.973     33.784
REMARK  Name = 45360841
REMARK  8 active torsions:
REMARK  status: ('A' for Active; 'I' for Inactive)
REMARK    1  A    between atoms: N_4  and  C_15
REMARK    2  A    between atoms: N_5  and  C_17
REMARK    3  A    between atoms: N_7  and  C_26
REMARK    4  A    between atoms: C_12  and  C_16
REMARK    5  A    between atoms: C_15  and  C_19
REMARK    6  A    between atoms: C_16  and  C_18
REMARK    7  A    between atoms: C_18  and  C_20
REMARK    8  A    between atoms: C_26  and  C_27
REMARK                            x       y       z     vdW  Elec       q    Type
REMARK                         _______ _______ _______ _____ _____    ______ ____
ROOT
ATOM      1  O   UNL     1      20.238   6.232  23.972  0.00  0.00    -0.274 OA
ATOM      4  N   UNL     1      21.219   5.235  21.662  0.00  0.00    -0.286 NA
ATOM      5  N   UNL     1      18.121   6.993  20.821  0.00  0.00    -0.296 NA
ATOM      6  N   UNL     1      19.504   8.193  23.050  0.00  0.00    -0.312 N 
ATOM      8  C   UNL     1      19.460   6.447  20.507  0.00  0.00    +0.084 C 
ATOM      9  C   UNL     1      20.579   6.562  21.585  0.00  0.00    +0.161 C 
ATOM     10  C   UNL     1      19.463   4.937  20.202  0.00  0.00    +0.036 C 
ATOM     11  C   UNL     1      20.907   4.537  20.420  0.00  0.00    +0.087 C 
ATOM     12  C   UNL     1      18.092   8.467  21.034  0.00  0.00    +0.074 C 
ATOM     13  C   UNL     1      20.094   6.945  22.980  0.00  0.00    +0.232 C 
ATOM     14  C   UNL     1      19.248   9.022  21.889  0.00  0.00    +0.123 C 
ATOM     17  C   UNL     1      17.143   6.607  19.789  0.00  0.00    +0.105 C 
ATOM     31  H   UNL     1      19.180   8.519  23.956  0.00  0.00    +0.149 HD
ENDROOT
BRANCH   4  15
ATOM     15  C   UNL     1      22.653   5.300  21.910  0.00  0.00    +0.120 C 
BRANCH  15  19
ATOM     19  C   UNL     1      23.316   3.961  21.723  0.00  0.00    -0.033 A 
ATOM     21  C   UNL     1      24.085   3.717  20.585  0.00  0.00    +0.005 A 
ATOM     22  C   UNL     1      23.162   2.964  22.687  0.00  0.00    +0.005 A 
ATOM     23  C   UNL     1      24.699   2.476  20.411  0.00  0.00    +0.000 A 
ATOM     24  C   UNL     1      23.775   1.725  22.513  0.00  0.00    +0.000 A 
ATOM     25  C   UNL     1      24.544   1.480  21.376  0.00  0.00    +0.000 A 
ENDBRANCH  15  19
ENDBRANCH   4  15
BRANCH  12  16
ATOM     16  C   UNL     1      16.770   8.888  21.710  0.00  0.00    +0.029 C 
BRANCH  16  18
ATOM     18  C   UNL     1      16.194  10.122  21.039  0.00  0.00    +0.097 C 
BRANCH  18  20
ATOM      2  O   UNL     1      14.977   9.217  19.152  0.00  0.00    -0.276 OA
ATOM      7  N   UNL     1      13.797  10.223  20.880  0.00  0.00    -0.308 N 
ATOM     20  C   UNL     1      14.948   9.793  20.237  0.00  0.00    +0.213 C 
ATOM     32  H   UNL     1      13.869  10.676  21.787  0.00  0.00    +0.149 HD
BRANCH   7  26
ATOM     26  C   UNL     1      12.482  10.027  20.318  0.00  0.00    +0.178 C 
BRANCH  26  27
ATOM      3  O   UNL     1      10.975   9.019  21.943  0.00  0.00    -0.466 OA
ATOM     27  C   UNL     1      11.804   8.810  20.887  0.00  0.00    +0.122 A 
ATOM     28  C   UNL     1      11.841   7.474  20.559  0.00  0.00    +0.046 A 
ATOM     29  C   UNL     1      10.979   6.821  21.472  0.00  0.00    +0.041 A 
ATOM     30  C   UNL     1      10.477   7.804  22.293  0.00  0.00    +0.195 A 
ENDBRANCH  26  27
ENDBRANCH   7  26
ENDBRANCH  18  20
ENDBRANCH  16  18
ENDBRANCH  12  16
TORSDOF 7
ENDMDL
MODEL 5
REMARK VINA RESULT:      -6.7     18.647     21.403
REMARK  Name = 45360841
REMARK  8 active torsions:
REMARK  status: ('A' for Active; 'I' for Inactive)
REMARK    1  A    between atoms: N_4  and  C_15
REMARK    2  A    between atoms: N_5  and  C_17
REMARK    3  A    between atoms: N_7  and  C_26
REMARK    4  A    between atoms: C_12  and  C_16
REMARK    5  A    between atoms: C_15  and  C_19
REMARK    6  A    between atoms: C_16  and  C_18
REMARK    7  A    between atoms: C_18  and  C_20
REMARK    8  A    between atoms: C_26  and  C_27
REMARK                            x       y       z     vdW  Elec       q    Type
REMARK                         _______ _______ _______ _____ _____    ______ ____
ROOT
ATOM      1  O   UNL     1      -6.539 -10.229  20.134  0.00  0.00    -0.274 OA
ATOM      4  N   UNL     1      -8.624 -11.142  18.682  0.00  0.00    -0.286 NA
ATOM      5  N   UNL     1      -5.882 -10.546  16.333  0.00  0.00    -0.296 NA
ATOM      6  N   UNL     1      -4.949 -11.359  18.939  0.00  0.00    -0.312 N 
ATOM      8  C   UNL     1      -7.134 -11.205  16.766  0.00  0.00    +0.084 C 
ATOM      9  C   UNL     1      -7.284 -11.598  18.266  0.00  0.00    +0.161 C 
ATOM     10  C   UNL     1      -8.399 -10.360  16.528  0.00  0.00    +0.036 C 
ATOM     11  C   UNL     1      -9.415 -10.974  17.468  0.00  0.00    +0.087 C 
ATOM     12  C   UNL     1      -4.661 -11.388  16.479  0.00  0.00    +0.074 C 
ATOM     13  C   UNL     1      -6.251 -10.977  19.202  0.00  0.00    +0.232 C 
ATOM     14  C   UNL     1      -4.570 -12.174  17.801  0.00  0.00    +0.123 C 
ATOM     17  C   UNL     1      -6.000 -10.056  14.949  0.00  0.00    +0.105 C 
ATOM     31  H   UNL     1      -4.214 -11.000  19.541  0.00  0.00    +0.149 HD
ENDROOT
BRANCH   4  15
ATOM     15  C   UNL     1      -9.267 -12.036  19.637  0.00  0.00    +0.120 C 
BRANCH  15  19
ATOM     19  C   UNL     1     -10.648 -11.562  20.006  0.00  0.00    -0.033 A 
ATOM     21  C   UNL     1     -11.698 -12.476  20.092  0.00  0.00    +0.005 A 
ATOM     22  C   UNL     1     -10.877 -10.210  20.264  0.00  0.00    +0.005 A 
ATOM     23  C   UNL     1     -12.978 -12.038  20.433  0.00  0.00    +0.000 A 
ATOM     24  C   UNL     1     -12.156  -9.773  20.605  0.00  0.00    +0.000 A 
ATOM     25  C   UNL     1     -13.206 -10.686  20.690  0.00  0.00    +0.000 A 
ENDBRANCH  15  19
ENDBRANCH   4  15
BRANCH  12  16
ATOM     16  C   UNL     1      -3.391 -10.518  16.366  0.00  0.00    +0.029 C 
BRANCH  16  18
ATOM     18  C   UNL     1      -2.306 -11.251  15.597  0.00  0.00    +0.097 C 
BRANCH  18  20
ATOM      2  O   UNL     1      -0.998  -9.406  14.731  0.00  0.00    -0.276 OA
ATOM      7  N   UNL     1      -2.072 -10.827  13.242  0.00  0.00    -0.308 N 
ATOM     20  C   UNL     1      -1.711 -10.382  14.505  0.00  0.00    +0.213 C 
ATOM     32  H   UNL     1      -2.653 -11.657  13.150  0.00  0.00    +0.149 HD
BRANCH   7  26
ATOM     26  C   UNL     1      -1.632 -10.166  12.036  0.00  0.00    +0.178 C 
BRANCH  26  27
ATOM      3  O   UNL     1      -3.207 -11.395  10.643  0.00  0.00    -0.466 OA
ATOM     27  C   UNL     1      -2.695 -10.179  10.970  0.00  0.00    +0.122 A 
ATOM     28  C   UNL     1      -3.286  -9.189  10.219  0.00  0.00    +0.046 A 
ATOM     29  C   UNL     1      -4.222  -9.838   9.379  0.00  0.00    +0.041 A 
ATOM     30  C   UNL     1      -4.136 -11.178   9.676  0.00  0.00    +0.195 A 
ENDBRANCH  26  27
ENDBRANCH   7  26
ENDBRANCH  18  20
ENDBRANCH  16  18
ENDBRANCH  12  16
TORSDOF 7
ENDMDL
MODEL 6
REMARK VINA RESULT:      -6.7     18.466     20.784
REMARK  Name = 45360841
REMARK  8 active torsions:
REMARK  status: ('A' for Active; 'I' for Inactive)
REMARK    1  A    between atoms: N_4  and  C_15
REMARK    2  A    between atoms: N_5  and  C_17
REMARK    3  A    between atoms: N_7  and  C_26
REMARK    4  A    between atoms: C_12  and  C_16
REMARK    5  A    between atoms: C_15  and  C_19
REMARK    6  A    between atoms: C_16  and  C_18
REMARK    7  A    between atoms: C_18  and  C_20
REMARK    8  A    between atoms: C_26  and  C_27
REMARK                            x       y       z     vdW  Elec       q    Type
REMARK                         _______ _______ _______ _____ _____    ______ ____
ROOT
ATOM      1  O   UNL     1      -8.189  -9.595  15.525  0.00  0.00    -0.274 OA
ATOM      4  N   UNL     1      -8.981 -10.821  17.797  0.00  0.00    -0.286 NA
ATOM      5  N   UNL     1      -5.769 -12.304  16.861  0.00  0.00    -0.296 NA
ATOM      6  N   UNL     1      -5.973  -9.532  16.090  0.00  0.00    -0.312 N 
ATOM      8  C   UNL     1      -6.823 -11.933  17.831  0.00  0.00    +0.084 C 
ATOM      9  C   UNL     1      -7.535 -10.559  17.662  0.00  0.00    +0.161 C 
ATOM     10  C   UNL     1      -8.014 -12.909  17.863  0.00  0.00    +0.036 C 
ATOM     11  C   UNL     1      -9.121 -12.094  18.495  0.00  0.00    +0.087 C 
ATOM     12  C   UNL     1      -4.572 -11.416  16.882  0.00  0.00    +0.074 C 
ATOM     13  C   UNL     1      -7.294  -9.868  16.323  0.00  0.00    +0.232 C 
ATOM     14  C   UNL     1      -4.886  -9.909  16.972  0.00  0.00    +0.123 C 
ATOM     17  C   UNL     1      -5.362 -13.709  17.041  0.00  0.00    +0.105 C 
ATOM     31  H   UNL     1      -5.747  -9.047  15.227  0.00  0.00    +0.149 HD
ENDROOT
BRANCH   4  15
ATOM     15  C   UNL     1      -9.703  -9.746  18.464  0.00  0.00    +0.120 C 
BRANCH  15  19
ATOM     19  C   UNL     1     -10.643  -9.035  17.527  0.00  0.00    -0.033 A 
ATOM     21  C   UNL     1     -11.705  -9.730  16.947  0.00  0.00    +0.005 A 
ATOM     22  C   UNL     1     -10.454  -7.683  17.240  0.00  0.00    +0.005 A 
ATOM     23  C   UNL     1     -12.576  -9.072  16.078  0.00  0.00    +0.000 A 
ATOM     24  C   UNL     1     -11.325  -7.026  16.372  0.00  0.00    +0.000 A 
ATOM     25  C   UNL     1     -12.386  -7.720  15.791  0.00  0.00    +0.000 A 
ENDBRANCH  15  19
ENDBRANCH   4  15
BRANCH  12  16
ATOM     16  C   UNL     1      -3.715 -11.637  15.619  0.00  0.00    +0.029 C 
BRANCH  16  18
ATOM     18  C   UNL     1      -2.342 -11.011  15.786  0.00  0.00    +0.097 C 
BRANCH  18  20
ATOM      2  O   UNL     1      -1.063  -9.492  14.399  0.00  0.00    -0.276 OA
ATOM      7  N   UNL     1      -2.286 -11.188  13.389  0.00  0.00    -0.308 N 
ATOM     20  C   UNL     1      -1.814 -10.462  14.473  0.00  0.00    +0.213 C 
ATOM     32  H   UNL     1      -2.892 -11.988  13.547  0.00  0.00    +0.149 HD
BRANCH   7  26
ATOM     26  C   UNL     1      -1.928 -10.862  12.029  0.00  0.00    +0.178 C 
BRANCH  26  27
ATOM      3  O   UNL     1      -4.217 -10.038  11.934  0.00  0.00    -0.466 OA
ATOM     27  C   UNL     1      -2.989 -10.037  11.351  0.00  0.00    +0.122 A 
ATOM     28  C   UNL     1      -2.991  -9.250  10.222  0.00  0.00    +0.046 A 
ATOM     29  C   UNL     1      -4.303  -8.734  10.105  0.00  0.00    +0.041 A 
ATOM     30  C   UNL     1      -5.010  -9.242  11.170  0.00  0.00    +0.195 A 
ENDBRANCH  26  27
ENDBRANCH   7  26
ENDBRANCH  18  20
ENDBRANCH  16  18
ENDBRANCH  12  16
TORSDOF 7
ENDMDL
MODEL 7
REMARK VINA RESULT:      -6.7     26.449     30.391
REMARK  Name = 45360841
REMARK  8 active torsions:
REMARK  status: ('A' for Active; 'I' for Inactive)
REMARK    1  A    between atoms: N_4  and  C_15
REMARK    2  A    between atoms: N_5  and  C_17
REMARK    3  A    between atoms: N_7  and  C_26
REMARK    4  A    between atoms: C_12  and  C_16
REMARK    5  A    between atoms: C_15  and  C_19
REMARK    6  A    between atoms: C_16  and  C_18
REMARK    7  A    between atoms: C_18  and  C_20
REMARK    8  A    between atoms: C_26  and  C_27
REMARK                            x       y       z     vdW  Elec       q    Type
REMARK                         _______ _______ _______ _____ _____    ______ ____
ROOT
ATOM      1  O   UNL     1      14.904   8.526  22.217  0.00  0.00    -0.274 OA
ATOM      4  N   UNL     1      16.670  10.247  21.117  0.00  0.00    -0.286 NA
ATOM      5  N   UNL     1      13.387  11.856  20.954  0.00  0.00    -0.296 NA
ATOM      6  N   UNL     1      13.667  10.144  23.260  0.00  0.00    -0.312 N 
ATOM      8  C   UNL     1      14.867  11.867  20.999  0.00  0.00    +0.084 C 
ATOM      9  C   UNL     1      15.588  10.843  21.923  0.00  0.00    +0.161 C 
ATOM     10  C   UNL     1      15.534  11.597  19.638  0.00  0.00    +0.036 C 
ATOM     11  C   UNL     1      16.935  11.163  20.012  0.00  0.00    +0.087 C 
ATOM     12  C   UNL     1      12.729  12.201  22.246  0.00  0.00    +0.074 C 
ATOM     13  C   UNL     1      14.705   9.716  22.452  0.00  0.00    +0.232 C 
ATOM     14  C   UNL     1      13.358  11.542  23.489  0.00  0.00    +0.123 C 
ATOM     17  C   UNL     1      12.889  12.731  19.879  0.00  0.00    +0.105 C 
ATOM     31  H   UNL     1      13.055   9.442  23.664  0.00  0.00    +0.149 HD
ENDROOT
BRANCH   4  15
ATOM     15  C   UNL     1      17.871   9.955  21.888  0.00  0.00    +0.120 C 
BRANCH  15  19
ATOM     19  C   UNL     1      18.525   8.673  21.445  0.00  0.00    -0.033 A 
ATOM     21  C   UNL     1      19.894   8.487  21.636  0.00  0.00    +0.005 A 
ATOM     22  C   UNL     1      17.761   7.671  20.846  0.00  0.00    +0.005 A 
ATOM     23  C   UNL     1      20.500   7.299  21.225  0.00  0.00    +0.000 A 
ATOM     24  C   UNL     1      18.367   6.484  20.436  0.00  0.00    +0.000 A 
ATOM     25  C   UNL     1      19.736   6.298  20.625  0.00  0.00    +0.000 A 
ENDBRANCH  15  19
ENDBRANCH   4  15
BRANCH  12  16
ATOM     16  C   UNL     1      11.238  11.806  22.214  0.00  0.00    +0.029 C 
BRANCH  16  18
ATOM     18  C   UNL     1      10.993  10.570  23.060  0.00  0.00    +0.097 C 
BRANCH  18  20
ATOM      2  O   UNL     1      10.512   8.233  22.644  0.00  0.00    -0.276 OA
ATOM      7  N   UNL     1      11.260   9.563  20.893  0.00  0.00    -0.308 N 
ATOM     20  C   UNL     1      10.886   9.319  22.207  0.00  0.00    +0.213 C 
ATOM     32  H   UNL     1      11.540  10.500  20.618  0.00  0.00    +0.149 HD
BRANCH   7  26
ATOM     26  C   UNL     1      11.246   8.531  19.884  0.00  0.00    +0.178 C 
BRANCH  26  27
ATOM      3  O   UNL     1      13.080   6.930  19.845  0.00  0.00    -0.466 OA
ATOM     27  C   UNL     1      12.637   8.153  19.449  0.00  0.00    +0.122 A 
ATOM     28  C   UNL     1      13.600   8.799  18.710  0.00  0.00    +0.046 A 
ATOM     29  C   UNL     1      14.705   7.918  18.645  0.00  0.00    +0.041 A 
ATOM     30  C   UNL     1      14.338   6.795  19.351  0.00  0.00    +0.195 A 
ENDBRANCH  26  27
ENDBRANCH   7  26
ENDBRANCH  18  20
ENDBRANCH  16  18
ENDBRANCH  12  16
TORSDOF 7
ENDMDL
MODEL 8
REMARK VINA RESULT:      -6.6     16.507     17.876
REMARK  Name = 45360841
REMARK  8 active torsions:
REMARK  status: ('A' for Active; 'I' for Inactive)
REMARK    1  A    between atoms: N_4  and  C_15
REMARK    2  A    between atoms: N_5  and  C_17
REMARK    3  A    between atoms: N_7  and  C_26
REMARK    4  A    between atoms: C_12  and  C_16
REMARK    5  A    between atoms: C_15  and  C_19
REMARK    6  A    between atoms: C_16  and  C_18
REMARK    7  A    between atoms: C_18  and  C_20
REMARK    8  A    between atoms: C_26  and  C_27
REMARK                            x       y       z     vdW  Elec       q    Type
REMARK                         _______ _______ _______ _____ _____    ______ ____
ROOT
ATOM      1  O   UNL     1     -10.305  -5.907  15.509  0.00  0.00    -0.274 OA
ATOM      4  N   UNL     1     -11.884  -7.507  14.013  0.00  0.00    -0.286 NA
ATOM      5  N   UNL     1      -9.080  -9.562  15.158  0.00  0.00    -0.296 NA
ATOM      6  N   UNL     1      -9.799  -7.513  17.057  0.00  0.00    -0.312 N 
ATOM      8  C   UNL     1     -10.467  -9.362  14.679  0.00  0.00    +0.084 C 
ATOM      9  C   UNL     1     -11.258  -8.125  15.197  0.00  0.00    +0.161 C 
ATOM     10  C   UNL     1     -10.583  -9.201  13.153  0.00  0.00    +0.036 C 
ATOM     11  C   UNL     1     -11.926  -8.528  12.971  0.00  0.00    +0.087 C 
ATOM     12  C   UNL     1      -8.963  -9.805  16.624  0.00  0.00    +0.074 C 
ATOM     13  C   UNL     1     -10.413  -7.067  15.902  0.00  0.00    +0.232 C 
ATOM     14  C   UNL     1      -9.840  -8.892  17.503  0.00  0.00    +0.123 C 
ATOM     17  C   UNL     1      -8.419 -10.644  14.408  0.00  0.00    +0.105 C 
ATOM     31  H   UNL     1      -9.240  -6.851  17.588  0.00  0.00    +0.149 HD
ENDROOT
BRANCH   4  15
ATOM     15  C   UNL     1     -13.200  -6.944  14.283  0.00  0.00    +0.120 C 
BRANCH  15  19
ATOM     19  C   UNL     1     -13.434  -5.671  13.514  0.00  0.00    -0.033 A 
ATOM     21  C   UNL     1     -12.348  -4.939  13.030  0.00  0.00    +0.005 A 
ATOM     22  C   UNL     1     -14.735  -5.223  13.282  0.00  0.00    +0.005 A 
ATOM     23  C   UNL     1     -12.564  -3.760  12.318  0.00  0.00    +0.000 A 
ATOM     24  C   UNL     1     -14.950  -4.044  12.570  0.00  0.00    +0.000 A 
ATOM     25  C   UNL     1     -13.865  -3.312  12.087  0.00  0.00    +0.000 A 
ENDBRANCH  15  19
ENDBRANCH   4  15
BRANCH  12  16
ATOM     16  C   UNL     1      -7.501  -9.629  17.084  0.00  0.00    +0.029 C 
BRANCH  16  18
ATOM     18  C   UNL     1      -7.326 -10.117  18.510  0.00  0.00    +0.097 C 
BRANCH  18  20
ATOM      2  O   UNL     1      -5.849 -11.683  19.620  0.00  0.00    -0.276 OA
ATOM      7  N   UNL     1      -5.173 -10.714  17.622  0.00  0.00    -0.308 N 
ATOM     20  C   UNL     1      -6.055 -10.930  18.671  0.00  0.00    +0.213 C 
ATOM     32  H   UNL     1      -5.436 -10.085  16.868  0.00  0.00    +0.149 HD
BRANCH   7  26
ATOM     26  C   UNL     1      -3.891 -11.372  17.544  0.00  0.00    +0.178 C 
BRANCH  26  27
ATOM      3  O   UNL     1      -3.839 -11.006  15.138  0.00  0.00    -0.466 OA
ATOM     27  C   UNL     1      -3.136 -10.986  16.301  0.00  0.00    +0.122 A 
ATOM     28  C   UNL     1      -1.834 -10.603  16.071  0.00  0.00    +0.046 A 
ATOM     29  C   UNL     1      -1.732 -10.371  14.679  0.00  0.00    +0.041 A 
ATOM     30  C   UNL     1      -2.978 -10.630  14.157  0.00  0.00    +0.195 A 
ENDBRANCH  26  27
ENDBRANCH   7  26
ENDBRANCH  18  20
ENDBRANCH  16  18
ENDBRANCH  12  16
TORSDOF 7
ENDMDL
MODEL 9
REMARK VINA RESULT:      -6.6     18.145     20.004
REMARK  Name = 45360841
REMARK  8 active torsions:
REMARK  status: ('A' for Active; 'I' for Inactive)
REMARK    1  A    between atoms: N_4  and  C_15
REMARK    2  A    between atoms: N_5  and  C_17
REMARK    3  A    between atoms: N_7  and  C_26
REMARK    4  A    between atoms: C_12  and  C_16
REMARK    5  A    between atoms: C_15  and  C_19
REMARK    6  A    between atoms: C_16  and  C_18
REMARK    7  A    between atoms: C_18  and  C_20
REMARK    8  A    between atoms: C_26  and  C_27
REMARK                            x       y       z     vdW  Elec       q    Type
REMARK                         _______ _______ _______ _____ _____    ______ ____
ROOT
ATOM      1  O   UNL     1      -7.784  -8.928  17.120  0.00  0.00    -0.274 OA
ATOM      4  N   UNL     1     -10.101 -10.307  17.265  0.00  0.00    -0.286 NA
ATOM      5  N   UNL     1      -7.404 -12.779  17.176  0.00  0.00    -0.296 NA
ATOM      6  N   UNL     1      -6.622 -10.337  18.498  0.00  0.00    -0.312 N 
ATOM      8  C   UNL     1      -8.770 -12.323  17.515  0.00  0.00    +0.084 C 
ATOM      9  C   UNL     1      -8.959 -10.861  18.017  0.00  0.00    +0.161 C 
ATOM     10  C   UNL     1      -9.760 -12.387  16.337  0.00  0.00    +0.036 C 
ATOM     11  C   UNL     1     -10.865 -11.440  16.753  0.00  0.00    +0.087 C 
ATOM     12  C   UNL     1      -6.459 -12.803  18.328  0.00  0.00    +0.074 C 
ATOM     13  C   UNL     1      -7.755  -9.946  17.809  0.00  0.00    +0.232 C 
ATOM     14  C   UNL     1      -6.533 -11.572  19.252  0.00  0.00    +0.123 C 
ATOM     17  C   UNL     1      -7.440 -14.098  16.520  0.00  0.00    +0.105 C 
ATOM     31  H   UNL     1      -5.792  -9.758  18.421  0.00  0.00    +0.149 HD
ENDROOT
BRANCH   4  15
ATOM     15  C   UNL     1     -10.925  -9.399  18.051  0.00  0.00    +0.120 C 
BRANCH  15  19
ATOM     19  C   UNL     1     -11.508  -8.298  17.207  0.00  0.00    -0.033 A 
ATOM     21  C   UNL     1     -10.734  -7.184  16.882  0.00  0.00    +0.005 A 
ATOM     22  C   UNL     1     -12.823  -8.391  16.747  0.00  0.00    +0.005 A 
ATOM     23  C   UNL     1     -11.274  -6.163  16.100  0.00  0.00    +0.000 A 
ATOM     24  C   UNL     1     -13.362  -7.371  15.965  0.00  0.00    +0.000 A 
ATOM     25  C   UNL     1     -12.589  -6.257  15.641  0.00  0.00    +0.000 A 
ENDBRANCH  15  19
ENDBRANCH   4  15
BRANCH  12  16
ATOM     16  C   UNL     1      -5.004 -12.923  17.829  0.00  0.00    +0.029 C 
BRANCH  16  18
ATOM     18  C   UNL     1      -4.162 -11.771  18.348  0.00  0.00    +0.097 C 
BRANCH  18  20
ATOM      2  O   UNL     1      -4.257 -10.107  16.591  0.00  0.00    -0.276 OA
ATOM      7  N   UNL     1      -2.262 -11.229  16.978  0.00  0.00    -0.308 N 
ATOM     20  C   UNL     1      -3.597 -10.936  17.214  0.00  0.00    +0.213 C 
ATOM     32  H   UNL     1      -1.791 -11.919  17.557  0.00  0.00    +0.149 HD
BRANCH   7  26
ATOM     26  C   UNL     1      -1.497 -10.568  15.948  0.00  0.00    +0.178 C 
BRANCH  26  27
ATOM      3  O   UNL     1      -1.950 -10.299  13.571  0.00  0.00    -0.466 OA
ATOM     27  C   UNL     1      -1.744 -11.172  14.592  0.00  0.00    +0.122 A 
ATOM     28  C   UNL     1      -1.810 -12.470  14.138  0.00  0.00    +0.046 A 
ATOM     29  C   UNL     1      -2.073 -12.388  12.750  0.00  0.00    +0.041 A 
ATOM     30  C   UNL     1      -2.149 -11.047  12.454  0.00  0.00    +0.195 A 
ENDBRANCH  26  27
ENDBRANCH   7  26
ENDBRANCH  18  20
ENDBRANCH  16  18
ENDBRANCH  12  16
TORSDOF 7
ENDMDL
MODEL 10
REMARK VINA RESULT:      -6.5     19.168     20.378
REMARK  Name = 45360841
REMARK  8 active torsions:
REMARK  status: ('A' for Active; 'I' for Inactive)
REMARK    1  A    between atoms: N_4  and  C_15
REMARK    2  A    between atoms: N_5  and  C_17
REMARK    3  A    between atoms: N_7  and  C_26
REMARK    4  A    between atoms: C_12  and  C_16
REMARK    5  A    between atoms: C_15  and  C_19
REMARK    6  A    between atoms: C_16  and  C_18
REMARK    7  A    between atoms: C_18  and  C_20
REMARK    8  A    between atoms: C_26  and  C_27
REMARK                            x       y       z     vdW  Elec       q    Type
REMARK                         _______ _______ _______ _____ _____    ______ ____
ROOT
ATOM      1  O   UNL     1      -6.016  -9.636  13.378  0.00  0.00    -0.274 OA
ATOM      4  N   UNL     1      -3.911 -10.719  12.079  0.00  0.00    -0.286 NA
ATOM      5  N   UNL     1      -3.132 -10.856  15.652  0.00  0.00    -0.296 NA
ATOM      6  N   UNL     1      -5.957 -11.111  15.125  0.00  0.00    -0.312 N 
ATOM      8  C   UNL     1      -3.005 -11.315  14.251  0.00  0.00    +0.084 C 
ATOM      9  C   UNL     1      -4.283 -11.344  13.362  0.00  0.00    +0.161 C 
ATOM     10  C   UNL     1      -2.042 -10.466  13.401  0.00  0.00    +0.036 C 
ATOM     11  C   UNL     1      -2.457 -10.781  11.979  0.00  0.00    +0.087 C 
ATOM     12  C   UNL     1      -3.993 -11.720  16.508  0.00  0.00    +0.074 C 
ATOM     13  C   UNL     1      -5.484 -10.595  13.933  0.00  0.00    +0.232 C 
ATOM     14  C   UNL     1      -5.304 -12.187  15.845  0.00  0.00    +0.123 C 
ATOM     17  C   UNL     1      -1.805 -10.689  16.271  0.00  0.00    +0.105 C 
ATOM     31  H   UNL     1      -6.770 -10.673  15.548  0.00  0.00    +0.149 HD
ENDROOT
BRANCH   4  15
ATOM     15  C   UNL     1      -4.567 -11.326  10.929  0.00  0.00    +0.120 C 
BRANCH  15  19
ATOM     19  C   UNL     1      -5.370 -10.322  10.146  0.00  0.00    -0.033 A 
ATOM     21  C   UNL     1      -5.011  -8.974  10.166  0.00  0.00    +0.005 A 
ATOM     22  C   UNL     1      -6.473 -10.738   9.400  0.00  0.00    +0.005 A 
ATOM     23  C   UNL     1      -5.755  -8.043   9.442  0.00  0.00    +0.000 A 
ATOM     24  C   UNL     1      -7.217  -9.807   8.676  0.00  0.00    +0.000 A 
ATOM     25  C   UNL     1      -6.858  -8.459   8.697  0.00  0.00    +0.000 A 
ENDBRANCH  15  19
ENDBRANCH   4  15
BRANCH  12  16
ATOM     16  C   UNL     1      -4.368 -10.985  17.812  0.00  0.00    +0.029 C 
BRANCH  16  18
ATOM     18  C   UNL     1      -5.018 -11.939  18.797  0.00  0.00    +0.097 C 
BRANCH  18  20
ATOM      2  O   UNL     1      -6.323 -10.667  20.392  0.00  0.00    -0.276 OA
ATOM      7  N   UNL     1      -7.405 -11.709  18.622  0.00  0.00    -0.308 N 
ATOM     20  C   UNL     1      -6.295 -11.359  19.377  0.00  0.00    +0.213 C 
ATOM     32  H   UNL     1      -7.284 -12.272  17.785  0.00  0.00    +0.149 HD
BRANCH   7  26
ATOM     26  C   UNL     1      -8.739 -11.281  18.969  0.00  0.00    +0.178 C 
BRANCH  26  27
ATOM      3  O   UNL     1     -10.415  -9.602  18.419  0.00  0.00    -0.466 OA
ATOM     27  C   UNL     1      -9.157 -10.063  18.189  0.00  0.00    +0.122 A 
ATOM     28  C   UNL     1      -8.520  -9.279  17.255  0.00  0.00    +0.046 A 
ATOM     29  C   UNL     1      -9.445  -8.273  16.888  0.00  0.00    +0.041 A 
ATOM     30  C   UNL     1     -10.582  -8.514  17.624  0.00  0.00    +0.195 A 
ENDBRANCH  26  27
ENDBRANCH   7  26
ENDBRANCH  18  20
ENDBRANCH  16  18
ENDBRANCH  12  16
TORSDOF 7
ENDMDL
