MODEL 1
REMARK VINA RESULT:      -7.2      0.000      0.000
REMARK  Name = 26744948
REMARK  8 active torsions:
REMARK  status: ('A' for Active; 'I' for Inactive)
REMARK    1  A    between atoms: O_2  and  C_30
REMARK    2  A    between atoms: O_2  and  C_33
REMARK    3  A    between atoms: N_4  and  C_15
REMARK    4  A    between atoms: N_9  and  C_24
REMARK    5  A    between atoms: C_10  and  C_16
REMARK    6  A    between atoms: C_15  and  C_17
REMARK    7  A    between atoms: C_21  and  C_25
REMARK    8  A    between atoms: C_31  and  C_32
REMARK                            x       y       z     vdW  Elec       q    Type
REMARK                         _______ _______ _______ _____ _____    ______ ____
ROOT
ATOM      4  N   UNL     1       9.629   7.236   6.340  0.00  0.00    -0.281 NA
ATOM      5  N   UNL     1       8.650   5.854   9.687  0.00  0.00    -0.347 N 
ATOM      6  N   UNL     1       9.680   3.996   8.994  0.00  0.00    -0.240 NA
ATOM     10  C   UNL     1      10.830   6.343   6.210  0.00  0.00    +0.152 C 
ATOM     11  C   UNL     1      10.583   4.912   6.808  0.00  0.00    +0.086 C 
ATOM     12  C   UNL     1       9.227   7.440   7.763  0.00  0.00    +0.140 C 
ATOM     13  C   UNL     1       9.224   6.153   8.489  0.00  0.00    +0.053 A 
ATOM     14  C   UNL     1       9.853   5.004   8.089  0.00  0.00    +0.065 A 
ATOM     18  C   UNL     1       8.952   4.541   9.949  0.00  0.00    +0.197 A 
ATOM     34  H   UNL     1       8.109   6.476  10.275  0.00  0.00    +0.167 HD
ENDROOT
BRANCH  10  16
ATOM      1  O   UNL     1      12.415   6.893   4.419  0.00  0.00    -0.336 OA
ATOM      7  N   UNL     1      10.838   5.421   3.818  0.00  0.00    -0.190 NA
ATOM      8  N   UNL     1      12.670   6.574   3.079  0.00  0.00    -0.056 NA
ATOM     16  C   UNL     1      11.321   6.171   4.775  0.00  0.00    +0.245 A 
ATOM     21  C   UNL     1      11.699   5.702   2.797  0.00  0.00    +0.202 A 
BRANCH  21  25
ATOM     25  C   UNL     1      11.560   5.091   1.506  0.00  0.00    +0.023 A 
ATOM     26  C   UNL     1      12.502   4.159   1.069  0.00  0.00    +0.015 A 
ATOM     27  C   UNL     1      10.484   5.430   0.687  0.00  0.00    +0.015 A 
ATOM     28  C   UNL     1      12.367   3.567  -0.186  0.00  0.00    +0.046 A 
ATOM     29  C   UNL     1      10.348   4.838  -0.568  0.00  0.00    +0.046 A 
ATOM     30  C   UNL     1      11.290   3.907  -1.005  0.00  0.00    +0.120 A 
BRANCH  30   2
ATOM      2  O   UNL     1      11.157   3.329  -2.231  0.00  0.00    -0.495 OA
ATOM     33  C   UNL     1      11.919   2.148  -2.478  0.00  0.00    +0.277 C 
ENDBRANCH  30   2
ENDBRANCH  21  25
ENDBRANCH  10  16
BRANCH   4  15
ATOM     15  C   UNL     1       9.846   8.557   5.735  0.00  0.00    +0.120 C 
BRANCH  15  17
ATOM     17  C   UNL     1       8.886   8.821   4.605  0.00  0.00    -0.033 A 
ATOM     19  C   UNL     1       9.223   8.454   3.302  0.00  0.00    +0.007 A 
ATOM     20  C   UNL     1       7.659   9.433   4.861  0.00  0.00    +0.007 A 
ATOM     22  C   UNL     1       8.335   8.700   2.256  0.00  0.00    +0.023 A 
ATOM     23  C   UNL     1       6.770   9.679   3.815  0.00  0.00    +0.023 A 
ATOM     24  C   UNL     1       7.108   9.312   2.512  0.00  0.00    +0.033 A 
BRANCH  24   9
ATOM      3  O   UNL     1       4.138   9.809   2.542  0.00  0.00    -0.276 OA
ATOM      9  N   UNL     1       6.219   9.557   1.465  0.00  0.00    -0.286 N 
ATOM     31  C   UNL     1       4.838   9.781   1.536  0.00  0.00    +0.214 C 
ATOM     32  C   UNL     1       4.238  10.008   0.171  0.00  0.00    +0.109 C 
ATOM     35  H   UNL     1       6.637   9.574   0.536  0.00  0.00    +0.155 HD
ENDBRANCH  24   9
ENDBRANCH  15  17
ENDBRANCH   4  15
TORSDOF 6
ENDMDL
MODEL 2
REMARK VINA RESULT:      -6.9     23.799     26.990
REMARK  Name = 26744948
REMARK  8 active torsions:
REMARK  status: ('A' for Active; 'I' for Inactive)
REMARK    1  A    between atoms: O_2  and  C_30
REMARK    2  A    between atoms: O_2  and  C_33
REMARK    3  A    between atoms: N_4  and  C_15
REMARK    4  A    between atoms: N_9  and  C_24
REMARK    5  A    between atoms: C_10  and  C_16
REMARK    6  A    between atoms: C_15  and  C_17
REMARK    7  A    between atoms: C_21  and  C_25
REMARK    8  A    between atoms: C_31  and  C_32
REMARK                            x       y       z     vdW  Elec       q    Type
REMARK                         _______ _______ _______ _____ _____    ______ ____
ROOT
ATOM      4  N   UNL     1      -8.323 -10.496  17.996  0.00  0.00    -0.281 NA
ATOM      5  N   UNL     1     -10.452 -12.453  20.383  0.00  0.00    -0.347 N 
ATOM      6  N   UNL     1      -8.801 -13.957  20.306  0.00  0.00    -0.240 NA
ATOM     10  C   UNL     1      -7.038 -11.097  18.490  0.00  0.00    +0.152 C 
ATOM     11  C   UNL     1      -7.193 -12.610  18.880  0.00  0.00    +0.086 C 
ATOM     12  C   UNL     1      -9.407 -10.557  19.019  0.00  0.00    +0.140 C 
ATOM     13  C   UNL     1      -9.456 -11.895  19.642  0.00  0.00    +0.053 A 
ATOM     14  C   UNL     1      -8.455 -12.831  19.615  0.00  0.00    +0.065 A 
ATOM     18  C   UNL     1     -10.011 -13.696  20.761  0.00  0.00    +0.197 A 
ATOM     34  H   UNL     1     -11.344 -12.034  20.617  0.00  0.00    +0.167 HD
ENDROOT
BRANCH  10  16
ATOM      1  O   UNL     1      -4.629 -11.066  18.023  0.00  0.00    -0.336 OA
ATOM      7  N   UNL     1      -5.912 -10.818  16.204  0.00  0.00    -0.190 NA
ATOM      8  N   UNL     1      -3.750 -10.938  16.940  0.00  0.00    -0.056 NA
ATOM     16  C   UNL     1      -5.881 -10.985  17.502  0.00  0.00    +0.245 A 
ATOM     21  C   UNL     1      -4.581 -10.795  15.904  0.00  0.00    +0.202 A 
BRANCH  21  25
ATOM     25  C   UNL     1      -4.116 -10.629  14.557  0.00  0.00    +0.023 A 
ATOM     26  C   UNL     1      -5.029 -10.431  13.522  0.00  0.00    +0.015 A 
ATOM     27  C   UNL     1      -2.749 -10.668  14.284  0.00  0.00    +0.015 A 
ATOM     28  C   UNL     1      -4.576 -10.272  12.213  0.00  0.00    +0.046 A 
ATOM     29  C   UNL     1      -2.295 -10.509  12.974  0.00  0.00    +0.046 A 
ATOM     30  C   UNL     1      -3.209 -10.311  11.939  0.00  0.00    +0.120 A 
BRANCH  30   2
ATOM      2  O   UNL     1      -2.765 -10.155  10.661  0.00  0.00    -0.495 OA
ATOM     33  C   UNL     1      -3.645  -9.508   9.743  0.00  0.00    +0.277 C 
ENDBRANCH  30   2
ENDBRANCH  21  25
ENDBRANCH  10  16
BRANCH   4  15
ATOM     15  C   UNL     1      -8.163  -9.094  17.584  0.00  0.00    +0.120 C 
BRANCH  15  17
ATOM     17  C   UNL     1      -9.300  -8.633  16.711  0.00  0.00    -0.033 A 
ATOM     19  C   UNL     1     -10.213  -7.694  17.192  0.00  0.00    +0.007 A 
ATOM     20  C   UNL     1      -9.440  -9.145  15.421  0.00  0.00    +0.007 A 
ATOM     22  C   UNL     1     -11.266  -7.269  16.384  0.00  0.00    +0.023 A 
ATOM     23  C   UNL     1     -10.494  -8.720  14.613  0.00  0.00    +0.023 A 
ATOM     24  C   UNL     1     -11.408  -7.781  15.093  0.00  0.00    +0.033 A 
BRANCH  24   9
ATOM      3  O   UNL     1     -11.882  -5.139  13.730  0.00  0.00    -0.276 OA
ATOM      9  N   UNL     1     -12.462  -7.355  14.285  0.00  0.00    -0.286 N 
ATOM     31  C   UNL     1     -12.634  -6.106  13.675  0.00  0.00    +0.214 C 
ATOM     32  C   UNL     1     -13.913  -6.045  12.879  0.00  0.00    +0.109 C 
ATOM     35  H   UNL     1     -13.192  -8.046  14.125  0.00  0.00    +0.155 HD
ENDBRANCH  24   9
ENDBRANCH  15  17
ENDBRANCH   4  15
TORSDOF 6
ENDMDL
MODEL 3
REMARK VINA RESULT:      -6.8      4.558      7.086
REMARK  Name = 26744948
REMARK  8 active torsions:
REMARK  status: ('A' for Active; 'I' for Inactive)
REMARK    1  A    between atoms: O_2  and  C_30
REMARK    2  A    between atoms: O_2  and  C_33
REMARK    3  A    between atoms: N_4  and  C_15
REMARK    4  A    between atoms: N_9  and  C_24
REMARK    5  A    between atoms: C_10  and  C_16
REMARK    6  A    between atoms: C_15  and  C_17
REMARK    7  A    between atoms: C_21  and  C_25
REMARK    8  A    between atoms: C_31  and  C_32
REMARK                            x       y       z     vdW  Elec       q    Type
REMARK                         _______ _______ _______ _____ _____    ______ ____
ROOT
ATOM      4  N   UNL     1      11.982   6.670   4.716  0.00  0.00    -0.281 NA
ATOM      5  N   UNL     1       9.499   4.950   6.938  0.00  0.00    -0.347 N 
ATOM      6  N   UNL     1      10.898   5.504   8.590  0.00  0.00    -0.240 NA
ATOM     10  C   UNL     1      12.472   7.586   5.802  0.00  0.00    +0.152 C 
ATOM     11  C   UNL     1      12.515   6.883   7.205  0.00  0.00    +0.086 C 
ATOM     12  C   UNL     1      10.601   6.170   4.978  0.00  0.00    +0.140 C 
ATOM     13  C   UNL     1      10.468   5.725   6.380  0.00  0.00    +0.053 A 
ATOM     14  C   UNL     1      11.308   6.057   7.411  0.00  0.00    +0.065 A 
ATOM     18  C   UNL     1       9.802   4.845   8.273  0.00  0.00    +0.197 A 
ATOM     34  H   UNL     1       8.705   4.534   6.467  0.00  0.00    +0.167 HD
ENDROOT
BRANCH  10  16
ATOM      1  O   UNL     1      13.892   9.503   5.229  0.00  0.00    -0.336 OA
ATOM      7  N   UNL     1      15.024   7.598   5.552  0.00  0.00    -0.190 NA
ATOM      8  N   UNL     1      15.243   9.813   5.028  0.00  0.00    -0.056 NA
ATOM     16  C   UNL     1      13.852   8.180   5.534  0.00  0.00    +0.245 A 
ATOM     21  C   UNL     1      15.846   8.640   5.236  0.00  0.00    +0.202 A 
BRANCH  21  25
ATOM     25  C   UNL     1      17.267   8.474   5.137  0.00  0.00    +0.023 A 
ATOM     26  C   UNL     1      18.076   8.699   6.252  0.00  0.00    +0.015 A 
ATOM     27  C   UNL     1      17.841   8.088   3.926  0.00  0.00    +0.015 A 
ATOM     28  C   UNL     1      19.458   8.539   6.154  0.00  0.00    +0.046 A 
ATOM     29  C   UNL     1      19.223   7.928   3.829  0.00  0.00    +0.046 A 
ATOM     30  C   UNL     1      20.032   8.153   4.942  0.00  0.00    +0.120 A 
BRANCH  30   2
ATOM      2  O   UNL     1      21.380   7.996   4.846  0.00  0.00    -0.495 OA
ATOM     33  C   UNL     1      21.856   6.718   4.422  0.00  0.00    +0.277 C 
ENDBRANCH  30   2
ENDBRANCH  21  25
ENDBRANCH  10  16
BRANCH   4  15
ATOM     15  C   UNL     1      11.991   7.314   3.395  0.00  0.00    +0.120 C 
BRANCH  15  17
ATOM     17  C   UNL     1      11.689   6.335   2.292  0.00  0.00    -0.033 A 
ATOM     19  C   UNL     1      10.571   6.521   1.479  0.00  0.00    +0.007 A 
ATOM     20  C   UNL     1      12.529   5.240   2.083  0.00  0.00    +0.007 A 
ATOM     22  C   UNL     1      10.291   5.613   0.459  0.00  0.00    +0.023 A 
ATOM     23  C   UNL     1      12.248   4.331   1.063  0.00  0.00    +0.023 A 
ATOM     24  C   UNL     1      11.130   4.517   0.250  0.00  0.00    +0.033 A 
BRANCH  24   9
ATOM      3  O   UNL     1      12.018   4.474  -2.628  0.00  0.00    -0.276 OA
ATOM      9  N   UNL     1      10.850   3.609  -0.772  0.00  0.00    -0.286 N 
ATOM     31  C   UNL     1      11.290   3.639  -2.101  0.00  0.00    +0.214 C 
ATOM     32  C   UNL     1      10.762   2.468  -2.891  0.00  0.00    +0.109 C 
ATOM     35  H   UNL     1      10.249   2.831  -0.507  0.00  0.00    +0.155 HD
ENDBRANCH  24   9
ENDBRANCH  15  17
ENDBRANCH   4  15
TORSDOF 6
ENDMDL
MODEL 4
REMARK VINA RESULT:      -6.8      5.239      8.170
REMARK  Name = 26744948
REMARK  8 active torsions:
REMARK  status: ('A' for Active; 'I' for Inactive)
REMARK    1  A    between atoms: O_2  and  C_30
REMARK    2  A    between atoms: O_2  and  C_33
REMARK    3  A    between atoms: N_4  and  C_15
REMARK    4  A    between atoms: N_9  and  C_24
REMARK    5  A    between atoms: C_10  and  C_16
REMARK    6  A    between atoms: C_15  and  C_17
REMARK    7  A    between atoms: C_21  and  C_25
REMARK    8  A    between atoms: C_31  and  C_32
REMARK                            x       y       z     vdW  Elec       q    Type
REMARK                         _______ _______ _______ _____ _____    ______ ____
ROOT
ATOM      4  N   UNL     1      12.512   7.029   4.806  0.00  0.00    -0.281 NA
ATOM      5  N   UNL     1       9.698   5.265   6.549  0.00  0.00    -0.347 N 
ATOM      6  N   UNL     1      10.926   5.558   8.393  0.00  0.00    -0.240 NA
ATOM     10  C   UNL     1      12.924   7.797   6.030  0.00  0.00    +0.152 C 
ATOM     11  C   UNL     1      12.765   6.956   7.347  0.00  0.00    +0.086 C 
ATOM     12  C   UNL     1      11.084   6.599   4.861  0.00  0.00    +0.140 C 
ATOM     13  C   UNL     1      10.767   6.026   6.185  0.00  0.00    +0.053 A 
ATOM     14  C   UNL     1      11.499   6.197   7.331  0.00  0.00    +0.065 A 
ATOM     18  C   UNL     1       9.839   5.008   7.890  0.00  0.00    +0.197 A 
ATOM     34  H   UNL     1       8.943   4.952   5.952  0.00  0.00    +0.167 HD
ENDROOT
BRANCH  10  16
ATOM      1  O   UNL     1      14.534   9.626   6.312  0.00  0.00    -0.336 OA
ATOM      7  N   UNL     1      15.458   7.694   5.656  0.00  0.00    -0.190 NA
ATOM      8  N   UNL     1      15.908   9.872   6.191  0.00  0.00    -0.056 NA
ATOM     16  C   UNL     1      14.355   8.322   5.979  0.00  0.00    +0.245 A 
ATOM     21  C   UNL     1      16.383   8.686   5.801  0.00  0.00    +0.202 A 
BRANCH  21  25
ATOM     25  C   UNL     1      17.777   8.458   5.549  0.00  0.00    +0.023 A 
ATOM     26  C   UNL     1      18.203   8.067   4.280  0.00  0.00    +0.015 A 
ATOM     27  C   UNL     1      18.706   8.626   6.576  0.00  0.00    +0.015 A 
ATOM     28  C   UNL     1      19.558   7.844   4.037  0.00  0.00    +0.046 A 
ATOM     29  C   UNL     1      20.062   8.403   6.332  0.00  0.00    +0.046 A 
ATOM     30  C   UNL     1      20.487   8.011   5.063  0.00  0.00    +0.120 A 
BRANCH  30   2
ATOM      2  O   UNL     1      21.810   7.794   4.827  0.00  0.00    -0.495 OA
ATOM     33  C   UNL     1      22.166   6.554   4.217  0.00  0.00    +0.277 C 
ENDBRANCH  30   2
ENDBRANCH  21  25
ENDBRANCH  10  16
BRANCH   4  15
ATOM     15  C   UNL     1      12.708   7.799   3.570  0.00  0.00    +0.120 C 
BRANCH  15  17
ATOM     17  C   UNL     1      13.695   7.135   2.646  0.00  0.00    -0.033 A 
ATOM     19  C   UNL     1      13.512   5.805   2.269  0.00  0.00    +0.007 A 
ATOM     20  C   UNL     1      14.793   7.851   2.168  0.00  0.00    +0.007 A 
ATOM     22  C   UNL     1      14.427   5.190   1.416  0.00  0.00    +0.023 A 
ATOM     23  C   UNL     1      15.708   7.236   1.315  0.00  0.00    +0.023 A 
ATOM     24  C   UNL     1      15.526   5.906   0.937  0.00  0.00    +0.033 A 
BRANCH  24   9
ATOM      3  O   UNL     1      15.654   5.838  -2.070  0.00  0.00    -0.276 OA
ATOM      9  N   UNL     1      16.441   5.290   0.083  0.00  0.00    -0.286 N 
ATOM     31  C   UNL     1      16.452   5.289  -1.318  0.00  0.00    +0.214 C 
ATOM     32  C   UNL     1      17.616   4.504  -1.867  0.00  0.00    +0.109 C 
ATOM     35  H   UNL     1      17.191   4.780   0.545  0.00  0.00    +0.155 HD
ENDBRANCH  24   9
ENDBRANCH  15  17
ENDBRANCH   4  15
TORSDOF 6
ENDMDL
MODEL 5
REMARK VINA RESULT:      -6.8     11.246     15.157
REMARK  Name = 26744948
REMARK  8 active torsions:
REMARK  status: ('A' for Active; 'I' for Inactive)
REMARK    1  A    between atoms: O_2  and  C_30
REMARK    2  A    between atoms: O_2  and  C_33
REMARK    3  A    between atoms: N_4  and  C_15
REMARK    4  A    between atoms: N_9  and  C_24
REMARK    5  A    between atoms: C_10  and  C_16
REMARK    6  A    between atoms: C_15  and  C_17
REMARK    7  A    between atoms: C_21  and  C_25
REMARK    8  A    between atoms: C_31  and  C_32
REMARK                            x       y       z     vdW  Elec       q    Type
REMARK                         _______ _______ _______ _____ _____    ______ ____
ROOT
ATOM      4  N   UNL     1      -1.529  10.210   5.025  0.00  0.00    -0.281 NA
ATOM      5  N   UNL     1       0.068   9.888   1.646  0.00  0.00    -0.347 N 
ATOM      6  N   UNL     1       1.005  11.860   2.126  0.00  0.00    -0.240 NA
ATOM     10  C   UNL     1      -0.425  11.066   5.577  0.00  0.00    +0.152 C 
ATOM     11  C   UNL     1       0.158  12.058   4.508  0.00  0.00    +0.086 C 
ATOM     12  C   UNL     1      -1.075   9.371   3.877  0.00  0.00    +0.140 C 
ATOM     13  C   UNL     1      -0.275  10.177   2.932  0.00  0.00    +0.053 A 
ATOM     14  C   UNL     1       0.315  11.384   3.204  0.00  0.00    +0.065 A 
ATOM     18  C   UNL     1       0.840  10.933   1.203  0.00  0.00    +0.197 A 
ATOM     34  H   UNL     1      -0.189   9.064   1.119  0.00  0.00    +0.167 HD
ENDROOT
BRANCH  10  16
ATOM      1  O   UNL     1      -1.989  12.581   6.708  0.00  0.00    -0.336 OA
ATOM      7  N   UNL     1      -0.212  12.014   7.950  0.00  0.00    -0.190 NA
ATOM      8  N   UNL     1      -2.143  13.240   7.935  0.00  0.00    -0.056 NA
ATOM     16  C   UNL     1      -0.828  11.882   6.802  0.00  0.00    +0.245 A 
ATOM     21  C   UNL     1      -1.058  12.857   8.611  0.00  0.00    +0.202 A 
BRANCH  21  25
ATOM     25  C   UNL     1      -0.788  13.295   9.951  0.00  0.00    +0.023 A 
ATOM     26  C   UNL     1      -1.838  13.495  10.846  0.00  0.00    +0.015 A 
ATOM     27  C   UNL     1       0.527  13.522  10.357  0.00  0.00    +0.015 A 
ATOM     28  C   UNL     1      -1.575  13.923  12.147  0.00  0.00    +0.046 A 
ATOM     29  C   UNL     1       0.791  13.949  11.658  0.00  0.00    +0.046 A 
ATOM     30  C   UNL     1      -0.260  14.150  12.553  0.00  0.00    +0.120 A 
BRANCH  30   2
ATOM      2  O   UNL     1      -0.001  14.566  13.823  0.00  0.00    -0.495 OA
ATOM     33  C   UNL     1       1.289  14.265  14.354  0.00  0.00    +0.277 C 
ENDBRANCH  30   2
ENDBRANCH  21  25
ENDBRANCH  10  16
BRANCH   4  15
ATOM     15  C   UNL     1      -2.107   9.318   6.040  0.00  0.00    +0.120 C 
BRANCH  15  17
ATOM     17  C   UNL     1      -3.344   8.624   5.537  0.00  0.00    -0.033 A 
ATOM     19  C   UNL     1      -3.386   7.231   5.473  0.00  0.00    +0.007 A 
ATOM     20  C   UNL     1      -4.450   9.373   5.134  0.00  0.00    +0.007 A 
ATOM     22  C   UNL     1      -4.531   6.588   5.006  0.00  0.00    +0.023 A 
ATOM     23  C   UNL     1      -5.595   8.730   4.666  0.00  0.00    +0.023 A 
ATOM     24  C   UNL     1      -5.637   7.337   4.602  0.00  0.00    +0.033 A 
BRANCH  24   9
ATOM      3  O   UNL     1      -7.894   6.026   6.104  0.00  0.00    -0.276 OA
ATOM      9  N   UNL     1      -6.783   6.693   4.135  0.00  0.00    -0.286 N 
ATOM     31  C   UNL     1      -7.805   6.095   4.883  0.00  0.00    +0.214 C 
ATOM     32  C   UNL     1      -8.873   5.505   3.997  0.00  0.00    +0.109 C 
ATOM     35  H   UNL     1      -6.878   6.659   3.122  0.00  0.00    +0.155 HD
ENDBRANCH  24   9
ENDBRANCH  15  17
ENDBRANCH   4  15
TORSDOF 6
ENDMDL
MODEL 6
REMARK VINA RESULT:      -6.8     40.123     42.303
REMARK  Name = 26744948
REMARK  8 active torsions:
REMARK  status: ('A' for Active; 'I' for Inactive)
REMARK    1  A    between atoms: O_2  and  C_30
REMARK    2  A    between atoms: O_2  and  C_33
REMARK    3  A    between atoms: N_4  and  C_15
REMARK    4  A    between atoms: N_9  and  C_24
REMARK    5  A    between atoms: C_10  and  C_16
REMARK    6  A    between atoms: C_15  and  C_17
REMARK    7  A    between atoms: C_21  and  C_25
REMARK    8  A    between atoms: C_31  and  C_32
REMARK                            x       y       z     vdW  Elec       q    Type
REMARK                         _______ _______ _______ _____ _____    ______ ____
ROOT
ATOM      4  N   UNL     1      -7.199 -10.492  38.204  0.00  0.00    -0.281 NA
ATOM      5  N   UNL     1      -5.605  -7.287  39.321  0.00  0.00    -0.347 N 
ATOM      6  N   UNL     1      -7.670  -6.446  39.177  0.00  0.00    -0.240 NA
ATOM     10  C   UNL     1      -8.543 -10.142  38.777  0.00  0.00    +0.152 C 
ATOM     11  C   UNL     1      -8.874  -8.613  38.641  0.00  0.00    +0.086 C 
ATOM     12  C   UNL     1      -6.088  -9.760  38.879  0.00  0.00    +0.140 C 
ATOM     13  C   UNL     1      -6.429  -8.332  39.037  0.00  0.00    +0.053 A 
ATOM     14  C   UNL     1      -7.687  -7.794  38.960  0.00  0.00    +0.065 A 
ATOM     18  C   UNL     1      -6.400  -6.170  39.395  0.00  0.00    +0.197 A 
ATOM     34  H   UNL     1      -4.602  -7.322  39.457  0.00  0.00    +0.167 HD
ENDROOT
BRANCH  10  16
ATOM      1  O   UNL     1     -10.449 -11.667  39.024  0.00  0.00    -0.336 OA
ATOM      7  N   UNL     1     -10.088 -10.997  36.918  0.00  0.00    -0.190 NA
ATOM      8  N   UNL     1     -11.433 -12.287  38.243  0.00  0.00    -0.056 NA
ATOM     16  C   UNL     1      -9.700 -10.927  38.166  0.00  0.00    +0.245 A 
ATOM     21  C   UNL     1     -11.153 -11.843  37.015  0.00  0.00    +0.202 A 
BRANCH  21  25
ATOM     25  C   UNL     1     -11.920 -12.223  35.863  0.00  0.00    +0.023 A 
ATOM     26  C   UNL     1     -11.581 -13.371  35.146  0.00  0.00    +0.015 A 
ATOM     27  C   UNL     1     -13.003 -11.444  35.460  0.00  0.00    +0.015 A 
ATOM     28  C   UNL     1     -12.325 -13.739  34.026  0.00  0.00    +0.046 A 
ATOM     29  C   UNL     1     -13.748 -11.812  34.339  0.00  0.00    +0.046 A 
ATOM     30  C   UNL     1     -13.409 -12.959  33.622  0.00  0.00    +0.120 A 
BRANCH  30   2
ATOM      2  O   UNL     1     -14.137 -13.317  32.529  0.00  0.00    -0.495 OA
ATOM     33  C   UNL     1     -14.593 -14.668  32.467  0.00  0.00    +0.277 C 
ENDBRANCH  30   2
ENDBRANCH  21  25
ENDBRANCH  10  16
BRANCH   4  15
ATOM     15  C   UNL     1      -6.914 -11.931  38.286  0.00  0.00    +0.120 C 
BRANCH  15  17
ATOM     17  C   UNL     1      -7.229 -12.641  36.997  0.00  0.00    -0.033 A 
ATOM     19  C   UNL     1      -7.835 -13.897  37.020  0.00  0.00    +0.007 A 
ATOM     20  C   UNL     1      -6.915 -12.041  35.776  0.00  0.00    +0.007 A 
ATOM     22  C   UNL     1      -8.125 -14.554  35.826  0.00  0.00    +0.023 A 
ATOM     23  C   UNL     1      -7.205 -12.699  34.581  0.00  0.00    +0.023 A 
ATOM     24  C   UNL     1      -7.811 -13.956  34.605  0.00  0.00    +0.033 A 
BRANCH  24   9
ATOM      3  O   UNL     1      -6.024 -15.504  32.740  0.00  0.00    -0.276 OA
ATOM      9  N   UNL     1      -8.102 -14.614  33.410  0.00  0.00    -0.286 N 
ATOM     31  C   UNL     1      -7.226 -15.322  32.576  0.00  0.00    +0.214 C 
ATOM     32  C   UNL     1      -7.937 -15.889  31.374  0.00  0.00    +0.109 C 
ATOM     35  H   UNL     1      -9.075 -14.569  33.116  0.00  0.00    +0.155 HD
ENDBRANCH  24   9
ENDBRANCH  15  17
ENDBRANCH   4  15
TORSDOF 6
ENDMDL
MODEL 7
REMARK VINA RESULT:      -6.7     24.949     28.970
REMARK  Name = 26744948
REMARK  8 active torsions:
REMARK  status: ('A' for Active; 'I' for Inactive)
REMARK    1  A    between atoms: O_2  and  C_30
REMARK    2  A    between atoms: O_2  and  C_33
REMARK    3  A    between atoms: N_4  and  C_15
REMARK    4  A    between atoms: N_9  and  C_24
REMARK    5  A    between atoms: C_10  and  C_16
REMARK    6  A    between atoms: C_15  and  C_17
REMARK    7  A    between atoms: C_21  and  C_25
REMARK    8  A    between atoms: C_31  and  C_32
REMARK                            x       y       z     vdW  Elec       q    Type
REMARK                         _______ _______ _______ _____ _____    ______ ____
ROOT
ATOM      4  N   UNL     1      -5.678 -10.966  15.717  0.00  0.00    -0.281 NA
ATOM      5  N   UNL     1      -2.309 -10.293  14.212  0.00  0.00    -0.347 N 
ATOM      6  N   UNL     1      -1.555 -10.513  16.305  0.00  0.00    -0.240 NA
ATOM     10  C   UNL     1      -5.120 -11.766  16.860  0.00  0.00    +0.152 C 
ATOM     11  C   UNL     1      -3.748 -11.201  17.376  0.00  0.00    +0.086 C 
ATOM     12  C   UNL     1      -4.761 -10.946  14.540  0.00  0.00    +0.140 C 
ATOM     13  C   UNL     1      -3.373 -10.679  14.968  0.00  0.00    +0.053 A 
ATOM     14  C   UNL     1      -2.886 -10.813  16.242  0.00  0.00    +0.065 A 
ATOM     18  C   UNL     1      -1.235 -10.206  15.063  0.00  0.00    +0.197 A 
ATOM     34  H   UNL     1      -2.304 -10.110  13.217  0.00  0.00    +0.167 HD
ENDROOT
BRANCH  10  16
ATOM      1  O   UNL     1      -5.698 -11.197  19.175  0.00  0.00    -0.336 OA
ATOM      7  N   UNL     1      -7.183 -12.539  18.170  0.00  0.00    -0.190 NA
ATOM      8  N   UNL     1      -6.701 -11.448  20.121  0.00  0.00    -0.056 NA
ATOM     16  C   UNL     1      -6.060 -11.876  18.056  0.00  0.00    +0.245 A 
ATOM     21  C   UNL     1      -7.539 -12.246  19.454  0.00  0.00    +0.202 A 
BRANCH  21  25
ATOM     25  C   UNL     1      -8.740 -12.766  20.040  0.00  0.00    +0.023 A 
ATOM     26  C   UNL     1      -8.737 -14.025  20.641  0.00  0.00    +0.015 A 
ATOM     27  C   UNL     1      -9.914 -12.013  20.007  0.00  0.00    +0.015 A 
ATOM     28  C   UNL     1      -9.906 -14.531  21.208  0.00  0.00    +0.046 A 
ATOM     29  C   UNL     1     -11.083 -12.518  20.575  0.00  0.00    +0.046 A 
ATOM     30  C   UNL     1     -11.079 -13.777  21.175  0.00  0.00    +0.120 A 
BRANCH  30   2
ATOM      2  O   UNL     1     -12.221 -14.269  21.730  0.00  0.00    -0.495 OA
ATOM     33  C   UNL     1     -12.985 -13.377  22.541  0.00  0.00    +0.277 C 
ENDBRANCH  30   2
ENDBRANCH  21  25
ENDBRANCH  10  16
BRANCH   4  15
ATOM     15  C   UNL     1      -6.984 -11.466  15.269  0.00  0.00    +0.120 C 
BRANCH  15  17
ATOM     17  C   UNL     1      -8.033 -10.386  15.281  0.00  0.00    -0.033 A 
ATOM     19  C   UNL     1      -8.888 -10.231  14.190  0.00  0.00    +0.007 A 
ATOM     20  C   UNL     1      -8.148  -9.538  16.383  0.00  0.00    +0.007 A 
ATOM     22  C   UNL     1      -9.857  -9.229  14.201  0.00  0.00    +0.023 A 
ATOM     23  C   UNL     1      -9.117  -8.536  16.394  0.00  0.00    +0.023 A 
ATOM     24  C   UNL     1      -9.973  -8.381  15.303  0.00  0.00    +0.033 A 
BRANCH  24   9
ATOM      3  O   UNL     1     -12.905  -8.504  15.980  0.00  0.00    -0.276 OA
ATOM      9  N   UNL     1     -10.943  -7.379  15.313  0.00  0.00    -0.286 N 
ATOM     31  C   UNL     1     -12.302  -7.493  15.636  0.00  0.00    +0.214 C 
ATOM     32  C   UNL     1     -13.015  -6.169  15.525  0.00  0.00    +0.109 C 
ATOM     35  H   UNL     1     -10.613  -6.452  15.051  0.00  0.00    +0.155 HD
ENDBRANCH  24   9
ENDBRANCH  15  17
ENDBRANCH   4  15
TORSDOF 6
ENDMDL
MODEL 8
REMARK VINA RESULT:      -6.7     22.175     24.264
REMARK  Name = 26744948
REMARK  8 active torsions:
REMARK  status: ('A' for Active; 'I' for Inactive)
REMARK    1  A    between atoms: O_2  and  C_30
REMARK    2  A    between atoms: O_2  and  C_33
REMARK    3  A    between atoms: N_4  and  C_15
REMARK    4  A    between atoms: N_9  and  C_24
REMARK    5  A    between atoms: C_10  and  C_16
REMARK    6  A    between atoms: C_15  and  C_17
REMARK    7  A    between atoms: C_21  and  C_25
REMARK    8  A    between atoms: C_31  and  C_32
REMARK                            x       y       z     vdW  Elec       q    Type
REMARK                         _______ _______ _______ _____ _____    ______ ____
ROOT
ATOM      4  N   UNL     1      -8.825  -7.055   6.676  0.00  0.00    -0.281 NA
ATOM      5  N   UNL     1     -11.737  -6.951   4.315  0.00  0.00    -0.347 N 
ATOM      6  N   UNL     1     -10.884  -8.849   3.500  0.00  0.00    -0.240 NA
ATOM     10  C   UNL     1      -8.704  -8.552   6.621  0.00  0.00    +0.152 C 
ATOM     11  C   UNL     1      -9.018  -9.129   5.195  0.00  0.00    +0.086 C 
ATOM     12  C   UNL     1     -10.197  -6.585   6.325  0.00  0.00    +0.140 C 
ATOM     13  C   UNL     1     -10.692  -7.283   5.121  0.00  0.00    +0.053 A 
ATOM     14  C   UNL     1     -10.191  -8.450   4.606  0.00  0.00    +0.065 A 
ATOM     18  C   UNL     1     -11.813  -7.926   3.351  0.00  0.00    +0.197 A 
ATOM     34  H   UNL     1     -12.345  -6.147   4.407  0.00  0.00    +0.167 HD
ENDROOT
BRANCH  10  16
ATOM      1  O   UNL     1      -6.458  -9.358   6.051  0.00  0.00    -0.336 OA
ATOM      7  N   UNL     1      -6.876  -9.308   8.252  0.00  0.00    -0.190 NA
ATOM      8  N   UNL     1      -5.295  -9.820   6.680  0.00  0.00    -0.056 NA
ATOM     16  C   UNL     1      -7.337  -9.079   7.048  0.00  0.00    +0.245 A 
ATOM     21  C   UNL     1      -5.619  -9.762   7.974  0.00  0.00    +0.202 A 
BRANCH  21  25
ATOM     25  C   UNL     1      -4.711 -10.147   9.016  0.00  0.00    +0.023 A 
ATOM     26  C   UNL     1      -4.673 -11.471   9.455  0.00  0.00    +0.015 A 
ATOM     27  C   UNL     1      -3.868  -9.197   9.591  0.00  0.00    +0.015 A 
ATOM     28  C   UNL     1      -3.792 -11.844  10.470  0.00  0.00    +0.046 A 
ATOM     29  C   UNL     1      -2.986  -9.571  10.605  0.00  0.00    +0.046 A 
ATOM     30  C   UNL     1      -2.948 -10.894  11.045  0.00  0.00    +0.120 A 
BRANCH  30   2
ATOM      2  O   UNL     1      -2.086 -11.257  12.034  0.00  0.00    -0.495 OA
ATOM     33  C   UNL     1      -1.934 -10.351  13.127  0.00  0.00    +0.277 C 
ENDBRANCH  30   2
ENDBRANCH  21  25
ENDBRANCH  10  16
BRANCH   4  15
ATOM     15  C   UNL     1      -8.481  -6.514   7.998  0.00  0.00    +0.120 C 
BRANCH  15  17
ATOM     17  C   UNL     1      -9.683  -5.936   8.697  0.00  0.00    -0.033 A 
ATOM     19  C   UNL     1      -9.887  -4.557   8.711  0.00  0.00    +0.007 A 
ATOM     20  C   UNL     1     -10.593  -6.782   9.332  0.00  0.00    +0.007 A 
ATOM     22  C   UNL     1     -10.998  -4.022   9.360  0.00  0.00    +0.023 A 
ATOM     23  C   UNL     1     -11.705  -6.247   9.982  0.00  0.00    +0.023 A 
ATOM     24  C   UNL     1     -11.909  -4.867   9.996  0.00  0.00    +0.033 A 
BRANCH  24   9
ATOM      3  O   UNL     1     -12.100  -3.197  12.495  0.00  0.00    -0.276 OA
ATOM      9  N   UNL     1     -13.021  -4.332  10.645  0.00  0.00    -0.286 N 
ATOM     31  C   UNL     1     -13.053  -3.559  11.813  0.00  0.00    +0.214 C 
ATOM     32  C   UNL     1     -14.461  -3.174  12.190  0.00  0.00    +0.109 C 
ATOM     35  H   UNL     1     -13.918  -4.534  10.207  0.00  0.00    +0.155 HD
ENDBRANCH  24   9
ENDBRANCH  15  17
ENDBRANCH   4  15
TORSDOF 6
ENDMDL
MODEL 9
REMARK VINA RESULT:      -6.6     25.455     28.907
REMARK  Name = 26744948
REMARK  8 active torsions:
REMARK  status: ('A' for Active; 'I' for Inactive)
REMARK    1  A    between atoms: O_2  and  C_30
REMARK    2  A    between atoms: O_2  and  C_33
REMARK    3  A    between atoms: N_4  and  C_15
REMARK    4  A    between atoms: N_9  and  C_24
REMARK    5  A    between atoms: C_10  and  C_16
REMARK    6  A    between atoms: C_15  and  C_17
REMARK    7  A    between atoms: C_21  and  C_25
REMARK    8  A    between atoms: C_31  and  C_32
REMARK                            x       y       z     vdW  Elec       q    Type
REMARK                         _______ _______ _______ _____ _____    ______ ____
ROOT
ATOM      4  N   UNL     1     -10.443 -11.449  19.540  0.00  0.00    -0.281 NA
ATOM      5  N   UNL     1     -12.487 -14.285  20.900  0.00  0.00    -0.347 N 
ATOM      6  N   UNL     1     -10.614 -15.481  20.665  0.00  0.00    -0.240 NA
ATOM     10  C   UNL     1      -9.143 -12.012  20.043  0.00  0.00    +0.152 C 
ATOM     11  C   UNL     1      -9.093 -13.579  19.956  0.00  0.00    +0.086 C 
ATOM     12  C   UNL     1     -11.614 -11.951  20.316  0.00  0.00    +0.140 C 
ATOM     13  C   UNL     1     -11.516 -13.411  20.518  0.00  0.00    +0.053 A 
ATOM     14  C   UNL     1     -10.379 -14.165  20.386  0.00  0.00    +0.065 A 
ATOM     18  C   UNL     1     -11.895 -15.521  20.975  0.00  0.00    +0.197 A 
ATOM     34  H   UNL     1     -13.456 -14.069  21.098  0.00  0.00    +0.167 HD
ENDROOT
BRANCH  10  16
ATOM      1  O   UNL     1      -7.077 -10.688  20.064  0.00  0.00    -0.336 OA
ATOM      7  N   UNL     1      -7.534 -11.631  18.084  0.00  0.00    -0.190 NA
ATOM      8  N   UNL     1      -6.039 -10.309  19.202  0.00  0.00    -0.056 NA
ATOM     16  C   UNL     1      -7.913 -11.464  19.326  0.00  0.00    +0.245 A 
ATOM     21  C   UNL     1      -6.380 -10.903  18.056  0.00  0.00    +0.202 A 
BRANCH  21  25
ATOM     25  C   UNL     1      -5.589 -10.793  16.864  0.00  0.00    +0.023 A 
ATOM     26  C   UNL     1      -6.192 -10.442  15.655  0.00  0.00    +0.015 A 
ATOM     27  C   UNL     1      -4.217 -11.037  16.914  0.00  0.00    +0.015 A 
ATOM     28  C   UNL     1      -5.423 -10.336  14.497  0.00  0.00    +0.046 A 
ATOM     29  C   UNL     1      -3.448 -10.931  15.755  0.00  0.00    +0.046 A 
ATOM     30  C   UNL     1      -4.050 -10.581  14.547  0.00  0.00    +0.120 A 
BRANCH  30   2
ATOM      2  O   UNL     1      -3.298 -10.477  13.417  0.00  0.00    -0.495 OA
ATOM     33  C   UNL     1      -1.890 -10.316  13.587  0.00  0.00    +0.277 C 
ENDBRANCH  30   2
ENDBRANCH  21  25
ENDBRANCH  10  16
BRANCH   4  15
ATOM     15  C   UNL     1     -10.468  -9.981  19.575  0.00  0.00    +0.120 C 
BRANCH  15  17
ATOM     17  C   UNL     1     -10.844  -9.395  18.240  0.00  0.00    -0.033 A 
ATOM     19  C   UNL     1      -9.852  -8.935  17.374  0.00  0.00    +0.007 A 
ATOM     20  C   UNL     1     -12.187  -9.310  17.870  0.00  0.00    +0.007 A 
ATOM     22  C   UNL     1     -10.201  -8.390  16.140  0.00  0.00    +0.023 A 
ATOM     23  C   UNL     1     -12.536  -8.765  16.634  0.00  0.00    +0.023 A 
ATOM     24  C   UNL     1     -11.544  -8.305  15.768  0.00  0.00    +0.033 A 
BRANCH  24   9
ATOM      3  O   UNL     1     -12.129  -5.458  14.981  0.00  0.00    -0.276 OA
ATOM      9  N   UNL     1     -11.892  -7.761  14.532  0.00  0.00    -0.286 N 
ATOM     31  C   UNL     1     -12.157  -6.421  14.221  0.00  0.00    +0.214 C 
ATOM     32  C   UNL     1     -12.499  -6.243  12.763  0.00  0.00    +0.109 C 
ATOM     35  H   UNL     1     -11.960  -8.429  13.768  0.00  0.00    +0.155 HD
ENDBRANCH  24   9
ENDBRANCH  15  17
ENDBRANCH   4  15
TORSDOF 6
ENDMDL
MODEL 10
REMARK VINA RESULT:      -6.6      2.260      7.175
REMARK  Name = 26744948
REMARK  8 active torsions:
REMARK  status: ('A' for Active; 'I' for Inactive)
REMARK    1  A    between atoms: O_2  and  C_30
REMARK    2  A    between atoms: O_2  and  C_33
REMARK    3  A    between atoms: N_4  and  C_15
REMARK    4  A    between atoms: N_9  and  C_24
REMARK    5  A    between atoms: C_10  and  C_16
REMARK    6  A    between atoms: C_15  and  C_17
REMARK    7  A    between atoms: C_21  and  C_25
REMARK    8  A    between atoms: C_31  and  C_32
REMARK                            x       y       z     vdW  Elec       q    Type
REMARK                         _______ _______ _______ _____ _____    ______ ____
ROOT
ATOM      4  N   UNL     1       9.953   5.546   4.821  0.00  0.00    -0.281 NA
ATOM      5  N   UNL     1      10.113   3.914   8.194  0.00  0.00    -0.347 N 
ATOM      6  N   UNL     1       9.387   5.885   8.957  0.00  0.00    -0.240 NA
ATOM     10  C   UNL     1       8.871   6.507   5.224  0.00  0.00    +0.152 C 
ATOM     11  C   UNL     1       9.028   7.000   6.707  0.00  0.00    +0.086 C 
ATOM     12  C   UNL     1       9.968   4.320   5.671  0.00  0.00    +0.140 C 
ATOM     13  C   UNL     1       9.849   4.679   7.100  0.00  0.00    +0.053 A 
ATOM     14  C   UNL     1       9.401   5.877   7.592  0.00  0.00    +0.065 A 
ATOM     18  C   UNL     1       9.819   4.685   9.291  0.00  0.00    +0.197 A 
ATOM     34  H   UNL     1      10.453   2.961   8.202  0.00  0.00    +0.167 HD
ENDROOT
BRANCH  10  16
ATOM      1  O   UNL     1       9.916   8.451   4.152  0.00  0.00    -0.336 OA
ATOM      7  N   UNL     1       7.734   8.224   3.698  0.00  0.00    -0.190 NA
ATOM      8  N   UNL     1       9.579   9.518   3.308  0.00  0.00    -0.056 NA
ATOM     16  C   UNL     1       8.772   7.739   4.330  0.00  0.00    +0.245 A 
ATOM     21  C   UNL     1       8.278   9.315   3.085  0.00  0.00    +0.202 A 
BRANCH  21  25
ATOM     25  C   UNL     1       7.493  10.182   2.255  0.00  0.00    +0.023 A 
ATOM     26  C   UNL     1       7.640  11.566   2.351  0.00  0.00    +0.015 A 
ATOM     27  C   UNL     1       6.580   9.640   1.351  0.00  0.00    +0.015 A 
ATOM     28  C   UNL     1       6.875  12.407   1.545  0.00  0.00    +0.046 A 
ATOM     29  C   UNL     1       5.814  10.481   0.543  0.00  0.00    +0.046 A 
ATOM     30  C   UNL     1       5.962  11.865   0.641  0.00  0.00    +0.120 A 
BRANCH  30   2
ATOM      2  O   UNL     1       5.215  12.685  -0.148  0.00  0.00    -0.495 OA
ATOM     33  C   UNL     1       4.652  12.114  -1.329  0.00  0.00    +0.277 C 
ENDBRANCH  30   2
ENDBRANCH  21  25
ENDBRANCH  10  16
BRANCH   4  15
ATOM     15  C   UNL     1       9.833   5.125   3.418  0.00  0.00    +0.120 C 
BRANCH  15  17
ATOM     17  C   UNL     1      11.180   4.916   2.778  0.00  0.00    -0.033 A 
ATOM     19  C   UNL     1      11.536   3.655   2.298  0.00  0.00    +0.007 A 
ATOM     20  C   UNL     1      12.072   5.982   2.666  0.00  0.00    +0.007 A 
ATOM     22  C   UNL     1      12.784   3.461   1.707  0.00  0.00    +0.023 A 
ATOM     23  C   UNL     1      13.321   5.787   2.076  0.00  0.00    +0.023 A 
ATOM     24  C   UNL     1      13.677   4.527   1.596  0.00  0.00    +0.033 A 
BRANCH  24   9
ATOM      3  O   UNL     1      14.435   4.147  -1.294  0.00  0.00    -0.276 OA
ATOM      9  N   UNL     1      14.925   4.332   1.004  0.00  0.00    -0.286 N 
ATOM     31  C   UNL     1      15.222   4.158  -0.354  0.00  0.00    +0.214 C 
ATOM     32  C   UNL     1      16.701   3.977  -0.583  0.00  0.00    +0.109 C 
ATOM     35  H   UNL     1      15.713   4.316   1.649  0.00  0.00    +0.155 HD
ENDBRANCH  24   9
ENDBRANCH  15  17
ENDBRANCH   4  15
TORSDOF 6
ENDMDL
