MODEL 1
REMARK VINA RESULT:      -7.6      0.000      0.000
REMARK  Name = 45783319
REMARK  7 active torsions:
REMARK  status: ('A' for Active; 'I' for Inactive)
REMARK    1  A    between atoms: N_3  and  C_13
REMARK    2  A    between atoms: C_9  and  C_15
REMARK    3  A    between atoms: C_13  and  C_14
REMARK    4  A    between atoms: C_14  and  C_21
REMARK    5  A    between atoms: C_14  and  C_22
REMARK    6  A    between atoms: C_16  and  C_24
REMARK    7  A    between atoms: C_25  and  C_26
REMARK                            x       y       z     vdW  Elec       q    Type
REMARK                         _______ _______ _______ _____ _____    ______ ____
ROOT
ATOM      4  N   UNL     1      20.774   5.611  21.602  0.00  0.00    -0.315 N 
ATOM      7  N   UNL     1      20.618   7.973  21.632  0.00  0.00    -0.240 NA
ATOM     16  C   UNL     1      22.411   3.226  21.847  0.00  0.00    +0.078 C 
ATOM     17  C   UNL     1      22.315   4.260  22.968  0.00  0.00    +0.031 C 
ATOM     18  C   UNL     1      21.181   3.270  20.944  0.00  0.00    +0.031 C 
ATOM     19  C   UNL     1      21.967   5.658  22.456  0.00  0.00    +0.107 C 
ATOM     20  C   UNL     1      20.824   4.681  20.470  0.00  0.00    +0.107 C 
ATOM     23  C   UNL     1      20.004   6.775  21.505  0.00  0.00    +0.122 A 
ATOM     26  C   UNL     1      17.867   7.769  21.183  0.00  0.00    +0.027 A 
ATOM     27  C   UNL     1      18.645   6.621  21.282  0.00  0.00    +0.055 A 
ATOM     28  C   UNL     1      18.463   9.019  21.310  0.00  0.00    +0.031 A 
ATOM     29  C   UNL     1      19.830   9.066  21.530  0.00  0.00    +0.113 A 
ENDROOT
BRANCH  26  25
ATOM      1  O   UNL     1      14.477   6.881  20.745  0.00  0.00    -0.336 OA
ATOM      5  N   UNL     1      15.700   8.753  20.619  0.00  0.00    -0.190 NA
ATOM      6  N   UNL     1      15.793   6.507  21.048  0.00  0.00    -0.056 NA
ATOM     15  C   UNL     1      14.510   8.218  20.505  0.00  0.00    +0.245 A 
ATOM     25  C   UNL     1      16.454   7.665  20.952  0.00  0.00    +0.202 A 
BRANCH  15   9
ATOM      3  N   UNL     1      12.214   7.918  19.593  0.00  0.00    -0.291 NA
ATOM      9  C   UNL     1      13.192   8.873  20.151  0.00  0.00    +0.146 C 
ATOM     10  C   UNL     1      12.486   9.487  21.375  0.00  0.00    +0.030 C 
ATOM     11  C   UNL     1      10.890   8.427  19.952  0.00  0.00    +0.085 C 
ATOM     12  C   UNL     1      11.099   8.862  21.388  0.00  0.00    +0.017 C 
BRANCH   3  13
ATOM     13  C   UNL     1      12.358   7.723  18.156  0.00  0.00    +0.088 C 
BRANCH  13  14
ATOM     14  C   UNL     1      11.972   8.976  17.352  0.00  0.00    -0.003 C 
ATOM     21  C   UNL     1      13.185   9.474  16.560  0.00  0.00    +0.008 C 
ATOM     22  C   UNL     1      10.803   8.724  16.396  0.00  0.00    +0.008 C 
ENDBRANCH  13  14
ENDBRANCH   3  13
ENDBRANCH  15   9
ENDBRANCH  26  25
BRANCH  16  24
ATOM      2  O   UNL     1      24.491   4.293  21.340  0.00  0.00    -0.276 OA
ATOM      8  N   UNL     1      23.816   2.536  20.015  0.00  0.00    -0.329 N 
ATOM     24  C   UNL     1      23.677   3.415  21.063  0.00  0.00    +0.214 C 
ATOM     30  H   UNL     1      24.635   2.570  19.417  0.00  0.00    +0.145 HD
ATOM     31  H   UNL     1      23.104   1.859  19.764  0.00  0.00    +0.145 HD
ENDBRANCH  16  24
TORSDOF 5
ENDMDL
MODEL 2
REMARK VINA RESULT:      -7.5      0.838      2.300
REMARK  Name = 45783319
REMARK  7 active torsions:
REMARK  status: ('A' for Active; 'I' for Inactive)
REMARK    1  A    between atoms: N_3  and  C_13
REMARK    2  A    between atoms: C_9  and  C_15
REMARK    3  A    between atoms: C_13  and  C_14
REMARK    4  A    between atoms: C_14  and  C_21
REMARK    5  A    between atoms: C_14  and  C_22
REMARK    6  A    between atoms: C_16  and  C_24
REMARK    7  A    between atoms: C_25  and  C_26
REMARK                            x       y       z     vdW  Elec       q    Type
REMARK                         _______ _______ _______ _____ _____    ______ ____
ROOT
ATOM      4  N   UNL     1      20.677   5.641  21.650  0.00  0.00    -0.315 N 
ATOM      7  N   UNL     1      20.256   7.966  21.795  0.00  0.00    -0.240 NA
ATOM     16  C   UNL     1      22.527   3.427  21.974  0.00  0.00    +0.078 C 
ATOM     17  C   UNL     1      22.175   4.362  23.129  0.00  0.00    +0.031 C 
ATOM     18  C   UNL     1      21.423   3.408  20.918  0.00  0.00    +0.031 C 
ATOM     19  C   UNL     1      21.740   5.750  22.657  0.00  0.00    +0.107 C 
ATOM     20  C   UNL     1      20.973   4.805  20.484  0.00  0.00    +0.107 C 
ATOM     23  C   UNL     1      19.800   6.724  21.519  0.00  0.00    +0.122 A 
ATOM     26  C   UNL     1      17.623   7.512  20.973  0.00  0.00    +0.027 A 
ATOM     27  C   UNL     1      18.506   6.447  21.108  0.00  0.00    +0.055 A 
ATOM     28  C   UNL     1      18.055   8.804  21.250  0.00  0.00    +0.031 A 
ATOM     29  C   UNL     1      19.370   8.976  21.653  0.00  0.00    +0.113 A 
ENDROOT
BRANCH  26  25
ATOM      1  O   UNL     1      14.249   6.592  20.481  0.00  0.00    -0.336 OA
ATOM      5  N   UNL     1      15.784   7.802  19.387  0.00  0.00    -0.190 NA
ATOM      6  N   UNL     1      15.411   6.543  21.261  0.00  0.00    -0.056 NA
ATOM     15  C   UNL     1      14.555   7.352  19.397  0.00  0.00    +0.245 A 
ATOM     25  C   UNL     1      16.271   7.279  20.550  0.00  0.00    +0.202 A 
BRANCH  15   9
ATOM      3  N   UNL     1      12.700   8.814  18.612  0.00  0.00    -0.291 NA
ATOM      9  C   UNL     1      13.448   7.561  18.385  0.00  0.00    +0.146 C 
ATOM     10  C   UNL     1      13.975   7.675  16.942  0.00  0.00    +0.030 C 
ATOM     11  C   UNL     1      12.217   9.248  17.301  0.00  0.00    +0.085 C 
ATOM     12  C   UNL     1      13.423   8.993  16.420  0.00  0.00    +0.017 C 
BRANCH   3  13
ATOM     13  C   UNL     1      11.618   8.670  19.577  0.00  0.00    +0.088 C 
BRANCH  13  14
ATOM     14  C   UNL     1      11.798   9.581  20.802  0.00  0.00    -0.003 C 
ATOM     21  C   UNL     1      12.014   8.726  22.054  0.00  0.00    +0.008 C 
ATOM     22  C   UNL     1      12.966  10.559  20.640  0.00  0.00    +0.008 C 
ENDBRANCH  13  14
ENDBRANCH   3  13
ENDBRANCH  15   9
ENDBRANCH  26  25
BRANCH  16  24
ATOM      2  O   UNL     1      24.676   4.476  21.990  0.00  0.00    -0.276 OA
ATOM      8  N   UNL     1      24.035   3.337  20.096  0.00  0.00    -0.329 N 
ATOM     24  C   UNL     1      23.852   3.801  21.377  0.00  0.00    +0.214 C 
ATOM     30  H   UNL     1      24.896   3.528  19.595  0.00  0.00    +0.145 HD
ATOM     31  H   UNL     1      23.318   2.835  19.583  0.00  0.00    +0.145 HD
ENDBRANCH  16  24
TORSDOF 5
ENDMDL
MODEL 3
REMARK VINA RESULT:      -7.4      2.334     10.129
REMARK  Name = 45783319
REMARK  7 active torsions:
REMARK  status: ('A' for Active; 'I' for Inactive)
REMARK    1  A    between atoms: N_3  and  C_13
REMARK    2  A    between atoms: C_9  and  C_15
REMARK    3  A    between atoms: C_13  and  C_14
REMARK    4  A    between atoms: C_14  and  C_21
REMARK    5  A    between atoms: C_14  and  C_22
REMARK    6  A    between atoms: C_16  and  C_24
REMARK    7  A    between atoms: C_25  and  C_26
REMARK                            x       y       z     vdW  Elec       q    Type
REMARK                         _______ _______ _______ _____ _____    ______ ____
ROOT
ATOM      4  N   UNL     1      14.722   7.381  20.776  0.00  0.00    -0.315 N 
ATOM      7  N   UNL     1      15.795   6.255  18.991  0.00  0.00    -0.240 NA
ATOM     16  C   UNL     1      12.303   8.542  21.884  0.00  0.00    +0.078 C 
ATOM     17  C   UNL     1      12.374   7.078  21.455  0.00  0.00    +0.031 C 
ATOM     18  C   UNL     1      13.688   9.091  22.219  0.00  0.00    +0.031 C 
ATOM     19  C   UNL     1      13.423   6.828  20.372  0.00  0.00    +0.107 C 
ATOM     20  C   UNL     1      14.735   8.800  21.142  0.00  0.00    +0.107 C 
ATOM     23  C   UNL     1      15.870   6.799  20.226  0.00  0.00    +0.122 A 
ATOM     26  C   UNL     1      18.172   6.246  20.462  0.00  0.00    +0.027 A 
ATOM     27  C   UNL     1      17.023   6.820  20.995  0.00  0.00    +0.055 A 
ATOM     28  C   UNL     1      18.133   5.675  19.195  0.00  0.00    +0.031 A 
ATOM     29  C   UNL     1      16.931   5.706  18.506  0.00  0.00    +0.113 A 
ENDROOT
BRANCH  26  25
ATOM      1  O   UNL     1      20.847   6.614  22.737  0.00  0.00    -0.336 OA
ATOM      5  N   UNL     1      20.499   5.569  20.787  0.00  0.00    -0.190 NA
ATOM      6  N   UNL     1      19.523   6.893  22.377  0.00  0.00    -0.056 NA
ATOM     15  C   UNL     1      21.350   5.829  21.747  0.00  0.00    +0.245 A 
ATOM     25  C   UNL     1      19.393   6.243  21.216  0.00  0.00    +0.202 A 
BRANCH  15   9
ATOM      3  N   UNL     1      23.180   4.370  20.904  0.00  0.00    -0.291 NA
ATOM      9  C   UNL     1      22.788   5.383  21.903  0.00  0.00    +0.146 C 
ATOM     10  C   UNL     1      23.792   6.535  21.709  0.00  0.00    +0.030 C 
ATOM     11  C   UNL     1      24.615   4.545  20.681  0.00  0.00    +0.085 C 
ATOM     12  C   UNL     1      24.744   6.053  20.624  0.00  0.00    +0.017 C 
BRANCH   3  13
ATOM     13  C   UNL     1      22.848   3.009  21.305  0.00  0.00    +0.088 C 
BRANCH  13  14
ATOM     14  C   UNL     1      24.006   2.314  22.041  0.00  0.00    -0.003 C 
ATOM     21  C   UNL     1      23.632   2.107  23.512  0.00  0.00    +0.008 C 
ATOM     22  C   UNL     1      24.379   0.969  21.411  0.00  0.00    +0.008 C 
ENDBRANCH  13  14
ENDBRANCH   3  13
ENDBRANCH  15   9
ENDBRANCH  26  25
BRANCH  16  24
ATOM      2  O   UNL     1      10.943   8.860  19.941  0.00  0.00    -0.276 OA
ATOM      8  N   UNL     1      11.858  10.718  20.946  0.00  0.00    -0.329 N 
ATOM     24  C   UNL     1      11.625   9.368  20.829  0.00  0.00    +0.214 C 
ATOM     30  H   UNL     1      11.448  11.372  20.289  0.00  0.00    +0.145 HD
ATOM     31  H   UNL     1      12.474  11.112  21.649  0.00  0.00    +0.145 HD
ENDBRANCH  16  24
TORSDOF 5
ENDMDL
MODEL 4
REMARK VINA RESULT:      -7.0      1.885      9.931
REMARK  Name = 45783319
REMARK  7 active torsions:
REMARK  status: ('A' for Active; 'I' for Inactive)
REMARK    1  A    between atoms: N_3  and  C_13
REMARK    2  A    between atoms: C_9  and  C_15
REMARK    3  A    between atoms: C_13  and  C_14
REMARK    4  A    between atoms: C_14  and  C_21
REMARK    5  A    between atoms: C_14  and  C_22
REMARK    6  A    between atoms: C_16  and  C_24
REMARK    7  A    between atoms: C_25  and  C_26
REMARK                            x       y       z     vdW  Elec       q    Type
REMARK                         _______ _______ _______ _____ _____    ______ ____
ROOT
ATOM      4  N   UNL     1      14.972   8.210  20.284  0.00  0.00    -0.315 N 
ATOM      7  N   UNL     1      16.608   9.659  21.195  0.00  0.00    -0.240 NA
ATOM     16  C   UNL     1      12.258   7.813  19.332  0.00  0.00    +0.078 C 
ATOM     17  C   UNL     1      13.182   8.869  18.727  0.00  0.00    +0.031 C 
ATOM     18  C   UNL     1      13.055   6.688  19.987  0.00  0.00    +0.031 C 
ATOM     19  C   UNL     1      14.252   9.351  19.706  0.00  0.00    +0.107 C 
ATOM     20  C   UNL     1      14.148   7.187  20.935  0.00  0.00    +0.107 C 
ATOM     23  C   UNL     1      16.279   8.431  20.734  0.00  0.00    +0.122 A 
ATOM     26  C   UNL     1      18.462   7.569  21.118  0.00  0.00    +0.027 A 
ATOM     27  C   UNL     1      17.160   7.364  20.675  0.00  0.00    +0.055 A 
ATOM     28  C   UNL     1      18.838   8.818  21.598  0.00  0.00    +0.031 A 
ATOM     29  C   UNL     1      17.882   9.821  21.616  0.00  0.00    +0.113 A 
ENDROOT
BRANCH  26  25
ATOM      1  O   UNL     1      20.439   4.702  20.533  0.00  0.00    -0.336 OA
ATOM      5  N   UNL     1      20.471   6.444  21.941  0.00  0.00    -0.190 NA
ATOM      6  N   UNL     1      19.327   5.487  20.206  0.00  0.00    -0.056 NA
ATOM     15  C   UNL     1      21.058   5.335  21.564  0.00  0.00    +0.245 A 
ATOM     25  C   UNL     1      19.414   6.495  21.079  0.00  0.00    +0.202 A 
BRANCH  15   9
ATOM      3  N   UNL     1      23.540   5.183  21.473  0.00  0.00    -0.291 NA
ATOM      9  C   UNL     1      22.308   4.677  22.109  0.00  0.00    +0.146 C 
ATOM     10  C   UNL     1      22.509   4.937  23.614  0.00  0.00    +0.030 C 
ATOM     11  C   UNL     1      24.601   5.061  22.472  0.00  0.00    +0.085 C 
ATOM     12  C   UNL     1      23.904   5.534  23.731  0.00  0.00    +0.017 C 
BRANCH   3  13
ATOM     13  C   UNL     1      23.871   4.494  20.232  0.00  0.00    +0.088 C 
BRANCH  13  14
ATOM     14  C   UNL     1      25.003   3.469  20.414  0.00  0.00    -0.003 C 
ATOM     21  C   UNL     1      24.410   2.065  20.562  0.00  0.00    +0.008 C 
ATOM     22  C   UNL     1      26.001   3.485  19.253  0.00  0.00    +0.008 C 
ENDBRANCH  13  14
ENDBRANCH   3  13
ENDBRANCH  15   9
ENDBRANCH  26  25
BRANCH  16  24
ATOM      2  O   UNL     1      11.291   9.654  20.515  0.00  0.00    -0.276 OA
ATOM      8  N   UNL     1      10.466   7.543  20.920  0.00  0.00    -0.329 N 
ATOM     24  C   UNL     1      11.300   8.443  20.300  0.00  0.00    +0.214 C 
ATOM     30  H   UNL     1       9.775   7.858  21.593  0.00  0.00    +0.145 HD
ATOM     31  H   UNL     1      10.530   6.542  20.776  0.00  0.00    +0.145 HD
ENDBRANCH  16  24
TORSDOF 5
ENDMDL
MODEL 5
REMARK VINA RESULT:      -6.9     13.846     15.043
REMARK  Name = 45783319
REMARK  7 active torsions:
REMARK  status: ('A' for Active; 'I' for Inactive)
REMARK    1  A    between atoms: N_3  and  C_13
REMARK    2  A    between atoms: C_9  and  C_15
REMARK    3  A    between atoms: C_13  and  C_14
REMARK    4  A    between atoms: C_14  and  C_21
REMARK    5  A    between atoms: C_14  and  C_22
REMARK    6  A    between atoms: C_16  and  C_24
REMARK    7  A    between atoms: C_25  and  C_26
REMARK                            x       y       z     vdW  Elec       q    Type
REMARK                         _______ _______ _______ _____ _____    ______ ____
ROOT
ATOM      4  N   UNL     1      18.567   8.769   5.905  0.00  0.00    -0.315 N 
ATOM      7  N   UNL     1      17.184  10.577   6.554  0.00  0.00    -0.240 NA
ATOM     16  C   UNL     1      21.236   7.683   5.558  0.00  0.00    +0.078 C 
ATOM     17  C   UNL     1      20.741   8.196   6.909  0.00  0.00    +0.031 C 
ATOM     18  C   UNL     1      20.073   7.264   4.662  0.00  0.00    +0.031 C 
ATOM     19  C   UNL     1      19.645   9.253   6.775  0.00  0.00    +0.107 C 
ATOM     20  C   UNL     1      18.967   8.317   4.569  0.00  0.00    +0.107 C 
ATOM     23  C   UNL     1      17.290   9.310   6.097  0.00  0.00    +0.122 A 
ATOM     26  C   UNL     1      14.932   9.023   5.987  0.00  0.00    +0.027 A 
ATOM     27  C   UNL     1      16.206   8.500   5.801  0.00  0.00    +0.055 A 
ATOM     28  C   UNL     1      14.783  10.323   6.457  0.00  0.00    +0.031 A 
ATOM     29  C   UNL     1      15.930  11.052   6.723  0.00  0.00    +0.113 A 
ENDROOT
BRANCH  26  25
ATOM      1  O   UNL     1      12.431   6.854   4.757  0.00  0.00    -0.336 OA
ATOM      5  N   UNL     1      12.662   8.259   6.485  0.00  0.00    -0.190 NA
ATOM      6  N   UNL     1      13.713   7.407   4.640  0.00  0.00    -0.056 NA
ATOM     15  C   UNL     1      11.881   7.409   5.868  0.00  0.00    +0.245 A 
ATOM     25  C   UNL     1      13.774   8.226   5.695  0.00  0.00    +0.202 A 
BRANCH  15   9
ATOM      3  N   UNL     1      10.159   7.162   7.647  0.00  0.00    -0.291 NA
ATOM      9  C   UNL     1      10.476   6.967   6.218  0.00  0.00    +0.146 C 
ATOM     10  C   UNL     1       9.396   7.766   5.465  0.00  0.00    +0.030 C 
ATOM     11  C   UNL     1       8.716   7.392   7.722  0.00  0.00    +0.085 C 
ATOM     12  C   UNL     1       8.484   8.323   6.549  0.00  0.00    +0.017 C 
BRANCH   3  13
ATOM     13  C   UNL     1      10.582   6.049   8.486  0.00  0.00    +0.088 C 
BRANCH  13  14
ATOM     14  C   UNL     1       9.444   5.049   8.753  0.00  0.00    -0.003 C 
ATOM     21  C   UNL     1       9.643   3.799   7.891  0.00  0.00    +0.008 C 
ATOM     22  C   UNL     1       9.349   4.646  10.227  0.00  0.00    +0.008 C 
ENDBRANCH  13  14
ENDBRANCH   3  13
ENDBRANCH  15   9
ENDBRANCH  26  25
BRANCH  16  24
ATOM      2  O   UNL     1      22.166   8.814   3.666  0.00  0.00    -0.276 OA
ATOM      8  N   UNL     1      22.817   9.490   5.768  0.00  0.00    -0.329 N 
ATOM     24  C   UNL     1      22.103   8.710   4.889  0.00  0.00    +0.214 C 
ATOM     30  H   UNL     1      23.434  10.219   5.427  0.00  0.00    +0.145 HD
ATOM     31  H   UNL     1      22.799   9.348   6.772  0.00  0.00    +0.145 HD
ENDBRANCH  16  24
TORSDOF 5
ENDMDL
MODEL 6
REMARK VINA RESULT:      -6.8      2.176      9.538
REMARK  Name = 45783319
REMARK  7 active torsions:
REMARK  status: ('A' for Active; 'I' for Inactive)
REMARK    1  A    between atoms: N_3  and  C_13
REMARK    2  A    between atoms: C_9  and  C_15
REMARK    3  A    between atoms: C_13  and  C_14
REMARK    4  A    between atoms: C_14  and  C_21
REMARK    5  A    between atoms: C_14  and  C_22
REMARK    6  A    between atoms: C_16  and  C_24
REMARK    7  A    between atoms: C_25  and  C_26
REMARK                            x       y       z     vdW  Elec       q    Type
REMARK                         _______ _______ _______ _____ _____    ______ ____
ROOT
ATOM      4  N   UNL     1      14.426   8.524  20.893  0.00  0.00    -0.315 N 
ATOM      7  N   UNL     1      16.261   9.825  21.631  0.00  0.00    -0.240 NA
ATOM     16  C   UNL     1      11.574   8.307  20.400  0.00  0.00    +0.078 C 
ATOM     17  C   UNL     1      12.428   9.389  19.743  0.00  0.00    +0.031 C 
ATOM     18  C   UNL     1      12.417   7.098  20.798  0.00  0.00    +0.031 C 
ATOM     19  C   UNL     1      13.673   9.739  20.559  0.00  0.00    +0.107 C 
ATOM     20  C   UNL     1      13.679   7.468  21.581  0.00  0.00    +0.107 C 
ATOM     23  C   UNL     1      15.800   8.660  21.124  0.00  0.00    +0.122 A 
ATOM     26  C   UNL     1      17.974   7.698  21.036  0.00  0.00    +0.027 A 
ATOM     27  C   UNL     1      16.607   7.577  20.812  0.00  0.00    +0.055 A 
ATOM     28  C   UNL     1      18.485   8.881  21.556  0.00  0.00    +0.031 A 
ATOM     29  C   UNL     1      17.595   9.906  21.834  0.00  0.00    +0.113 A 
ENDROOT
BRANCH  26  25
ATOM      1  O   UNL     1      19.636   4.782  19.937  0.00  0.00    -0.336 OA
ATOM      5  N   UNL     1      20.123   6.547  21.227  0.00  0.00    -0.190 NA
ATOM      6  N   UNL     1      18.488   5.584  19.949  0.00  0.00    -0.056 NA
ATOM     15  C   UNL     1      20.550   5.421  20.714  0.00  0.00    +0.245 A 
ATOM     25  C   UNL     1      18.853   6.605  20.731  0.00  0.00    +0.202 A 
BRANCH  15   9
ATOM      3  N   UNL     1      22.894   5.610  21.528  0.00  0.00    -0.291 NA
ATOM      9  C   UNL     1      21.898   4.747  20.863  0.00  0.00    +0.146 C 
ATOM     10  C   UNL     1      21.835   3.478  21.734  0.00  0.00    +0.030 C 
ATOM     11  C   UNL     1      23.817   4.715  22.225  0.00  0.00    +0.085 C 
ATOM     12  C   UNL     1      22.872   3.695  22.827  0.00  0.00    +0.017 C 
BRANCH   3  13
ATOM     13  C   UNL     1      23.585   6.504  20.608  0.00  0.00    +0.088 C 
BRANCH  13  14
ATOM     14  C   UNL     1      23.499   7.977  21.044  0.00  0.00    -0.003 C 
ATOM     21  C   UNL     1      22.639   8.760  20.048  0.00  0.00    +0.008 C 
ATOM     22  C   UNL     1      22.927   8.140  22.455  0.00  0.00    +0.008 C 
ENDBRANCH  13  14
ENDBRANCH   3  13
ENDBRANCH  15   9
ENDBRANCH  26  25
BRANCH  16  24
ATOM      2  O   UNL     1      10.883  10.057  21.878  0.00  0.00    -0.276 OA
ATOM      8  N   UNL     1      10.107   7.927  22.274  0.00  0.00    -0.329 N 
ATOM     24  C   UNL     1      10.827   8.867  21.576  0.00  0.00    +0.214 C 
ATOM     30  H   UNL     1       9.561   8.193  23.087  0.00  0.00    +0.145 HD
ATOM     31  H   UNL     1      10.123   6.939  22.047  0.00  0.00    +0.145 HD
ENDBRANCH  16  24
TORSDOF 5
ENDMDL
MODEL 7
REMARK VINA RESULT:      -6.8     26.871     29.887
REMARK  Name = 45783319
REMARK  7 active torsions:
REMARK  status: ('A' for Active; 'I' for Inactive)
REMARK    1  A    between atoms: N_3  and  C_13
REMARK    2  A    between atoms: C_9  and  C_15
REMARK    3  A    between atoms: C_13  and  C_14
REMARK    4  A    between atoms: C_14  and  C_21
REMARK    5  A    between atoms: C_14  and  C_22
REMARK    6  A    between atoms: C_16  and  C_24
REMARK    7  A    between atoms: C_25  and  C_26
REMARK                            x       y       z     vdW  Elec       q    Type
REMARK                         _______ _______ _______ _____ _____    ______ ____
ROOT
ATOM      4  N   UNL     1      -3.802 -10.685  12.509  0.00  0.00    -0.315 N 
ATOM      7  N   UNL     1      -1.924 -10.374  13.917  0.00  0.00    -0.240 NA
ATOM     16  C   UNL     1      -4.909 -10.767   9.827  0.00  0.00    +0.078 C 
ATOM     17  C   UNL     1      -3.752 -11.669  10.253  0.00  0.00    +0.031 C 
ATOM     18  C   UNL     1      -5.740 -10.326  11.029  0.00  0.00    +0.031 C 
ATOM     19  C   UNL     1      -2.928 -11.077  11.396  0.00  0.00    +0.107 C 
ATOM     20  C   UNL     1      -4.898  -9.771  12.180  0.00  0.00    +0.107 C 
ATOM     23  C   UNL     1      -3.240 -10.656  13.791  0.00  0.00    +0.122 A 
ATOM     26  C   UNL     1      -3.537 -10.898  16.139  0.00  0.00    +0.027 A 
ATOM     27  C   UNL     1      -4.081 -10.923  14.859  0.00  0.00    +0.055 A 
ATOM     28  C   UNL     1      -2.187 -10.612  16.308  0.00  0.00    +0.031 A 
ATOM     29  C   UNL     1      -1.430 -10.359  15.175  0.00  0.00    +0.113 A 
ENDROOT
BRANCH  26  25
ATOM      1  O   UNL     1      -5.022 -11.761  19.224  0.00  0.00    -0.336 OA
ATOM      5  N   UNL     1      -5.707 -10.918  17.265  0.00  0.00    -0.190 NA
ATOM      6  N   UNL     1      -3.880 -11.672  18.419  0.00  0.00    -0.056 NA
ATOM     15  C   UNL     1      -6.053 -11.298  18.470  0.00  0.00    +0.245 A 
ATOM     25  C   UNL     1      -4.365 -11.166  17.280  0.00  0.00    +0.202 A 
BRANCH  15   9
ATOM      3  N   UNL     1      -8.510 -11.054  18.158  0.00  0.00    -0.291 NA
ATOM      9  C   UNL     1      -7.419 -11.291  19.124  0.00  0.00    +0.146 C 
ATOM     10  C   UNL     1      -7.767 -12.636  19.788  0.00  0.00    +0.030 C 
ATOM     11  C   UNL     1      -9.688 -11.739  18.691  0.00  0.00    +0.085 C 
ATOM     12  C   UNL     1      -9.099 -13.048  19.176  0.00  0.00    +0.017 C 
BRANCH   3  13
ATOM     13  C   UNL     1      -8.761  -9.641  17.911  0.00  0.00    +0.088 C 
BRANCH  13  14
ATOM     14  C   UNL     1      -9.439  -9.393  16.552  0.00  0.00    -0.003 C 
ATOM     21  C   UNL     1      -9.708  -7.897  16.375  0.00  0.00    +0.008 C 
ATOM     22  C   UNL     1      -8.603  -9.908  15.377  0.00  0.00    +0.008 C 
ENDBRANCH  13  14
ENDBRANCH   3  13
ENDBRANCH  15   9
ENDBRANCH  26  25
BRANCH  16  24
ATOM      2  O   UNL     1      -3.407  -8.955   9.398  0.00  0.00    -0.276 OA
ATOM      8  N   UNL     1      -5.155  -9.290   7.939  0.00  0.00    -0.329 N 
ATOM     24  C   UNL     1      -4.400  -9.590   9.048  0.00  0.00    +0.214 C 
ATOM     30  H   UNL     1      -4.903  -8.514   7.336  0.00  0.00    +0.145 HD
ATOM     31  H   UNL     1      -6.007  -9.786   7.701  0.00  0.00    +0.145 HD
ENDBRANCH  16  24
TORSDOF 5
ENDMDL
MODEL 8
REMARK VINA RESULT:      -6.8     16.881     21.255
REMARK  Name = 45783319
REMARK  7 active torsions:
REMARK  status: ('A' for Active; 'I' for Inactive)
REMARK    1  A    between atoms: N_3  and  C_13
REMARK    2  A    between atoms: C_9  and  C_15
REMARK    3  A    between atoms: C_13  and  C_14
REMARK    4  A    between atoms: C_14  and  C_21
REMARK    5  A    between atoms: C_14  and  C_22
REMARK    6  A    between atoms: C_16  and  C_24
REMARK    7  A    between atoms: C_25  and  C_26
REMARK                            x       y       z     vdW  Elec       q    Type
REMARK                         _______ _______ _______ _____ _____    ______ ____
ROOT
ATOM      4  N   UNL     1      11.078   3.752  -1.624  0.00  0.00    -0.315 N 
ATOM      7  N   UNL     1      13.135   3.352  -0.523  0.00  0.00    -0.240 NA
ATOM     16  C   UNL     1       9.408   3.397  -3.971  0.00  0.00    +0.078 C 
ATOM     17  C   UNL     1       9.969   2.210  -3.191  0.00  0.00    +0.031 C 
ATOM     18  C   UNL     1       9.310   4.642  -3.094  0.00  0.00    +0.031 C 
ATOM     19  C   UNL     1      11.260   2.549  -2.445  0.00  0.00    +0.107 C 
ATOM     20  C   UNL     1      10.598   4.947  -2.324  0.00  0.00    +0.107 C 
ATOM     23  C   UNL     1      11.897   3.895  -0.498  0.00  0.00    +0.122 A 
ATOM     26  C   UNL     1      12.180   4.741   1.706  0.00  0.00    +0.027 A 
ATOM     27  C   UNL     1      11.378   4.592   0.581  0.00  0.00    +0.055 A 
ATOM     28  C   UNL     1      13.459   4.196   1.719  0.00  0.00    +0.031 A 
ATOM     29  C   UNL     1      13.886   3.517   0.589  0.00  0.00    +0.113 A 
ENDROOT
BRANCH  26  25
ATOM      1  O   UNL     1      11.521   6.850   4.462  0.00  0.00    -0.336 OA
ATOM      5  N   UNL     1      10.506   5.131   3.446  0.00  0.00    -0.190 NA
ATOM      6  N   UNL     1      12.357   6.476   3.402  0.00  0.00    -0.056 NA
ATOM     15  C   UNL     1      10.455   6.008   4.417  0.00  0.00    +0.245 A 
ATOM     25  C   UNL     1      11.690   5.456   2.851  0.00  0.00    +0.202 A 
BRANCH  15   9
ATOM      3  N   UNL     1       9.899   6.918   6.665  0.00  0.00    -0.291 NA
ATOM      9  C   UNL     1       9.390   6.210   5.474  0.00  0.00    +0.146 C 
ATOM     10  C   UNL     1       8.215   7.073   4.977  0.00  0.00    +0.030 C 
ATOM     11  C   UNL     1       8.763   7.648   7.228  0.00  0.00    +0.085 C 
ATOM     12  C   UNL     1       8.102   8.208   5.984  0.00  0.00    +0.017 C 
BRANCH   3  13
ATOM     13  C   UNL     1      10.518   6.029   7.640  0.00  0.00    +0.088 C 
BRANCH  13  14
ATOM     14  C   UNL     1       9.504   5.078   8.296  0.00  0.00    -0.003 C 
ATOM     21  C   UNL     1       9.704   3.658   7.757  0.00  0.00    +0.008 C 
ATOM     22  C   UNL     1       9.610   5.068   9.823  0.00  0.00    +0.008 C 
ENDBRANCH  13  14
ENDBRANCH   3  13
ENDBRANCH  15   9
ENDBRANCH  26  25
BRANCH  16  24
ATOM      2  O   UNL     1      10.983   2.807  -5.672  0.00  0.00    -0.276 OA
ATOM      8  N   UNL     1      10.061   4.915  -5.726  0.00  0.00    -0.329 N 
ATOM     24  C   UNL     1      10.226   3.654  -5.202  0.00  0.00    +0.214 C 
ATOM     30  H   UNL     1      10.563   5.199  -6.560  0.00  0.00    +0.145 HD
ATOM     31  H   UNL     1       9.480   5.622  -5.288  0.00  0.00    +0.145 HD
ENDBRANCH  16  24
TORSDOF 5
ENDMDL
MODEL 9
REMARK VINA RESULT:      -6.7     28.079     30.461
REMARK  Name = 45783319
REMARK  7 active torsions:
REMARK  status: ('A' for Active; 'I' for Inactive)
REMARK    1  A    between atoms: N_3  and  C_13
REMARK    2  A    between atoms: C_9  and  C_15
REMARK    3  A    between atoms: C_13  and  C_14
REMARK    4  A    between atoms: C_14  and  C_21
REMARK    5  A    between atoms: C_14  and  C_22
REMARK    6  A    between atoms: C_16  and  C_24
REMARK    7  A    between atoms: C_25  and  C_26
REMARK                            x       y       z     vdW  Elec       q    Type
REMARK                         _______ _______ _______ _____ _____    ______ ____
ROOT
ATOM      4  N   UNL     1      -5.560  -9.914  10.452  0.00  0.00    -0.315 N 
ATOM      7  N   UNL     1      -3.226 -10.053  10.827  0.00  0.00    -0.240 NA
ATOM     16  C   UNL     1      -7.758  -9.519   8.598  0.00  0.00    +0.078 C 
ATOM     17  C   UNL     1      -6.726 -10.628   8.404  0.00  0.00    +0.031 C 
ATOM     18  C   UNL     1      -7.854  -9.099  10.063  0.00  0.00    +0.031 C 
ATOM     19  C   UNL     1      -5.378 -10.302   9.048  0.00  0.00    +0.107 C 
ATOM     20  C   UNL     1      -6.494  -8.813  10.704  0.00  0.00    +0.107 C 
ATOM     23  C   UNL     1      -4.483 -10.118  11.323  0.00  0.00    +0.122 A 
ATOM     26  C   UNL     1      -3.719 -10.582  13.527  0.00  0.00    +0.027 A 
ATOM     27  C   UNL     1      -4.779 -10.377  12.651  0.00  0.00    +0.055 A 
ATOM     28  C   UNL     1      -2.413 -10.523  13.054  0.00  0.00    +0.031 A 
ATOM     29  C   UNL     1      -2.222 -10.258  11.708  0.00  0.00    +0.113 A 
ENDROOT
BRANCH  26  25
ATOM      1  O   UNL     1      -3.852 -11.672  16.883  0.00  0.00    -0.336 OA
ATOM      5  N   UNL     1      -4.958 -10.205  15.602  0.00  0.00    -0.190 NA
ATOM      6  N   UNL     1      -3.265 -11.745  15.614  0.00  0.00    -0.056 NA
ATOM     15  C   UNL     1      -4.839 -10.743  16.790  0.00  0.00    +0.245 A 
ATOM     25  C   UNL     1      -3.972 -10.852  14.914  0.00  0.00    +0.202 A 
BRANCH  15   9
ATOM      3  N   UNL     1      -7.092 -10.492  17.816  0.00  0.00    -0.291 NA
ATOM      9  C   UNL     1      -5.635 -10.474  18.050  0.00  0.00    +0.146 C 
ATOM     10  C   UNL     1      -5.400 -11.537  19.140  0.00  0.00    +0.030 C 
ATOM     11  C   UNL     1      -7.707 -10.928  19.070  0.00  0.00    +0.085 C 
ATOM     12  C   UNL     1      -6.786 -12.053  19.497  0.00  0.00    +0.017 C 
BRANCH   3  13
ATOM     13  C   UNL     1      -7.617  -9.211  17.363  0.00  0.00    +0.088 C 
BRANCH  13  14
ATOM     14  C   UNL     1      -9.070  -9.312  16.868  0.00  0.00    -0.003 C 
ATOM     21  C   UNL     1      -9.860  -8.084  17.329  0.00  0.00    +0.008 C 
ATOM     22  C   UNL     1      -9.163  -9.441  15.345  0.00  0.00    +0.008 C 
ENDBRANCH  13  14
ENDBRANCH   3  13
ENDBRANCH  15   9
ENDBRANCH  26  25
BRANCH  16  24
ATOM      2  O   UNL     1      -7.711  -7.194   8.038  0.00  0.00    -0.276 OA
ATOM      8  N   UNL     1      -6.875  -8.700   6.511  0.00  0.00    -0.329 N 
ATOM     24  C   UNL     1      -7.449  -8.350   7.710  0.00  0.00    +0.214 C 
ATOM     30  H   UNL     1      -6.621  -7.990   5.833  0.00  0.00    +0.145 HD
ATOM     31  H   UNL     1      -6.724  -9.663   6.232  0.00  0.00    +0.145 HD
ENDBRANCH  16  24
TORSDOF 5
ENDMDL
MODEL 10
REMARK VINA RESULT:      -6.6     27.438     30.264
REMARK  Name = 45783319
REMARK  7 active torsions:
REMARK  status: ('A' for Active; 'I' for Inactive)
REMARK    1  A    between atoms: N_3  and  C_13
REMARK    2  A    between atoms: C_9  and  C_15
REMARK    3  A    between atoms: C_13  and  C_14
REMARK    4  A    between atoms: C_14  and  C_21
REMARK    5  A    between atoms: C_14  and  C_22
REMARK    6  A    between atoms: C_16  and  C_24
REMARK    7  A    between atoms: C_25  and  C_26
REMARK                            x       y       z     vdW  Elec       q    Type
REMARK                         _______ _______ _______ _____ _____    ______ ____
ROOT
ATOM      4  N   UNL     1      -4.342 -10.980  15.021  0.00  0.00    -0.315 N 
ATOM      7  N   UNL     1      -2.210 -10.693  14.034  0.00  0.00    -0.240 NA
ATOM     16  C   UNL     1      -5.931 -11.513  17.391  0.00  0.00    +0.078 C 
ATOM     17  C   UNL     1      -4.954 -10.341  17.319  0.00  0.00    +0.031 C 
ATOM     18  C   UNL     1      -6.392 -11.939  15.999  0.00  0.00    +0.031 C 
ATOM     19  C   UNL     1      -3.813 -10.581  16.331  0.00  0.00    +0.107 C 
ATOM     20  C   UNL     1      -5.241 -12.138  15.011  0.00  0.00    +0.107 C 
ATOM     23  C   UNL     1      -3.554 -10.708  13.896  0.00  0.00    +0.122 A 
ATOM     26  C   UNL     1      -3.444 -10.197  11.576  0.00  0.00    +0.027 A 
ATOM     27  C   UNL     1      -4.214 -10.469  12.701  0.00  0.00    +0.055 A 
ATOM     28  C   UNL     1      -2.058 -10.173  11.678  0.00  0.00    +0.031 A 
ATOM     29  C   UNL     1      -1.495 -10.426  12.919  0.00  0.00    +0.113 A 
ENDROOT
BRANCH  26  25
ATOM      1  O   UNL     1      -4.586  -9.076   8.428  0.00  0.00    -0.336 OA
ATOM      5  N   UNL     1      -5.097 -10.727   9.852  0.00  0.00    -0.190 NA
ATOM      6  N   UNL     1      -3.715  -8.934   9.516  0.00  0.00    -0.056 NA
ATOM     15  C   UNL     1      -5.365 -10.154   8.706  0.00  0.00    +0.245 A 
ATOM     25  C   UNL     1      -4.078  -9.944  10.313  0.00  0.00    +0.202 A 
BRANCH  15   9
ATOM      3  N   UNL     1      -6.886  -9.353   6.907  0.00  0.00    -0.291 NA
ATOM      9  C   UNL     1      -6.404 -10.522   7.668  0.00  0.00    +0.146 C 
ATOM     10  C   UNL     1      -5.860 -11.488   6.599  0.00  0.00    +0.030 C 
ATOM     11  C   UNL     1      -7.268  -9.849   5.585  0.00  0.00    +0.085 C 
ATOM     12  C   UNL     1      -6.134 -10.803   5.268  0.00  0.00    +0.017 C 
BRANCH   3  13
ATOM     13  C   UNL     1      -7.979  -8.650   7.566  0.00  0.00    +0.088 C 
BRANCH  13  14
ATOM     14  C   UNL     1      -8.190  -7.233   7.005  0.00  0.00    -0.003 C 
ATOM     21  C   UNL     1      -9.575  -7.135   6.360  0.00  0.00    +0.008 C 
ATOM     22  C   UNL     1      -8.045  -6.149   8.077  0.00  0.00    +0.008 C 
ENDBRANCH  13  14
ENDBRANCH   3  13
ENDBRANCH  15   9
ENDBRANCH  26  25
BRANCH  16  24
ATOM      2  O   UNL     1      -4.401 -12.503  18.941  0.00  0.00    -0.276 OA
ATOM      8  N   UNL     1      -5.879 -13.881  17.839  0.00  0.00    -0.329 N 
ATOM     24  C   UNL     1      -5.323 -12.661  18.144  0.00  0.00    +0.214 C 
ATOM     30  H   UNL     1      -5.547 -14.727  18.290  0.00  0.00    +0.145 HD
ATOM     31  H   UNL     1      -6.596 -13.999  17.132  0.00  0.00    +0.145 HD
ENDBRANCH  16  24
TORSDOF 5
ENDMDL
