MODEL 1
REMARK VINA RESULT:      -6.6      0.000      0.000
REMARK  Name = 11883065
REMARK  9 active torsions:
REMARK  status: ('A' for Active; 'I' for Inactive)
REMARK    1  A    between atoms: O_3  and  C_15
REMARK    2  A    between atoms: O_4  and  C_20
REMARK    3  A    between atoms: O_5  and  C_24
REMARK    4  A    between atoms: C_10  and  C_18
REMARK    5  A    between atoms: C_12  and  C_20
REMARK    6  A    between atoms: C_12  and  C_21
REMARK    7  A    between atoms: C_13  and  C_23
REMARK    8  A    between atoms: C_23  and  C_24
REMARK    9  A    between atoms: C_26  and  C_27
REMARK                            x       y       z     vdW  Elec       q    Type
REMARK                         _______ _______ _______ _____ _____    ______ ____
ROOT
ATOM      1  S   UNL     1      -7.396 -11.386  12.496  0.00  0.00    -0.057 S 
ATOM      7  O   UNL     1      -3.334 -11.466  10.226  0.00  0.00    -0.270 OA
ATOM      8  N   UNL     1      -4.826 -11.423  12.780  0.00  0.00    -0.229 NA
ATOM      9  N   UNL     1      -5.672 -11.426  10.523  0.00  0.00    -0.261 N 
ATOM     10  C   UNL     1      -5.367 -10.985  16.572  0.00  0.00    -0.019 C 
ATOM     11  C   UNL     1      -6.751 -11.772  16.545  0.00  0.00    +0.011 C 
ATOM     12  C   UNL     1      -7.570 -11.827  17.892  0.00  0.00    +0.021 C 
ATOM     13  C   UNL     1      -4.527 -11.421  15.284  0.00  0.00    +0.055 C 
ATOM     14  C   UNL     1      -4.567 -11.392  17.837  0.00  0.00    +0.010 C 
ATOM     15  C   UNL     1      -6.612 -12.201  19.058  0.00  0.00    +0.123 C 
ATOM     16  C   UNL     1      -7.606 -11.376  15.307  0.00  0.00    +0.049 C 
ATOM     17  C   UNL     1      -5.373 -11.315  19.127  0.00  0.00    +0.032 C 
ATOM     18  C   UNL     1      -5.549  -9.448  16.571  0.00  0.00    +0.012 C 
ATOM     19  C   UNL     1      -5.383 -11.395  14.045  0.00  0.00    +0.058 A 
ATOM     21  C   UNL     1      -8.638 -12.953  17.791  0.00  0.00    +0.016 C 
ATOM     22  C   UNL     1      -6.763 -11.393  14.077  0.00  0.00    +0.015 A 
ATOM     25  C   UNL     1      -5.791 -11.414  11.886  0.00  0.00    +0.165 A 
ATOM     26  C   UNL     1      -4.477 -11.451   9.785  0.00  0.00    +0.250 C 
ATOM     35  H   UNL     1      -6.564 -11.463  10.040  0.00  0.00    +0.157 HD
ENDROOT
BRANCH  26  27
ATOM      2  F   UNL     1      -5.091 -11.597   4.237  0.00  0.00    -0.205 F 
ATOM     27  C   UNL     1      -4.642 -11.491   8.307  0.00  0.00    +0.037 A 
ATOM     28  C   UNL     1      -5.299 -10.452   7.683  0.00  0.00    +0.016 A 
ATOM     29  C   UNL     1      -4.131 -12.565   7.609  0.00  0.00    +0.016 A 
ATOM     30  C   UNL     1      -5.453 -10.487   6.298  0.00  0.00    +0.039 A 
ATOM     31  C   UNL     1      -4.284 -12.601   6.223  0.00  0.00    +0.039 A 
ATOM     32  C   UNL     1      -4.945 -11.563   5.568  0.00  0.00    +0.123 A 
ENDBRANCH  26  27
BRANCH  15   3
ATOM      3  O   UNL     1      -7.294 -12.133  20.310  0.00  0.00    -0.391 OA
ATOM     33  H   UNL     1      -8.247 -12.215  20.139  0.00  0.00    +0.210 HD
ENDBRANCH  15   3
BRANCH  12  20
ATOM     20  C   UNL     1      -8.356 -10.537  18.217  0.00  0.00    +0.165 C 
BRANCH  20   4
ATOM      4  O   UNL     1      -9.403 -10.880  19.097  0.00  0.00    -0.394 OA
ATOM     34  H   UNL     1      -9.127 -11.662  19.604  0.00  0.00    +0.209 HD
ENDBRANCH  20   4
ENDBRANCH  12  20
BRANCH  13  23
ATOM     23  C   UNL     1      -3.221 -10.642  15.082  0.00  0.00    +0.130 C 
BRANCH  23  24
ATOM      6  O   UNL     1      -1.762 -12.479  14.419  0.00  0.00    -0.251 OA
ATOM     24  C   UNL     1      -2.024 -11.547  15.163  0.00  0.00    +0.305 C 
BRANCH  24   5
ATOM      5  O   UNL     1      -1.247 -11.176  16.212  0.00  0.00    -0.481 OA
ATOM     36  H   UNL     1      -0.301 -11.110  15.961  0.00  0.00    +0.295 HD
ENDBRANCH  24   5
ENDBRANCH  23  24
ENDBRANCH  13  23
TORSDOF 7
ENDMDL
MODEL 2
REMARK VINA RESULT:      -6.4      6.883     10.366
REMARK  Name = 11883065
REMARK  9 active torsions:
REMARK  status: ('A' for Active; 'I' for Inactive)
REMARK    1  A    between atoms: O_3  and  C_15
REMARK    2  A    between atoms: O_4  and  C_20
REMARK    3  A    between atoms: O_5  and  C_24
REMARK    4  A    between atoms: C_10  and  C_18
REMARK    5  A    between atoms: C_12  and  C_20
REMARK    6  A    between atoms: C_12  and  C_21
REMARK    7  A    between atoms: C_13  and  C_23
REMARK    8  A    between atoms: C_23  and  C_24
REMARK    9  A    between atoms: C_26  and  C_27
REMARK                            x       y       z     vdW  Elec       q    Type
REMARK                         _______ _______ _______ _____ _____    ______ ____
ROOT
ATOM      1  S   UNL     1     -11.654 -10.590  18.768  0.00  0.00    -0.057 S 
ATOM      7  O   UNL     1      -7.730  -8.863  16.953  0.00  0.00    -0.270 OA
ATOM      8  N   UNL     1     -10.682  -8.828  17.142  0.00  0.00    -0.229 NA
ATOM      9  N   UNL     1      -9.101 -10.251  18.276  0.00  0.00    -0.261 N 
ATOM     10  C   UNL     1     -14.298  -7.966  16.119  0.00  0.00    -0.019 C 
ATOM     11  C   UNL     1     -14.875  -8.327  17.558  0.00  0.00    +0.011 C 
ATOM     12  C   UNL     1     -16.442  -8.276  17.735  0.00  0.00    +0.021 C 
ATOM     13  C   UNL     1     -12.739  -7.653  16.277  0.00  0.00    +0.055 C 
ATOM     14  C   UNL     1     -15.001  -6.690  15.587  0.00  0.00    +0.010 C 
ATOM     15  C   UNL     1     -16.985  -6.962  17.109  0.00  0.00    +0.123 C 
ATOM     16  C   UNL     1     -14.221  -9.621  18.125  0.00  0.00    +0.049 C 
ATOM     17  C   UNL     1     -16.520  -6.742  15.673  0.00  0.00    +0.032 C 
ATOM     18  C   UNL     1     -14.492  -9.107  15.090  0.00  0.00    +0.012 C 
ATOM     19  C   UNL     1     -12.058  -8.700  17.119  0.00  0.00    +0.058 A 
ATOM     21  C   UNL     1     -16.780  -8.241  19.253  0.00  0.00    +0.016 C 
ATOM     22  C   UNL     1     -12.741  -9.561  17.955  0.00  0.00    +0.015 A 
ATOM     25  C   UNL     1     -10.356  -9.797  17.970  0.00  0.00    +0.165 A 
ATOM     26  C   UNL     1      -7.885  -9.770  17.762  0.00  0.00    +0.250 C 
ATOM     35  H   UNL     1      -9.098 -10.981  18.981  0.00  0.00    +0.157 HD
ENDROOT
BRANCH  26  27
ATOM      2  F   UNL     1      -3.298 -12.246  19.762  0.00  0.00    -0.205 F 
ATOM     27  C   UNL     1      -6.664 -10.432  18.295  0.00  0.00    +0.037 A 
ATOM     28  C   UNL     1      -5.565 -10.559  17.473  0.00  0.00    +0.016 A 
ATOM     29  C   UNL     1      -6.670 -10.895  19.594  0.00  0.00    +0.016 A 
ATOM     30  C   UNL     1      -4.419 -11.177  17.971  0.00  0.00    +0.039 A 
ATOM     31  C   UNL     1      -5.524 -11.513  20.093  0.00  0.00    +0.039 A 
ATOM     32  C   UNL     1      -4.399 -11.654  19.282  0.00  0.00    +0.123 A 
ENDBRANCH  26  27
BRANCH  15   3
ATOM      3  O   UNL     1     -18.412  -6.944  17.136  0.00  0.00    -0.391 OA
ATOM     33  H   UNL     1     -18.725  -6.573  16.295  0.00  0.00    +0.210 HD
ENDBRANCH  15   3
BRANCH  12  20
ATOM     20  C   UNL     1     -17.190  -9.506  17.172  0.00  0.00    +0.165 C 
BRANCH  20   4
ATOM      4  O   UNL     1     -18.300  -9.754  18.005  0.00  0.00    -0.394 OA
ATOM     34  H   UNL     1     -19.088  -9.381  17.576  0.00  0.00    +0.209 HD
ENDBRANCH  20   4
ENDBRANCH  12  20
BRANCH  13  23
ATOM     23  C   UNL     1     -11.997  -7.426  14.953  0.00  0.00    +0.130 C 
BRANCH  23  24
ATOM      6  O   UNL     1     -11.907  -5.144  14.099  0.00  0.00    -0.251 OA
ATOM     24  C   UNL     1     -11.488  -6.017  14.844  0.00  0.00    +0.305 C 
BRANCH  24   5
ATOM      5  O   UNL     1     -10.461  -5.838  15.714  0.00  0.00    -0.481 OA
ATOM     36  H   UNL     1     -10.496  -4.957  16.144  0.00  0.00    +0.295 HD
ENDBRANCH  24   5
ENDBRANCH  23  24
ENDBRANCH  13  23
TORSDOF 7
ENDMDL
MODEL 3
REMARK VINA RESULT:      -6.4     30.669     32.346
REMARK  Name = 11883065
REMARK  9 active torsions:
REMARK  status: ('A' for Active; 'I' for Inactive)
REMARK    1  A    between atoms: O_3  and  C_15
REMARK    2  A    between atoms: O_4  and  C_20
REMARK    3  A    between atoms: O_5  and  C_24
REMARK    4  A    between atoms: C_10  and  C_18
REMARK    5  A    between atoms: C_12  and  C_20
REMARK    6  A    between atoms: C_12  and  C_21
REMARK    7  A    between atoms: C_13  and  C_23
REMARK    8  A    between atoms: C_23  and  C_24
REMARK    9  A    between atoms: C_26  and  C_27
REMARK                            x       y       z     vdW  Elec       q    Type
REMARK                         _______ _______ _______ _____ _____    ______ ____
ROOT
ATOM      1  S   UNL     1      -4.975  10.955  36.262  0.00  0.00    -0.057 S 
ATOM      7  O   UNL     1      -8.817  11.016  33.636  0.00  0.00    -0.270 OA
ATOM      8  N   UNL     1      -6.011  11.848  34.067  0.00  0.00    -0.229 NA
ATOM      9  N   UNL     1      -7.425  10.482  35.462  0.00  0.00    -0.261 N 
ATOM     10  C   UNL     1      -2.790  13.897  33.531  0.00  0.00    -0.019 C 
ATOM     11  C   UNL     1      -1.886  12.820  34.276  0.00  0.00    +0.011 C 
ATOM     12  C   UNL     1      -0.367  13.185  34.491  0.00  0.00    +0.021 C 
ATOM     13  C   UNL     1      -4.124  13.167  33.039  0.00  0.00    +0.055 C 
ATOM     14  C   UNL     1      -2.036  14.429  32.284  0.00  0.00    +0.010 C 
ATOM     15  C   UNL     1       0.218  13.743  33.163  0.00  0.00    +0.123 C 
ATOM     16  C   UNL     1      -2.587  12.276  35.555  0.00  0.00    +0.049 C 
ATOM     17  C   UNL     1      -0.610  14.878  32.571  0.00  0.00    +0.032 C 
ATOM     18  C   UNL     1      -3.164  15.097  34.435  0.00  0.00    +0.012 C 
ATOM     19  C   UNL     1      -4.714  12.320  34.136  0.00  0.00    +0.058 A 
ATOM     21  C   UNL     1       0.422  11.890  34.837  0.00  0.00    +0.016 C 
ATOM     22  C   UNL     1      -4.002  11.917  35.247  0.00  0.00    +0.015 A 
ATOM     25  C   UNL     1      -6.260  11.123  35.137  0.00  0.00    +0.165 A 
ATOM     26  C   UNL     1      -8.612  10.464  34.711  0.00  0.00    +0.250 C 
ATOM     35  H   UNL     1      -7.363   9.943  36.320  0.00  0.00    +0.157 HD
ENDROOT
BRANCH  26  27
ATOM      2  F   UNL     1     -12.768   7.431  36.882  0.00  0.00    -0.205 F 
ATOM     27  C   UNL     1      -9.720   9.658  35.290  0.00  0.00    +0.037 A 
ATOM     28  C   UNL     1     -10.936   9.636  34.642  0.00  0.00    +0.016 A 
ATOM     29  C   UNL     1      -9.493   8.957  36.456  0.00  0.00    +0.016 A 
ATOM     30  C   UNL     1     -11.974   8.879  35.183  0.00  0.00    +0.039 A 
ATOM     31  C   UNL     1     -10.531   8.199  36.998  0.00  0.00    +0.039 A 
ATOM     32  C   UNL     1     -11.772   8.160  36.362  0.00  0.00    +0.123 A 
ENDBRANCH  26  27
BRANCH  15   3
ATOM      3  O   UNL     1       1.555  14.204  33.358  0.00  0.00    -0.391 OA
ATOM     33  H   UNL     1       1.569  15.162  33.198  0.00  0.00    +0.210 HD
ENDBRANCH  15   3
BRANCH  12  20
ATOM     20  C   UNL     1      -0.101  14.158  35.662  0.00  0.00    +0.165 C 
BRANCH  20   4
ATOM      4  O   UNL     1       1.146  13.822  36.228  0.00  0.00    -0.394 OA
ATOM     34  H   UNL     1       1.665  13.350  35.555  0.00  0.00    +0.209 HD
ENDBRANCH  20   4
ENDBRANCH  12  20
BRANCH  13  23
ATOM     23  C   UNL     1      -5.174  14.102  32.424  0.00  0.00    +0.130 C 
BRANCH  23  24
ATOM      6  O   UNL     1      -5.403  14.382  30.013  0.00  0.00    -0.251 OA
ATOM     24  C   UNL     1      -5.513  13.697  31.019  0.00  0.00    +0.305 C 
BRANCH  24   5
ATOM      5  O   UNL     1      -5.979  12.422  31.015  0.00  0.00    -0.481 OA
ATOM     36  H   UNL     1      -6.773  12.324  30.447  0.00  0.00    +0.295 HD
ENDBRANCH  24   5
ENDBRANCH  23  24
ENDBRANCH  13  23
TORSDOF 7
ENDMDL
MODEL 4
REMARK VINA RESULT:      -6.3     20.723     23.590
REMARK  Name = 11883065
REMARK  9 active torsions:
REMARK  status: ('A' for Active; 'I' for Inactive)
REMARK    1  A    between atoms: O_3  and  C_15
REMARK    2  A    between atoms: O_4  and  C_20
REMARK    3  A    between atoms: O_5  and  C_24
REMARK    4  A    between atoms: C_10  and  C_18
REMARK    5  A    between atoms: C_12  and  C_20
REMARK    6  A    between atoms: C_12  and  C_21
REMARK    7  A    between atoms: C_13  and  C_23
REMARK    8  A    between atoms: C_23  and  C_24
REMARK    9  A    between atoms: C_26  and  C_27
REMARK                            x       y       z     vdW  Elec       q    Type
REMARK                         _______ _______ _______ _____ _____    ______ ____
ROOT
ATOM      1  S   UNL     1     -12.777   5.138  22.635  0.00  0.00    -0.057 S 
ATOM      7  O   UNL     1     -17.109   4.935  24.328  0.00  0.00    -0.270 OA
ATOM      8  N   UNL     1     -15.150   6.157  22.478  0.00  0.00    -0.229 NA
ATOM      9  N   UNL     1     -14.832   4.380  24.076  0.00  0.00    -0.261 N 
ATOM     10  C   UNL     1     -13.722   8.779  20.039  0.00  0.00    -0.019 C 
ATOM     11  C   UNL     1     -12.627   7.772  19.473  0.00  0.00    +0.011 C 
ATOM     12  C   UNL     1     -11.584   8.354  18.442  0.00  0.00    +0.021 C 
ATOM     13  C   UNL     1     -14.899   7.914  20.687  0.00  0.00    +0.055 C 
ATOM     14  C   UNL     1     -14.313   9.609  18.869  0.00  0.00    +0.010 C 
ATOM     15  C   UNL     1     -12.336   9.192  17.371  0.00  0.00    +0.123 C 
ATOM     16  C   UNL     1     -11.981   6.935  20.614  0.00  0.00    +0.049 C 
ATOM     17  C   UNL     1     -13.261  10.245  17.972  0.00  0.00    +0.032 C 
ATOM     18  C   UNL     1     -13.154   9.751  21.101  0.00  0.00    +0.012 C 
ATOM     19  C   UNL     1     -14.349   6.826  21.572  0.00  0.00    +0.058 A 
ATOM     21  C   UNL     1     -10.889   7.174  17.703  0.00  0.00    +0.016 C 
ATOM     22  C   UNL     1     -13.041   6.390  21.511  0.00  0.00    +0.015 A 
ATOM     25  C   UNL     1     -14.427   5.250  23.100  0.00  0.00    +0.165 A 
ATOM     26  C   UNL     1     -16.121   4.273  24.623  0.00  0.00    +0.250 C 
ATOM     35  H   UNL     1     -14.102   3.739  24.372  0.00  0.00    +0.157 HD
ENDROOT
BRANCH  26  27
ATOM      2  F   UNL     1     -16.757   0.299  28.494  0.00  0.00    -0.205 F 
ATOM     27  C   UNL     1     -16.288   3.214  25.655  0.00  0.00    +0.037 A 
ATOM     28  C   UNL     1     -16.112   3.543  26.981  0.00  0.00    +0.016 A 
ATOM     29  C   UNL     1     -16.617   1.937  25.249  0.00  0.00    +0.016 A 
ATOM     30  C   UNL     1     -16.271   2.551  27.948  0.00  0.00    +0.039 A 
ATOM     31  C   UNL     1     -16.776   0.945  26.216  0.00  0.00    +0.039 A 
ATOM     32  C   UNL     1     -16.603   1.251  27.565  0.00  0.00    +0.123 A 
ENDBRANCH  26  27
BRANCH  15   3
ATOM      3  O   UNL     1     -11.410   9.839  16.498  0.00  0.00    -0.391 OA
ATOM     33  H   UNL     1     -11.061   9.173  15.883  0.00  0.00    +0.210 HD
ENDBRANCH  15   3
BRANCH  12  20
ATOM     20  C   UNL     1     -10.441   9.173  19.082  0.00  0.00    +0.165 C 
BRANCH  20   4
ATOM      4  O   UNL     1      -9.376   9.221  18.159  0.00  0.00    -0.394 OA
ATOM     34  H   UNL     1      -9.306   8.350  17.734  0.00  0.00    +0.209 HD
ENDBRANCH  20   4
ENDBRANCH  12  20
BRANCH  13  23
ATOM     23  C   UNL     1     -15.973   8.738  21.410  0.00  0.00    +0.130 C 
BRANCH  23  24
ATOM      6  O   UNL     1     -17.966   9.260  20.106  0.00  0.00    -0.251 OA
ATOM     24  C   UNL     1     -17.335   8.499  20.825  0.00  0.00    +0.305 C 
BRANCH  24   5
ATOM      5  O   UNL     1     -17.789   7.281  21.216  0.00  0.00    -0.481 OA
ATOM     36  H   UNL     1     -18.659   7.343  21.666  0.00  0.00    +0.295 HD
ENDBRANCH  24   5
ENDBRANCH  23  24
ENDBRANCH  13  23
TORSDOF 7
ENDMDL
MODEL 5
REMARK VINA RESULT:      -6.3     25.969     27.642
REMARK  Name = 11883065
REMARK  9 active torsions:
REMARK  status: ('A' for Active; 'I' for Inactive)
REMARK    1  A    between atoms: O_3  and  C_15
REMARK    2  A    between atoms: O_4  and  C_20
REMARK    3  A    between atoms: O_5  and  C_24
REMARK    4  A    between atoms: C_10  and  C_18
REMARK    5  A    between atoms: C_12  and  C_20
REMARK    6  A    between atoms: C_12  and  C_21
REMARK    7  A    between atoms: C_13  and  C_23
REMARK    8  A    between atoms: C_23  and  C_24
REMARK    9  A    between atoms: C_26  and  C_27
REMARK                            x       y       z     vdW  Elec       q    Type
REMARK                         _______ _______ _______ _____ _____    ______ ____
ROOT
ATOM      1  S   UNL     1      19.612  -5.941  20.286  0.00  0.00    -0.057 S 
ATOM      7  O   UNL     1      21.775  -9.857  21.570  0.00  0.00    -0.270 OA
ATOM      8  N   UNL     1      20.399  -7.346  22.310  0.00  0.00    -0.229 NA
ATOM      9  N   UNL     1      20.874  -8.233  20.120  0.00  0.00    -0.261 N 
ATOM     10  C   UNL     1      19.277  -4.449  24.593  0.00  0.00    -0.019 C 
ATOM     11  C   UNL     1      18.110  -4.014  23.602  0.00  0.00    +0.011 C 
ATOM     12  C   UNL     1      17.305  -2.709  23.971  0.00  0.00    +0.021 C 
ATOM     13  C   UNL     1      19.644  -5.973  24.287  0.00  0.00    +0.055 C 
ATOM     14  C   UNL     1      18.773  -4.352  26.057  0.00  0.00    +0.010 C 
ATOM     15  C   UNL     1      16.920  -2.754  25.476  0.00  0.00    +0.123 C 
ATOM     16  C   UNL     1      18.576  -4.065  22.118  0.00  0.00    +0.049 C 
ATOM     17  C   UNL     1      18.108  -3.025  26.393  0.00  0.00    +0.032 C 
ATOM     18  C   UNL     1      20.547  -3.575  24.446  0.00  0.00    +0.012 C 
ATOM     19  C   UNL     1      19.788  -6.209  22.806  0.00  0.00    +0.058 A 
ATOM     21  C   UNL     1      15.982  -2.681  23.154  0.00  0.00    +0.016 C 
ATOM     22  C   UNL     1      19.286  -5.349  21.850  0.00  0.00    +0.015 A 
ATOM     25  C   UNL     1      20.371  -7.308  20.996  0.00  0.00    +0.165 A 
ATOM     26  C   UNL     1      21.533  -9.429  20.448  0.00  0.00    +0.250 C 
ATOM     35  H   UNL     1      20.690  -8.007  19.147  0.00  0.00    +0.157 HD
ENDROOT
BRANCH  26  27
ATOM      2  F   UNL     1      23.096 -12.559  16.096  0.00  0.00    -0.205 F 
ATOM     27  C   UNL     1      21.950 -10.264  19.289  0.00  0.00    +0.037 A 
ATOM     28  C   UNL     1      21.042 -11.147  18.745  0.00  0.00    +0.016 A 
ATOM     29  C   UNL     1      23.231 -10.127  18.797  0.00  0.00    +0.016 A 
ATOM     30  C   UNL     1      21.431 -11.929  17.658  0.00  0.00    +0.039 A 
ATOM     31  C   UNL     1      23.621 -10.908  17.710  0.00  0.00    +0.039 A 
ATOM     32  C   UNL     1      22.721 -11.810  17.141  0.00  0.00    +0.123 A 
ENDBRANCH  26  27
BRANCH  15   3
ATOM      3  O   UNL     1      16.304  -1.529  25.873  0.00  0.00    -0.391 OA
ATOM     33  H   UNL     1      16.909  -1.071  26.480  0.00  0.00    +0.210 HD
ENDBRANCH  15   3
BRANCH  12  20
ATOM     20  C   UNL     1      18.033  -1.390  23.627  0.00  0.00    +0.165 C 
BRANCH  20   4
ATOM      4  O   UNL     1      17.482  -0.894  22.428  0.00  0.00    -0.394 OA
ATOM     34  H   UNL     1      17.293   0.052  22.551  0.00  0.00    +0.209 HD
ENDBRANCH  20   4
ENDBRANCH  12  20
BRANCH  13  23
ATOM     23  C   UNL     1      20.855  -6.507  25.062  0.00  0.00    +0.130 C 
BRANCH  23  24
ATOM      6  O   UNL     1      20.180  -7.775  27.032  0.00  0.00    -0.251 OA
ATOM     24  C   UNL     1      20.504  -7.733  25.854  0.00  0.00    +0.305 C 
BRANCH  24   5
ATOM      5  O   UNL     1      20.599  -8.829  25.059  0.00  0.00    -0.481 OA
ATOM     36  H   UNL     1      21.019  -8.620  24.197  0.00  0.00    +0.295 HD
ENDBRANCH  24   5
ENDBRANCH  23  24
ENDBRANCH  13  23
TORSDOF 7
ENDMDL
MODEL 6
REMARK VINA RESULT:      -6.2      4.748      9.491
REMARK  Name = 11883065
REMARK  9 active torsions:
REMARK  status: ('A' for Active; 'I' for Inactive)
REMARK    1  A    between atoms: O_3  and  C_15
REMARK    2  A    between atoms: O_4  and  C_20
REMARK    3  A    between atoms: O_5  and  C_24
REMARK    4  A    between atoms: C_10  and  C_18
REMARK    5  A    between atoms: C_12  and  C_20
REMARK    6  A    between atoms: C_12  and  C_21
REMARK    7  A    between atoms: C_13  and  C_23
REMARK    8  A    between atoms: C_23  and  C_24
REMARK    9  A    between atoms: C_26  and  C_27
REMARK                            x       y       z     vdW  Elec       q    Type
REMARK                         _______ _______ _______ _____ _____    ______ ____
ROOT
ATOM      1  S   UNL     1      -8.948 -11.179  15.579  0.00  0.00    -0.057 S 
ATOM      7  O   UNL     1      -8.964 -11.484  20.223  0.00  0.00    -0.270 OA
ATOM      8  N   UNL     1      -7.465 -11.498  17.673  0.00  0.00    -0.229 NA
ATOM      9  N   UNL     1      -9.832 -11.237  18.046  0.00  0.00    -0.261 N 
ATOM     10  C   UNL     1      -4.481 -12.107  15.309  0.00  0.00    -0.019 C 
ATOM     11  C   UNL     1      -5.073 -11.147  14.186  0.00  0.00    +0.011 C 
ATOM     12  C   UNL     1      -4.287 -11.073  12.820  0.00  0.00    +0.021 C 
ATOM     13  C   UNL     1      -5.145 -11.703  16.705  0.00  0.00    +0.055 C 
ATOM     14  C   UNL     1      -2.949 -11.893  15.417  0.00  0.00    +0.010 C 
ATOM     15  C   UNL     1      -2.770 -10.904  13.110  0.00  0.00    +0.123 C 
ATOM     16  C   UNL     1      -6.607 -11.346  14.018  0.00  0.00    +0.049 C 
ATOM     17  C   UNL     1      -2.223 -11.947  14.079  0.00  0.00    +0.032 C 
ATOM     18  C   UNL     1      -4.755 -13.605  15.024  0.00  0.00    +0.012 C 
ATOM     19  C   UNL     1      -6.636 -11.535  16.568  0.00  0.00    +0.058 A 
ATOM     21  C   UNL     1      -4.752  -9.813  12.035  0.00  0.00    +0.016 C 
ATOM     22  C   UNL     1      -7.269 -11.358  15.354  0.00  0.00    +0.015 A 
ATOM     25  C   UNL     1      -8.706 -11.322  17.273  0.00  0.00    +0.165 A 
ATOM     26  C   UNL     1      -9.898 -11.320  19.446  0.00  0.00    +0.250 C 
ATOM     35  H   UNL     1     -10.674 -11.052  17.511  0.00  0.00    +0.157 HD
ENDROOT
BRANCH  26  27
ATOM      2  F   UNL     1     -15.002 -10.732  21.633  0.00  0.00    -0.205 F 
ATOM     27  C   UNL     1     -11.257 -11.163  20.030  0.00  0.00    +0.037 A 
ATOM     28  C   UNL     1     -11.863  -9.926  19.981  0.00  0.00    +0.016 A 
ATOM     29  C   UNL     1     -11.866 -12.261  20.601  0.00  0.00    +0.016 A 
ATOM     30  C   UNL     1     -13.138  -9.779  20.526  0.00  0.00    +0.039 A 
ATOM     31  C   UNL     1     -13.141 -12.114  21.147  0.00  0.00    +0.039 A 
ATOM     32  C   UNL     1     -13.777 -10.873  21.110  0.00  0.00    +0.123 A 
ENDBRANCH  26  27
BRANCH  15   3
ATOM      3  O   UNL     1      -2.017 -10.964  11.899  0.00  0.00    -0.391 OA
ATOM     33  H   UNL     1      -1.220 -11.494  12.066  0.00  0.00    +0.210 HD
ENDBRANCH  15   3
BRANCH  12  20
ATOM     20  C   UNL     1      -4.538 -12.267  11.872  0.00  0.00    +0.165 C 
BRANCH  20   4
ATOM      4  O   UNL     1      -4.467 -11.789  10.548  0.00  0.00    -0.394 OA
ATOM     34  H   UNL     1      -3.874 -12.375  10.047  0.00  0.00    +0.209 HD
ENDBRANCH  20   4
ENDBRANCH  12  20
BRANCH  13  23
ATOM     23  C   UNL     1      -4.789 -12.631  17.874  0.00  0.00    +0.130 C 
BRANCH  23  24
ATOM      6  O   UNL     1      -3.348 -12.171  19.785  0.00  0.00    -0.251 OA
ATOM     24  C   UNL     1      -4.273 -11.856  19.052  0.00  0.00    +0.305 C 
BRANCH  24   5
ATOM      5  O   UNL     1      -4.999 -10.718  19.200  0.00  0.00    -0.481 OA
ATOM     36  H   UNL     1      -5.905 -10.903  19.527  0.00  0.00    +0.295 HD
ENDBRANCH  24   5
ENDBRANCH  23  24
ENDBRANCH  13  23
TORSDOF 7
ENDMDL
MODEL 7
REMARK VINA RESULT:      -6.2      2.806      4.493
REMARK  Name = 11883065
REMARK  9 active torsions:
REMARK  status: ('A' for Active; 'I' for Inactive)
REMARK    1  A    between atoms: O_3  and  C_15
REMARK    2  A    between atoms: O_4  and  C_20
REMARK    3  A    between atoms: O_5  and  C_24
REMARK    4  A    between atoms: C_10  and  C_18
REMARK    5  A    between atoms: C_12  and  C_20
REMARK    6  A    between atoms: C_12  and  C_21
REMARK    7  A    between atoms: C_13  and  C_23
REMARK    8  A    between atoms: C_23  and  C_24
REMARK    9  A    between atoms: C_26  and  C_27
REMARK                            x       y       z     vdW  Elec       q    Type
REMARK                         _______ _______ _______ _____ _____    ______ ____
ROOT
ATOM      1  S   UNL     1      -5.611 -10.929  12.463  0.00  0.00    -0.057 S 
ATOM      7  O   UNL     1      -8.857  -8.422  10.262  0.00  0.00    -0.270 OA
ATOM      8  N   UNL     1      -7.800  -9.586  12.768  0.00  0.00    -0.229 NA
ATOM      9  N   UNL     1      -6.911  -9.724  10.532  0.00  0.00    -0.261 N 
ATOM     10  C   UNL     1      -7.849 -10.748  16.444  0.00  0.00    -0.019 C 
ATOM     11  C   UNL     1      -6.261 -10.811  16.528  0.00  0.00    +0.011 C 
ATOM     12  C   UNL     1      -5.636 -11.376  17.861  0.00  0.00    +0.021 C 
ATOM     13  C   UNL     1      -8.242  -9.768  15.245  0.00  0.00    +0.055 C 
ATOM     14  C   UNL     1      -8.413 -10.157  17.762  0.00  0.00    +0.010 C 
ATOM     15  C   UNL     1      -6.343 -10.716  19.078  0.00  0.00    +0.123 C 
ATOM     16  C   UNL     1      -5.647 -11.427  15.237  0.00  0.00    +0.049 C 
ATOM     17  C   UNL     1      -7.863 -10.818  19.019  0.00  0.00    +0.032 C 
ATOM     18  C   UNL     1      -8.494 -12.136  16.206  0.00  0.00    +0.012 C 
ATOM     19  C   UNL     1      -7.435 -10.072  14.009  0.00  0.00    +0.058 A 
ATOM     21  C   UNL     1      -4.134 -10.978  17.926  0.00  0.00    +0.016 C 
ATOM     22  C   UNL     1      -6.264 -10.803  14.031  0.00  0.00    +0.015 A 
ATOM     25  C   UNL     1      -6.917  -9.980  11.876  0.00  0.00    +0.165 A 
ATOM     26  C   UNL     1      -7.859  -8.976   9.815  0.00  0.00    +0.250 C 
ATOM     35  H   UNL     1      -6.097 -10.097  10.054  0.00  0.00    +0.157 HD
ENDROOT
BRANCH  26  27
ATOM      2  F   UNL     1      -6.836  -8.427   4.354  0.00  0.00    -0.205 F 
ATOM     27  C   UNL     1      -7.588  -8.831   8.360  0.00  0.00    +0.037 A 
ATOM     28  C   UNL     1      -8.247  -7.846   7.656  0.00  0.00    +0.016 A 
ATOM     29  C   UNL     1      -6.685  -9.685   7.763  0.00  0.00    +0.016 A 
ATOM     30  C   UNL     1      -7.992  -7.708   6.292  0.00  0.00    +0.039 A 
ATOM     31  C   UNL     1      -6.429  -9.548   6.399  0.00  0.00    +0.039 A 
ATOM     32  C   UNL     1      -7.083  -8.560   5.663  0.00  0.00    +0.123 A 
ENDBRANCH  26  27
BRANCH  15   3
ATOM      3  O   UNL     1      -5.891 -11.300  20.299  0.00  0.00    -0.391 OA
ATOM     33  H   UNL     1      -4.920 -11.305  20.289  0.00  0.00    +0.210 HD
ENDBRANCH  15   3
BRANCH  12  20
ATOM     20  C   UNL     1      -5.662 -12.916  17.978  0.00  0.00    +0.165 C 
BRANCH  20   4
ATOM      4  O   UNL     1      -4.458 -13.323  18.589  0.00  0.00    -0.394 OA
ATOM     34  H   UNL     1      -3.869 -13.665  17.895  0.00  0.00    +0.209 HD
ENDBRANCH  20   4
ENDBRANCH  12  20
BRANCH  13  23
ATOM     23  C   UNL     1      -9.743  -9.708  14.934  0.00  0.00    +0.130 C 
BRANCH  23  24
ATOM      6  O   UNL     1     -11.366  -7.907  14.679  0.00  0.00    -0.251 OA
ATOM     24  C   UNL     1     -10.271  -8.307  15.045  0.00  0.00    +0.305 C 
BRANCH  24   5
ATOM      5  O   UNL     1      -9.334  -7.514  15.625  0.00  0.00    -0.481 OA
ATOM     36  H   UNL     1      -9.698  -6.636  15.869  0.00  0.00    +0.295 HD
ENDBRANCH  24   5
ENDBRANCH  23  24
ENDBRANCH  13  23
TORSDOF 7
ENDMDL
MODEL 8
REMARK VINA RESULT:      -6.1      4.328      9.390
REMARK  Name = 11883065
REMARK  9 active torsions:
REMARK  status: ('A' for Active; 'I' for Inactive)
REMARK    1  A    between atoms: O_3  and  C_15
REMARK    2  A    between atoms: O_4  and  C_20
REMARK    3  A    between atoms: O_5  and  C_24
REMARK    4  A    between atoms: C_10  and  C_18
REMARK    5  A    between atoms: C_12  and  C_20
REMARK    6  A    between atoms: C_12  and  C_21
REMARK    7  A    between atoms: C_13  and  C_23
REMARK    8  A    between atoms: C_23  and  C_24
REMARK    9  A    between atoms: C_26  and  C_27
REMARK                            x       y       z     vdW  Elec       q    Type
REMARK                         _______ _______ _______ _____ _____    ______ ____
ROOT
ATOM      1  S   UNL     1      -8.333  -9.639  12.857  0.00  0.00    -0.057 S 
ATOM      7  O   UNL     1      -4.229 -10.724  14.766  0.00  0.00    -0.270 OA
ATOM      8  N   UNL     1      -5.827 -10.055  12.369  0.00  0.00    -0.229 NA
ATOM      9  N   UNL     1      -6.538 -10.261  14.663  0.00  0.00    -0.261 N 
ATOM     10  C   UNL     1      -6.641  -9.747   8.613  0.00  0.00    -0.019 C 
ATOM     11  C   UNL     1      -7.830  -8.722   8.874  0.00  0.00    +0.011 C 
ATOM     12  C   UNL     1      -8.688  -8.287   7.623  0.00  0.00    +0.021 C 
ATOM     13  C   UNL     1      -5.664  -9.701   9.877  0.00  0.00    +0.055 C 
ATOM     14  C   UNL     1      -5.840  -9.300   7.362  0.00  0.00    +0.010 C 
ATOM     15  C   UNL     1      -7.736  -7.919   6.452  0.00  0.00    +0.123 C 
ATOM     16  C   UNL     1      -8.684  -9.144  10.105  0.00  0.00    +0.049 C 
ATOM     17  C   UNL     1      -6.709  -9.005   6.147  0.00  0.00    +0.032 C 
ATOM     18  C   UNL     1      -7.133 -11.198   8.396  0.00  0.00    +0.012 C 
ATOM     19  C   UNL     1      -6.442  -9.765  11.166  0.00  0.00    +0.058 A 
ATOM     21  C   UNL     1      -9.497  -7.008   7.983  0.00  0.00    +0.016 C 
ATOM     22  C   UNL     1      -7.793  -9.493  11.248  0.00  0.00    +0.015 A 
ATOM     25  C   UNL     1      -6.727 -10.024  13.328  0.00  0.00    +0.165 A 
ATOM     26  C   UNL     1      -5.327 -10.590  15.294  0.00  0.00    +0.250 C 
ATOM     35  H   UNL     1      -7.378 -10.131  15.218  0.00  0.00    +0.157 HD
ENDROOT
BRANCH  26  27
ATOM      2  F   UNL     1      -5.616 -11.236  20.833  0.00  0.00    -0.205 F 
ATOM     27  C   UNL     1      -5.405 -10.764  16.770  0.00  0.00    +0.037 A 
ATOM     28  C   UNL     1      -4.389 -11.435  17.415  0.00  0.00    +0.016 A 
ATOM     29  C   UNL     1      -6.491 -10.246  17.444  0.00  0.00    +0.016 A 
ATOM     30  C   UNL     1      -4.460 -11.597  18.798  0.00  0.00    +0.039 A 
ATOM     31  C   UNL     1      -6.562 -10.407  18.827  0.00  0.00    +0.039 A 
ATOM     32  C   UNL     1      -5.548 -11.083  19.504  0.00  0.00    +0.123 A 
ENDBRANCH  26  27
BRANCH  15   3
ATOM      3  O   UNL     1      -8.481  -7.646   5.266  0.00  0.00    -0.391 OA
ATOM     33  H   UNL     1      -7.968  -7.022   4.725  0.00  0.00    +0.210 HD
ENDBRANCH  15   3
BRANCH  12  20
ATOM     20  C   UNL     1      -9.738  -9.329   7.174  0.00  0.00    +0.165 C 
BRANCH  20   4
ATOM      4  O   UNL     1     -10.854  -8.628   6.674  0.00  0.00    -0.394 OA
ATOM     34  H   UNL     1     -11.086  -9.007   5.809  0.00  0.00    +0.209 HD
ENDBRANCH  20   4
ENDBRANCH  12  20
BRANCH  13  23
ATOM     23  C   UNL     1      -4.536 -10.741   9.850  0.00  0.00    +0.130 C 
BRANCH  23  24
ATOM      6  O   UNL     1      -2.598  -9.315  10.242  0.00  0.00    -0.251 OA
ATOM     24  C   UNL     1      -3.316 -10.247  10.573  0.00  0.00    +0.305 C 
BRANCH  24   5
ATOM      5  O   UNL     1      -3.110 -11.002  11.682  0.00  0.00    -0.481 OA
ATOM     36  H   UNL     1      -2.375 -11.639  11.559  0.00  0.00    +0.295 HD
ENDBRANCH  24   5
ENDBRANCH  23  24
ENDBRANCH  13  23
TORSDOF 7
ENDMDL
MODEL 9
REMARK VINA RESULT:      -6.1      5.592      8.368
REMARK  Name = 11883065
REMARK  9 active torsions:
REMARK  status: ('A' for Active; 'I' for Inactive)
REMARK    1  A    between atoms: O_3  and  C_15
REMARK    2  A    between atoms: O_4  and  C_20
REMARK    3  A    between atoms: O_5  and  C_24
REMARK    4  A    between atoms: C_10  and  C_18
REMARK    5  A    between atoms: C_12  and  C_20
REMARK    6  A    between atoms: C_12  and  C_21
REMARK    7  A    between atoms: C_13  and  C_23
REMARK    8  A    between atoms: C_23  and  C_24
REMARK    9  A    between atoms: C_26  and  C_27
REMARK                            x       y       z     vdW  Elec       q    Type
REMARK                         _______ _______ _______ _____ _____    ______ ____
ROOT
ATOM      1  S   UNL     1      -9.220  -9.270  14.270  0.00  0.00    -0.057 S 
ATOM      7  O   UNL     1     -13.336  -8.327  16.227  0.00  0.00    -0.270 OA
ATOM      8  N   UNL     1     -10.598  -9.423  16.453  0.00  0.00    -0.229 NA
ATOM      9  N   UNL     1     -11.688  -8.431  14.545  0.00  0.00    -0.261 N 
ATOM     10  C   UNL     1      -7.691 -11.430  17.996  0.00  0.00    -0.019 C 
ATOM     11  C   UNL     1      -6.599 -10.673  17.119  0.00  0.00    +0.011 C 
ATOM     12  C   UNL     1      -5.109 -11.180  17.236  0.00  0.00    +0.021 C 
ATOM     13  C   UNL     1      -8.992 -10.506  18.068  0.00  0.00    +0.055 C 
ATOM     14  C   UNL     1      -7.150 -11.625  19.437  0.00  0.00    +0.010 C 
ATOM     15  C   UNL     1      -4.748 -11.366  18.736  0.00  0.00    +0.123 C 
ATOM     16  C   UNL     1      -7.082 -10.479  15.653  0.00  0.00    +0.049 C 
ATOM     17  C   UNL     1      -5.753 -12.227  19.495  0.00  0.00    +0.032 C 
ATOM     18  C   UNL     1      -8.074 -12.814  17.417  0.00  0.00    +0.012 C 
ATOM     19  C   UNL     1      -9.357  -9.976  16.706  0.00  0.00    +0.058 A 
ATOM     21  C   UNL     1      -4.157 -10.093  16.661  0.00  0.00    +0.016 C 
ATOM     22  C   UNL     1      -8.479  -9.957  15.641  0.00  0.00    +0.015 A 
ATOM     25  C   UNL     1     -10.642  -9.024  15.200  0.00  0.00    +0.165 A 
ATOM     26  C   UNL     1     -12.949  -8.122  15.082  0.00  0.00    +0.250 C 
ATOM     35  H   UNL     1     -11.468  -8.169  13.590  0.00  0.00    +0.157 HD
ENDROOT
BRANCH  26  27
ATOM      2  F   UNL     1     -16.481  -5.596  11.573  0.00  0.00    -0.205 F 
ATOM     27  C   UNL     1     -13.891  -7.449  14.149  0.00  0.00    +0.037 A 
ATOM     28  C   UNL     1     -13.966  -6.073  14.158  0.00  0.00    +0.016 A 
ATOM     29  C   UNL     1     -14.657  -8.224  13.303  0.00  0.00    +0.016 A 
ATOM     30  C   UNL     1     -14.848  -5.441  13.281  0.00  0.00    +0.039 A 
ATOM     31  C   UNL     1     -15.539  -7.593  12.426  0.00  0.00    +0.039 A 
ATOM     32  C   UNL     1     -15.635  -6.202  12.416  0.00  0.00    +0.123 A 
ENDBRANCH  26  27
BRANCH  15   3
ATOM      3  O   UNL     1      -3.452 -11.947  18.872  0.00  0.00    -0.391 OA
ATOM     33  H   UNL     1      -2.847 -11.261  19.200  0.00  0.00    +0.210 HD
ENDBRANCH  15   3
BRANCH  12  20
ATOM     20  C   UNL     1      -4.806 -12.464  16.432  0.00  0.00    +0.165 C 
BRANCH  20   4
ATOM      4  O   UNL     1      -3.472 -12.387  15.983  0.00  0.00    -0.394 OA
ATOM     34  H   UNL     1      -3.084 -11.565  16.329  0.00  0.00    +0.209 HD
ENDBRANCH  20   4
ENDBRANCH  12  20
BRANCH  13  23
ATOM     23  C   UNL     1     -10.198 -11.155  18.760  0.00  0.00    +0.130 C 
BRANCH  23  24
ATOM      6  O   UNL     1     -11.899  -9.681  19.697  0.00  0.00    -0.251 OA
ATOM     24  C   UNL     1     -10.812 -10.232  19.774  0.00  0.00    +0.305 C 
BRANCH  24   5
ATOM      5  O   UNL     1      -9.964 -10.085  20.824  0.00  0.00    -0.481 OA
ATOM     36  H   UNL     1      -9.768 -10.942  21.259  0.00  0.00    +0.295 HD
ENDBRANCH  24   5
ENDBRANCH  23  24
ENDBRANCH  13  23
TORSDOF 7
ENDMDL
MODEL 10
REMARK VINA RESULT:      -5.9     22.317     24.700
REMARK  Name = 11883065
REMARK  9 active torsions:
REMARK  status: ('A' for Active; 'I' for Inactive)
REMARK    1  A    between atoms: O_3  and  C_15
REMARK    2  A    between atoms: O_4  and  C_20
REMARK    3  A    between atoms: O_5  and  C_24
REMARK    4  A    between atoms: C_10  and  C_18
REMARK    5  A    between atoms: C_12  and  C_20
REMARK    6  A    between atoms: C_12  and  C_21
REMARK    7  A    between atoms: C_13  and  C_23
REMARK    8  A    between atoms: C_23  and  C_24
REMARK    9  A    between atoms: C_26  and  C_27
REMARK                            x       y       z     vdW  Elec       q    Type
REMARK                         _______ _______ _______ _____ _____    ______ ____
ROOT
ATOM      1  S   UNL     1     -10.581 -10.088  37.648  0.00  0.00    -0.057 S 
ATOM      7  O   UNL     1      -5.943 -10.385  37.906  0.00  0.00    -0.270 OA
ATOM      8  N   UNL     1      -8.509 -11.421  36.860  0.00  0.00    -0.229 NA
ATOM      9  N   UNL     1      -8.106  -9.544  38.318  0.00  0.00    -0.261 N 
ATOM     10  C   UNL     1     -10.916 -13.941  35.213  0.00  0.00    -0.019 C 
ATOM     11  C   UNL     1     -12.014 -12.826  34.925  0.00  0.00    +0.011 C 
ATOM     12  C   UNL     1     -13.387 -13.311  34.318  0.00  0.00    +0.021 C 
ATOM     13  C   UNL     1      -9.506 -13.212  35.391  0.00  0.00    +0.055 C 
ATOM     14  C   UNL     1     -10.821 -14.898  33.996  0.00  0.00    +0.010 C 
ATOM     15  C   UNL     1     -13.110 -14.292  33.146  0.00  0.00    +0.123 C 
ATOM     16  C   UNL     1     -12.170 -11.856  36.133  0.00  0.00    +0.049 C 
ATOM     17  C   UNL     1     -12.167 -15.430  33.523  0.00  0.00    +0.032 C 
ATOM     18  C   UNL     1     -11.227 -14.778  36.479  0.00  0.00    +0.012 C 
ATOM     19  C   UNL     1      -9.624 -12.020  36.305  0.00  0.00    +0.058 A 
ATOM     21  C   UNL     1     -14.143 -12.085  33.729  0.00  0.00    +0.016 C 
ATOM     22  C   UNL     1     -10.827 -11.416  36.610  0.00  0.00    +0.015 A 
ATOM     25  C   UNL     1      -8.893 -10.397  37.592  0.00  0.00    +0.165 A 
ATOM     26  C   UNL     1      -6.706  -9.584  38.432  0.00  0.00    +0.250 C 
ATOM     35  H   UNL     1      -8.628  -8.798  38.766  0.00  0.00    +0.157 HD
ENDROOT
BRANCH  26  27
ATOM      2  F   UNL     1      -4.444  -5.547  41.557  0.00  0.00    -0.205 F 
ATOM     27  C   UNL     1      -6.105  -8.509  39.266  0.00  0.00    +0.037 A 
ATOM     28  C   UNL     1      -5.095  -8.836  40.145  0.00  0.00    +0.016 A 
ATOM     29  C   UNL     1      -6.576  -7.220  39.130  0.00  0.00    +0.016 A 
ATOM     30  C   UNL     1      -4.530  -7.828  40.926  0.00  0.00    +0.039 A 
ATOM     31  C   UNL     1      -6.010  -6.211  39.910  0.00  0.00    +0.039 A 
ATOM     32  C   UNL     1      -4.988  -6.515  40.809  0.00  0.00    +0.123 A 
ENDBRANCH  26  27
BRANCH  15   3
ATOM      3  O   UNL     1     -14.330 -14.850  32.659  0.00  0.00    -0.391 OA
ATOM     33  H   UNL     1     -14.253 -15.818  32.691  0.00  0.00    +0.210 HD
ENDBRANCH  15   3
BRANCH  12  20
ATOM     20  C   UNL     1     -14.355 -13.939  35.347  0.00  0.00    +0.165 C 
BRANCH  20   4
ATOM      4  O   UNL     1     -15.669 -13.602  34.964  0.00  0.00    -0.394 OA
ATOM     34  H   UNL     1     -16.219 -14.400  35.040  0.00  0.00    +0.209 HD
ENDBRANCH  20   4
ENDBRANCH  12  20
BRANCH  13  23
ATOM     23  C   UNL     1      -8.359 -14.137  35.819  0.00  0.00    +0.130 C 
BRANCH  23  24
ATOM      6  O   UNL     1      -7.033 -14.946  33.940  0.00  0.00    -0.251 OA
ATOM     24  C   UNL     1      -7.239 -14.122  34.818  0.00  0.00    +0.305 C 
BRANCH  24   5
ATOM      5  O   UNL     1      -6.458 -13.032  35.028  0.00  0.00    -0.481 OA
ATOM     36  H   UNL     1      -6.850 -12.423  35.690  0.00  0.00    +0.295 HD
ENDBRANCH  24   5
ENDBRANCH  23  24
ENDBRANCH  13  23
TORSDOF 7
ENDMDL
