MODEL 1
REMARK VINA RESULT:      -6.2      0.000      0.000
REMARK  Name = 28962614
REMARK  16 active torsions:
REMARK  status: ('A' for Active; 'I' for Inactive)
REMARK    1  A    between atoms: O_1  and  C_9
REMARK    2  A    between atoms: N_4  and  C_13
REMARK    3  A    between atoms: N_5  and  C_24
REMARK    4  A    between atoms: N_5  and  C_25
REMARK    5  A    between atoms: C_6  and  C_16
REMARK    6  A    between atoms: C_8  and  C_18
REMARK    7  A    between atoms: C_11  and  C_17
REMARK    8  A    between atoms: C_17  and  C_19
REMARK    9  A    between atoms: C_17  and  C_20
REMARK   10  A    between atoms: C_21  and  C_22
REMARK   11  A    between atoms: C_22  and  C_23
REMARK   12  A    between atoms: C_23  and  C_26
REMARK   13  A    between atoms: C_23  and  C_27
REMARK   14  A    between atoms: C_23  and  C_28
REMARK   15  A    between atoms: C_24  and  C_29
REMARK   16  A    between atoms: C_25  and  C_30
REMARK                            x       y       z     vdW  Elec       q    Type
REMARK                         _______ _______ _______ _____ _____    ______ ____
ROOT
ATOM      6  C   UNL     1      20.096   7.827  21.843  0.00  0.00    -0.027 C 
ATOM      7  C   UNL     1      20.007   6.772  20.692  0.00  0.00    +0.028 C 
ATOM      8  C   UNL     1      18.546   6.211  20.560  0.00  0.00    +0.012 C 
ATOM      9  C   UNL     1      21.125   5.698  20.824  0.00  0.00    +0.122 C 
ATOM     10  C   UNL     1      21.515   8.441  21.873  0.00  0.00    +0.007 C 
ATOM     11  C   UNL     1      22.534   6.321  20.958  0.00  0.00    +0.029 C 
ATOM     12  C   UNL     1      19.095   8.971  21.556  0.00  0.00    +0.009 C 
ATOM     13  C   UNL     1      17.538   7.376  20.346  0.00  0.00    +0.076 C 
ATOM     14  C   UNL     1      22.611   7.397  22.042  0.00  0.00    +0.007 C 
ATOM     15  C   UNL     1      17.663   8.484  21.391  0.00  0.00    +0.023 C 
ATOM     16  C   UNL     1      19.789   7.218  23.234  0.00  0.00    +0.011 C 
ATOM     18  C   UNL     1      18.380   5.185  19.425  0.00  0.00    +0.010 C 
ENDROOT
BRANCH  13   4
ATOM      3  O   UNL     1      15.270   8.606  19.033  0.00  0.00    -0.276 OA
ATOM      4  N   UNL     1      16.169   6.906  20.336  0.00  0.00    -0.312 N 
ATOM     21  C   UNL     1      15.148   7.566  19.677  0.00  0.00    +0.214 C 
ATOM     31  H   UNL     1      15.955   6.071  20.872  0.00  0.00    +0.149 HD
BRANCH  21  22
ATOM     22  C   UNL     1      13.803   6.875  19.825  0.00  0.00    +0.102 C 
BRANCH  22  23
ATOM     23  C   UNL     1      12.801   7.603  20.752  0.00  0.00    -0.029 C 
ATOM     26  C   UNL     1      11.927   8.589  19.957  0.00  0.00    +0.011 C 
ATOM     27  C   UNL     1      11.882   6.542  21.388  0.00  0.00    +0.011 C 
ATOM     28  C   UNL     1      13.523   8.360  21.880  0.00  0.00    +0.011 C 
ENDBRANCH  22  23
ENDBRANCH  21  22
ENDBRANCH  13   4
BRANCH   9   1
ATOM      1  O   UNL     1      21.148   4.885  19.651  0.00  0.00    -0.391 OA
ATOM     32  H   UNL     1      20.558   4.126  19.797  0.00  0.00    +0.210 HD
ENDBRANCH   9   1
BRANCH  11  17
ATOM     17  C   UNL     1      23.605   5.254  21.219  0.00  0.00    +0.078 C 
ATOM     19  C   UNL     1      24.071   5.344  22.672  0.00  0.00    +0.017 C 
BRANCH  17  20
ATOM      2  O   UNL     1      25.206   6.590  20.040  0.00  0.00    -0.275 OA
ATOM      5  N   UNL     1      25.306   4.315  19.631  0.00  0.00    -0.302 N 
ATOM     20  C   UNL     1      24.777   5.450  20.253  0.00  0.00    +0.219 C 
BRANCH   5  24
ATOM     24  C   UNL     1      26.409   4.469  18.689  0.00  0.00    +0.104 C 
ATOM     29  C   UNL     1      27.751   4.315  19.375  0.00  0.00    +0.024 C 
ENDBRANCH   5  24
BRANCH   5  25
ATOM     25  C   UNL     1      24.883   2.934  19.853  0.00  0.00    +0.104 C 
ATOM     30  C   UNL     1      25.577   2.328  21.056  0.00  0.00    +0.024 C 
ENDBRANCH   5  25
ENDBRANCH  17  20
ENDBRANCH  11  17
TORSDOF 8
ENDMDL
MODEL 2
REMARK VINA RESULT:      -6.2     29.756     32.187
REMARK  Name = 28962614
REMARK  16 active torsions:
REMARK  status: ('A' for Active; 'I' for Inactive)
REMARK    1  A    between atoms: O_1  and  C_9
REMARK    2  A    between atoms: N_4  and  C_13
REMARK    3  A    between atoms: N_5  and  C_24
REMARK    4  A    between atoms: N_5  and  C_25
REMARK    5  A    between atoms: C_6  and  C_16
REMARK    6  A    between atoms: C_8  and  C_18
REMARK    7  A    between atoms: C_11  and  C_17
REMARK    8  A    between atoms: C_17  and  C_19
REMARK    9  A    between atoms: C_17  and  C_20
REMARK   10  A    between atoms: C_21  and  C_22
REMARK   11  A    between atoms: C_22  and  C_23
REMARK   12  A    between atoms: C_23  and  C_26
REMARK   13  A    between atoms: C_23  and  C_27
REMARK   14  A    between atoms: C_23  and  C_28
REMARK   15  A    between atoms: C_24  and  C_29
REMARK   16  A    between atoms: C_25  and  C_30
REMARK                            x       y       z     vdW  Elec       q    Type
REMARK                         _______ _______ _______ _____ _____    ______ ____
ROOT
ATOM      6  C   UNL     1      -3.666 -10.603  10.552  0.00  0.00    -0.027 C 
ATOM      7  C   UNL     1      -4.967 -10.376  11.390  0.00  0.00    +0.028 C 
ATOM      8  C   UNL     1      -5.775  -9.143  10.847  0.00  0.00    +0.012 C 
ATOM      9  C   UNL     1      -4.659 -10.353  12.915  0.00  0.00    +0.122 C 
ATOM     10  C   UNL     1      -2.955 -11.887  11.039  0.00  0.00    +0.007 C 
ATOM     11  C   UNL     1      -3.857 -11.592  13.378  0.00  0.00    +0.029 C 
ATOM     12  C   UNL     1      -4.051 -10.812   9.069  0.00  0.00    +0.009 C 
ATOM     13  C   UNL     1      -6.092  -9.330   9.336  0.00  0.00    +0.076 C 
ATOM     14  C   UNL     1      -2.616 -11.853  12.523  0.00  0.00    +0.007 C 
ATOM     15  C   UNL     1      -4.860  -9.658   8.493  0.00  0.00    +0.023 C 
ATOM     16  C   UNL     1      -2.675  -9.416  10.658  0.00  0.00    +0.011 C 
ATOM     18  C   UNL     1      -7.084  -8.879  11.609  0.00  0.00    +0.010 C 
ENDROOT
BRANCH  13   4
ATOM      3  O   UNL     1      -8.181  -9.266   7.332  0.00  0.00    -0.276 OA
ATOM      4  N   UNL     1      -6.734  -8.160   8.774  0.00  0.00    -0.312 N 
ATOM     21  C   UNL     1      -7.728  -8.230   7.815  0.00  0.00    +0.214 C 
ATOM     31  H   UNL     1      -6.404  -7.250   9.081  0.00  0.00    +0.149 HD
BRANCH  21  22
ATOM     22  C   UNL     1      -8.232  -6.863   7.383  0.00  0.00    +0.102 C 
BRANCH  22  23
ATOM     23  C   UNL     1      -9.571  -6.435   8.028  0.00  0.00    -0.029 C 
ATOM     26  C   UNL     1      -9.489  -5.000   8.575  0.00  0.00    +0.011 C 
ATOM     27  C   UNL     1     -10.660  -6.478   6.938  0.00  0.00    +0.011 C 
ATOM     28  C   UNL     1      -9.981  -7.389   9.163  0.00  0.00    +0.011 C 
ENDBRANCH  22  23
ENDBRANCH  21  22
ENDBRANCH  13   4
BRANCH   9   1
ATOM      1  O   UNL     1      -5.883 -10.363  13.650  0.00  0.00    -0.391 OA
ATOM     32  H   UNL     1      -6.107 -11.287  13.854  0.00  0.00    +0.210 HD
ENDBRANCH   9   1
BRANCH  11  17
ATOM     17  C   UNL     1      -3.450 -11.488  14.853  0.00  0.00    +0.078 C 
ATOM     19  C   UNL     1      -1.928 -11.562  14.968  0.00  0.00    +0.017 C 
BRANCH  17  20
ATOM      2  O   UNL     1      -3.955 -13.785  15.306  0.00  0.00    -0.275 OA
ATOM      5  N   UNL     1      -4.908 -12.247  16.749  0.00  0.00    -0.302 N 
ATOM     20  C   UNL     1      -4.117 -12.609  15.654  0.00  0.00    +0.219 C 
BRANCH   5  24
ATOM     24  C   UNL     1      -5.575 -13.289  17.521  0.00  0.00    +0.104 C 
ATOM     29  C   UNL     1      -7.002 -13.497  17.055  0.00  0.00    +0.024 C 
ENDBRANCH   5  24
BRANCH   5  25
ATOM     25  C   UNL     1      -5.122 -10.889  17.247  0.00  0.00    +0.104 C 
ATOM     30  C   UNL     1      -5.146 -10.852  18.761  0.00  0.00    +0.024 C 
ENDBRANCH   5  25
ENDBRANCH  17  20
ENDBRANCH  11  17
TORSDOF 8
ENDMDL
MODEL 3
REMARK VINA RESULT:      -6.2     16.504     18.594
REMARK  Name = 28962614
REMARK  16 active torsions:
REMARK  status: ('A' for Active; 'I' for Inactive)
REMARK    1  A    between atoms: O_1  and  C_9
REMARK    2  A    between atoms: N_4  and  C_13
REMARK    3  A    between atoms: N_5  and  C_24
REMARK    4  A    between atoms: N_5  and  C_25
REMARK    5  A    between atoms: C_6  and  C_16
REMARK    6  A    between atoms: C_8  and  C_18
REMARK    7  A    between atoms: C_11  and  C_17
REMARK    8  A    between atoms: C_17  and  C_19
REMARK    9  A    between atoms: C_17  and  C_20
REMARK   10  A    between atoms: C_21  and  C_22
REMARK   11  A    between atoms: C_22  and  C_23
REMARK   12  A    between atoms: C_23  and  C_26
REMARK   13  A    between atoms: C_23  and  C_27
REMARK   14  A    between atoms: C_23  and  C_28
REMARK   15  A    between atoms: C_24  and  C_29
REMARK   16  A    between atoms: C_25  and  C_30
REMARK                            x       y       z     vdW  Elec       q    Type
REMARK                         _______ _______ _______ _____ _____    ______ ____
ROOT
ATOM      6  C   UNL     1       9.515   6.331   5.948  0.00  0.00    -0.027 C 
ATOM      7  C   UNL     1      10.522   7.374   5.360  0.00  0.00    +0.028 C 
ATOM      8  C   UNL     1      10.055   8.840   5.673  0.00  0.00    +0.012 C 
ATOM      9  C   UNL     1      10.833   7.076   3.865  0.00  0.00    +0.122 C 
ATOM     10  C   UNL     1      10.060   4.901   5.722  0.00  0.00    +0.007 C 
ATOM     11  C   UNL     1      11.279   5.614   3.630  0.00  0.00    +0.029 C 
ATOM     12  C   UNL     1       9.393   6.552   7.474  0.00  0.00    +0.009 C 
ATOM     13  C   UNL     1       9.863   9.030   7.204  0.00  0.00    +0.076 C 
ATOM     14  C   UNL     1      10.328   4.593   4.255  0.00  0.00    +0.007 C 
ATOM     15  C   UNL     1       8.968   7.967   7.840  0.00  0.00    +0.023 C 
ATOM     16  C   UNL     1       8.109   6.434   5.304  0.00  0.00    +0.011 C 
ATOM     18  C   UNL     1      11.017   9.919   5.146  0.00  0.00    +0.010 C 
ENDROOT
BRANCH  13   4
ATOM      3  O   UNL     1      11.122  11.126   8.755  0.00  0.00    -0.276 OA
ATOM      4  N   UNL     1       9.321  10.335   7.519  0.00  0.00    -0.312 N 
ATOM     21  C   UNL     1      10.002  11.274   8.272  0.00  0.00    +0.214 C 
ATOM     31  H   UNL     1       8.382  10.544   7.197  0.00  0.00    +0.149 HD
BRANCH  21  22
ATOM     22  C   UNL     1       9.215  12.559   8.468  0.00  0.00    +0.102 C 
BRANCH  22  23
ATOM     23  C   UNL     1       8.729  12.805   9.915  0.00  0.00    -0.029 C 
ATOM     26  C   UNL     1       9.613  13.845  10.628  0.00  0.00    +0.011 C 
ATOM     27  C   UNL     1       7.291  13.354   9.850  0.00  0.00    +0.011 C 
ATOM     28  C   UNL     1       8.716  11.504  10.735  0.00  0.00    +0.011 C 
ENDBRANCH  22  23
ENDBRANCH  21  22
ENDBRANCH  13   4
BRANCH   9   1
ATOM      1  O   UNL     1      11.909   7.906   3.426  0.00  0.00    -0.391 OA
ATOM     32  H   UNL     1      11.549   8.565   2.807  0.00  0.00    +0.210 HD
ENDBRANCH   9   1
BRANCH  11  17
ATOM     17  C   UNL     1      11.453   5.305   2.138  0.00  0.00    +0.078 C 
ATOM     19  C   UNL     1      10.127   4.806   1.562  0.00  0.00    +0.017 C 
BRANCH  17  20
ATOM      2  O   UNL     1      12.279   3.061   2.008  0.00  0.00    -0.275 OA
ATOM      5  N   UNL     1      13.862   4.727   1.739  0.00  0.00    -0.302 N 
ATOM     20  C   UNL     1      12.560   4.264   1.950  0.00  0.00    +0.219 C 
BRANCH   5  24
ATOM     24  C   UNL     1      14.944   3.761   1.578  0.00  0.00    +0.104 C 
ATOM     29  C   UNL     1      15.712   3.997   0.293  0.00  0.00    +0.024 C 
ENDBRANCH   5  24
BRANCH   5  25
ATOM     25  C   UNL     1      14.272   6.125   1.623  0.00  0.00    +0.104 C 
ATOM     30  C   UNL     1      15.001   6.593   2.866  0.00  0.00    +0.024 C 
ENDBRANCH   5  25
ENDBRANCH  17  20
ENDBRANCH  11  17
TORSDOF 8
ENDMDL
MODEL 4
REMARK VINA RESULT:      -6.0     19.874     22.684
REMARK  Name = 28962614
REMARK  16 active torsions:
REMARK  status: ('A' for Active; 'I' for Inactive)
REMARK    1  A    between atoms: O_1  and  C_9
REMARK    2  A    between atoms: N_4  and  C_13
REMARK    3  A    between atoms: N_5  and  C_24
REMARK    4  A    between atoms: N_5  and  C_25
REMARK    5  A    between atoms: C_6  and  C_16
REMARK    6  A    between atoms: C_8  and  C_18
REMARK    7  A    between atoms: C_11  and  C_17
REMARK    8  A    between atoms: C_17  and  C_19
REMARK    9  A    between atoms: C_17  and  C_20
REMARK   10  A    between atoms: C_21  and  C_22
REMARK   11  A    between atoms: C_22  and  C_23
REMARK   12  A    between atoms: C_23  and  C_26
REMARK   13  A    between atoms: C_23  and  C_27
REMARK   14  A    between atoms: C_23  and  C_28
REMARK   15  A    between atoms: C_24  and  C_29
REMARK   16  A    between atoms: C_25  and  C_30
REMARK                            x       y       z     vdW  Elec       q    Type
REMARK                         _______ _______ _______ _____ _____    ______ ____
ROOT
ATOM      6  C   UNL     1      13.620   5.042   0.709  0.00  0.00    -0.027 C 
ATOM      7  C   UNL     1      12.060   5.113   0.793  0.00  0.00    +0.028 C 
ATOM      8  C   UNL     1      11.577   5.069   2.288  0.00  0.00    +0.012 C 
ATOM      9  C   UNL     1      11.396   4.072  -0.153  0.00  0.00    +0.122 C 
ATOM     10  C   UNL     1      14.065   5.201  -0.764  0.00  0.00    +0.007 C 
ATOM     11  C   UNL     1      11.922   4.168  -1.605  0.00  0.00    +0.029 C 
ATOM     12  C   UNL     1      14.223   6.218   1.512  0.00  0.00    +0.009 C 
ATOM     13  C   UNL     1      12.247   6.211   3.104  0.00  0.00    +0.076 C 
ATOM     14  C   UNL     1      13.449   4.159  -1.687  0.00  0.00    +0.007 C 
ATOM     15  C   UNL     1      13.769   6.243   2.965  0.00  0.00    +0.023 C 
ATOM     16  C   UNL     1      14.185   3.707   1.258  0.00  0.00    +0.011 C 
ATOM     18  C   UNL     1      10.050   5.164   2.446  0.00  0.00    +0.010 C 
ENDROOT
BRANCH  13   4
ATOM      3  O   UNL     1      10.847   8.183   4.694  0.00  0.00    -0.276 OA
ATOM      4  N   UNL     1      11.916   6.129   4.511  0.00  0.00    -0.312 N 
ATOM     21  C   UNL     1      11.241   7.129   5.187  0.00  0.00    +0.214 C 
ATOM     31  H   UNL     1      12.232   5.311   5.021  0.00  0.00    +0.149 HD
BRANCH  21  22
ATOM     22  C   UNL     1      11.023   6.807   6.656  0.00  0.00    +0.102 C 
BRANCH  22  23
ATOM     23  C   UNL     1       9.587   6.357   7.013  0.00  0.00    -0.029 C 
ATOM     26  C   UNL     1       8.812   5.929   5.754  0.00  0.00    +0.011 C 
ATOM     27  C   UNL     1       9.688   5.143   7.957  0.00  0.00    +0.011 C 
ATOM     28  C   UNL     1       8.810   7.470   7.734  0.00  0.00    +0.011 C 
ENDBRANCH  22  23
ENDBRANCH  21  22
ENDBRANCH  13   4
BRANCH   9   1
ATOM      1  O   UNL     1       9.989   4.309  -0.214  0.00  0.00    -0.391 OA
ATOM     32  H   UNL     1       9.846   5.178  -0.629  0.00  0.00    +0.210 HD
ENDBRANCH   9   1
BRANCH  11  17
ATOM     17  C   UNL     1      11.355   3.051  -2.490  0.00  0.00    +0.078 C 
ATOM     19  C   UNL     1      12.196   1.786  -2.317  0.00  0.00    +0.017 C 
BRANCH  17  20
ATOM      2  O   UNL     1      12.349   3.343  -4.649  0.00  0.00    -0.275 OA
ATOM      5  N   UNL     1      10.178   4.114  -4.435  0.00  0.00    -0.302 N 
ATOM     20  C   UNL     1      11.341   3.506  -3.952  0.00  0.00    +0.219 C 
BRANCH   5  24
ATOM     24  C   UNL     1      10.140   4.579  -5.817  0.00  0.00    +0.104 C 
ATOM     29  C   UNL     1       9.133   3.798  -6.638  0.00  0.00    +0.024 C 
ENDBRANCH   5  24
BRANCH   5  25
ATOM     25  C   UNL     1       8.936   4.313  -3.691  0.00  0.00    +0.104 C 
ATOM     30  C   UNL     1       8.795   5.747  -3.222  0.00  0.00    +0.024 C 
ENDBRANCH   5  25
ENDBRANCH  17  20
ENDBRANCH  11  17
TORSDOF 8
ENDMDL
MODEL 5
REMARK VINA RESULT:      -5.9      2.532      9.560
REMARK  Name = 28962614
REMARK  16 active torsions:
REMARK  status: ('A' for Active; 'I' for Inactive)
REMARK    1  A    between atoms: O_1  and  C_9
REMARK    2  A    between atoms: N_4  and  C_13
REMARK    3  A    between atoms: N_5  and  C_24
REMARK    4  A    between atoms: N_5  and  C_25
REMARK    5  A    between atoms: C_6  and  C_16
REMARK    6  A    between atoms: C_8  and  C_18
REMARK    7  A    between atoms: C_11  and  C_17
REMARK    8  A    between atoms: C_17  and  C_19
REMARK    9  A    between atoms: C_17  and  C_20
REMARK   10  A    between atoms: C_21  and  C_22
REMARK   11  A    between atoms: C_22  and  C_23
REMARK   12  A    between atoms: C_23  and  C_26
REMARK   13  A    between atoms: C_23  and  C_27
REMARK   14  A    between atoms: C_23  and  C_28
REMARK   15  A    between atoms: C_24  and  C_29
REMARK   16  A    between atoms: C_25  and  C_30
REMARK                            x       y       z     vdW  Elec       q    Type
REMARK                         _______ _______ _______ _____ _____    ______ ____
ROOT
ATOM      6  C   UNL     1      18.339  10.170  21.838  0.00  0.00    -0.027 C 
ATOM      7  C   UNL     1      17.773   8.741  21.546  0.00  0.00    +0.028 C 
ATOM      8  C   UNL     1      18.930   7.746  21.176  0.00  0.00    +0.012 C 
ATOM      9  C   UNL     1      16.592   8.798  20.535  0.00  0.00    +0.122 C 
ATOM     10  C   UNL     1      17.191  11.094  22.308  0.00  0.00    +0.007 C 
ATOM     11  C   UNL     1      15.494   9.802  20.959  0.00  0.00    +0.029 C 
ATOM     12  C   UNL     1      19.370  10.079  22.987  0.00  0.00    +0.009 C 
ATOM     13  C   UNL     1      20.000   7.718  22.304  0.00  0.00    +0.076 C 
ATOM     14  C   UNL     1      16.051  11.184  21.303  0.00  0.00    +0.007 C 
ATOM     15  C   UNL     1      20.505   9.107  22.695  0.00  0.00    +0.023 C 
ATOM     16  C   UNL     1      19.013  10.807  20.596  0.00  0.00    +0.011 C 
ATOM     18  C   UNL     1      18.446   6.311  20.904  0.00  0.00    +0.010 C 
ENDROOT
BRANCH  13   4
ATOM      3  O   UNL     1      21.278   5.682  23.918  0.00  0.00    -0.276 OA
ATOM      4  N   UNL     1      21.138   6.900  21.944  0.00  0.00    -0.312 N 
ATOM     21  C   UNL     1      21.682   5.948  22.788  0.00  0.00    +0.214 C 
ATOM     31  H   UNL     1      21.571   7.068  21.042  0.00  0.00    +0.149 HD
BRANCH  21  22
ATOM     22  C   UNL     1      22.875   5.231  22.180  0.00  0.00    +0.102 C 
BRANCH  22  23
ATOM     23  C   UNL     1      22.621   3.750  21.813  0.00  0.00    -0.029 C 
ATOM     26  C   UNL     1      21.277   3.582  21.082  0.00  0.00    +0.011 C 
ATOM     27  C   UNL     1      23.749   3.291  20.868  0.00  0.00    +0.011 C 
ATOM     28  C   UNL     1      22.635   2.849  23.060  0.00  0.00    +0.011 C 
ENDBRANCH  22  23
ENDBRANCH  21  22
ENDBRANCH  13   4
BRANCH   9   1
ATOM      1  O   UNL     1      15.965   7.517  20.460  0.00  0.00    -0.391 OA
ATOM     32  H   UNL     1      16.180   7.027  21.272  0.00  0.00    +0.210 HD
ENDBRANCH   9   1
BRANCH  11  17
ATOM     17  C   UNL     1      14.405   9.940  19.888  0.00  0.00    +0.078 C 
ATOM     19  C   UNL     1      14.450  11.349  19.295  0.00  0.00    +0.017 C 
BRANCH  17  20
ATOM      2  O   UNL     1      12.667  10.275  21.501  0.00  0.00    -0.275 OA
ATOM      5  N   UNL     1      12.254   8.649  19.908  0.00  0.00    -0.302 N 
ATOM     20  C   UNL     1      13.034   9.646  20.502  0.00  0.00    +0.219 C 
BRANCH   5  24
ATOM     24  C   UNL     1      10.952   8.328  20.481  0.00  0.00    +0.104 C 
ATOM     29  C   UNL     1      11.028   7.117  21.388  0.00  0.00    +0.024 C 
ENDBRANCH   5  24
BRANCH   5  25
ATOM     25  C   UNL     1      12.596   7.885  18.710  0.00  0.00    +0.104 C 
ATOM     30  C   UNL     1      11.878   8.420  17.488  0.00  0.00    +0.024 C 
ENDBRANCH   5  25
ENDBRANCH  17  20
ENDBRANCH  11  17
TORSDOF 8
ENDMDL
MODEL 6
REMARK VINA RESULT:      -5.8     29.960     32.886
REMARK  Name = 28962614
REMARK  16 active torsions:
REMARK  status: ('A' for Active; 'I' for Inactive)
REMARK    1  A    between atoms: O_1  and  C_9
REMARK    2  A    between atoms: N_4  and  C_13
REMARK    3  A    between atoms: N_5  and  C_24
REMARK    4  A    between atoms: N_5  and  C_25
REMARK    5  A    between atoms: C_6  and  C_16
REMARK    6  A    between atoms: C_8  and  C_18
REMARK    7  A    between atoms: C_11  and  C_17
REMARK    8  A    between atoms: C_17  and  C_19
REMARK    9  A    between atoms: C_17  and  C_20
REMARK   10  A    between atoms: C_21  and  C_22
REMARK   11  A    between atoms: C_22  and  C_23
REMARK   12  A    between atoms: C_23  and  C_26
REMARK   13  A    between atoms: C_23  and  C_27
REMARK   14  A    between atoms: C_23  and  C_28
REMARK   15  A    between atoms: C_24  and  C_29
REMARK   16  A    between atoms: C_25  and  C_30
REMARK                            x       y       z     vdW  Elec       q    Type
REMARK                         _______ _______ _______ _____ _____    ______ ____
ROOT
ATOM      6  C   UNL     1      -4.006 -10.233  10.682  0.00  0.00    -0.027 C 
ATOM      7  C   UNL     1      -5.279  -9.718  11.432  0.00  0.00    +0.028 C 
ATOM      8  C   UNL     1      -5.523 -10.541  12.748  0.00  0.00    +0.012 C 
ATOM      9  C   UNL     1      -6.498  -9.618  10.471  0.00  0.00    +0.122 C 
ATOM     10  C   UNL     1      -3.730  -9.332   9.456  0.00  0.00    +0.007 C 
ATOM     11  C   UNL     1      -6.184  -8.802   9.195  0.00  0.00    +0.029 C 
ATOM     12  C   UNL     1      -2.786 -10.127  11.627  0.00  0.00    +0.009 C 
ATOM     13  C   UNL     1      -4.263 -10.490  13.658  0.00  0.00    +0.076 C 
ATOM     14  C   UNL     1      -4.907  -9.263   8.492  0.00  0.00    +0.007 C 
ATOM     15  C   UNL     1      -2.976 -10.884  12.934  0.00  0.00    +0.023 C 
ATOM     16  C   UNL     1      -4.152 -11.698  10.200  0.00  0.00    +0.011 C 
ATOM     18  C   UNL     1      -6.747 -10.068  13.552  0.00  0.00    +0.010 C 
ENDROOT
BRANCH  13   4
ATOM      3  O   UNL     1      -3.023 -10.130  16.249  0.00  0.00    -0.276 OA
ATOM      4  N   UNL     1      -4.410 -11.332  14.826  0.00  0.00    -0.312 N 
ATOM     21  C   UNL     1      -3.773 -11.078  16.026  0.00  0.00    +0.214 C 
ATOM     31  H   UNL     1      -4.982 -12.166  14.735  0.00  0.00    +0.149 HD
BRANCH  21  22
ATOM     22  C   UNL     1      -4.084 -12.114  17.093  0.00  0.00    +0.102 C 
BRANCH  22  23
ATOM     23  C   UNL     1      -5.322 -11.794  17.963  0.00  0.00    -0.029 C 
ATOM     26  C   UNL     1      -6.417 -12.860  17.783  0.00  0.00    +0.011 C 
ATOM     27  C   UNL     1      -4.881 -11.797  19.440  0.00  0.00    +0.011 C 
ATOM     28  C   UNL     1      -5.903 -10.409  17.632  0.00  0.00    +0.011 C 
ENDBRANCH  22  23
ENDBRANCH  21  22
ENDBRANCH  13   4
BRANCH   9   1
ATOM      1  O   UNL     1      -7.573  -8.947  11.130  0.00  0.00    -0.391 OA
ATOM     32  H   UNL     1      -8.318  -8.887  10.508  0.00  0.00    +0.210 HD
ENDBRANCH   9   1
BRANCH  11  17
ATOM     17  C   UNL     1      -7.352  -8.825   8.202  0.00  0.00    +0.078 C 
ATOM     19  C   UNL     1      -6.856  -9.319   6.843  0.00  0.00    +0.017 C 
BRANCH  17  20
ATOM      2  O   UNL     1      -7.234  -6.434   8.179  0.00  0.00    -0.275 OA
ATOM      5  N   UNL     1      -9.348  -7.333   7.907  0.00  0.00    -0.302 N 
ATOM     20  C   UNL     1      -7.965  -7.427   8.090  0.00  0.00    +0.219 C 
BRANCH   5  24
ATOM     24  C   UNL     1      -9.966  -6.015   7.818  0.00  0.00    +0.104 C 
ATOM     29  C   UNL     1     -10.634  -5.626   9.121  0.00  0.00    +0.024 C 
ENDBRANCH   5  24
BRANCH   5  25
ATOM     25  C   UNL     1     -10.276  -8.452   7.756  0.00  0.00    +0.104 C 
ATOM     30  C   UNL     1     -10.612  -8.701   6.300  0.00  0.00    +0.024 C 
ENDBRANCH   5  25
ENDBRANCH  17  20
ENDBRANCH  11  17
TORSDOF 8
ENDMDL
MODEL 7
REMARK VINA RESULT:      -5.8     19.127     21.477
REMARK  Name = 28962614
REMARK  16 active torsions:
REMARK  status: ('A' for Active; 'I' for Inactive)
REMARK    1  A    between atoms: O_1  and  C_9
REMARK    2  A    between atoms: N_4  and  C_13
REMARK    3  A    between atoms: N_5  and  C_24
REMARK    4  A    between atoms: N_5  and  C_25
REMARK    5  A    between atoms: C_6  and  C_16
REMARK    6  A    between atoms: C_8  and  C_18
REMARK    7  A    between atoms: C_11  and  C_17
REMARK    8  A    between atoms: C_17  and  C_19
REMARK    9  A    between atoms: C_17  and  C_20
REMARK   10  A    between atoms: C_21  and  C_22
REMARK   11  A    between atoms: C_22  and  C_23
REMARK   12  A    between atoms: C_23  and  C_26
REMARK   13  A    between atoms: C_23  and  C_27
REMARK   14  A    between atoms: C_23  and  C_28
REMARK   15  A    between atoms: C_24  and  C_29
REMARK   16  A    between atoms: C_25  and  C_30
REMARK                            x       y       z     vdW  Elec       q    Type
REMARK                         _______ _______ _______ _____ _____    ______ ____
ROOT
ATOM      6  C   UNL     1      13.434   6.704   1.670  0.00  0.00    -0.027 C 
ATOM      7  C   UNL     1      12.532   5.459   1.381  0.00  0.00    +0.028 C 
ATOM      8  C   UNL     1      12.059   4.787   2.719  0.00  0.00    +0.012 C 
ATOM      9  C   UNL     1      13.204   4.501   0.354  0.00  0.00    +0.122 C 
ATOM     10  C   UNL     1      13.787   7.406   0.338  0.00  0.00    +0.007 C 
ATOM     11  C   UNL     1      13.650   5.231  -0.935  0.00  0.00    +0.029 C 
ATOM     12  C   UNL     1      12.641   7.710   2.536  0.00  0.00    +0.009 C 
ATOM     13  C   UNL     1      11.329   5.826   3.615  0.00  0.00    +0.076 C 
ATOM     14  C   UNL     1      14.482   6.483  -0.654  0.00  0.00    +0.007 C 
ATOM     15  C   UNL     1      12.133   7.107   3.838  0.00  0.00    +0.023 C 
ATOM     16  C   UNL     1      14.749   6.329   2.399  0.00  0.00    +0.011 C 
ATOM     18  C   UNL     1      11.143   3.569   2.508  0.00  0.00    +0.010 C 
ENDROOT
BRANCH  13   4
ATOM      3  O   UNL     1       8.790   6.037   4.991  0.00  0.00    -0.276 OA
ATOM      4  N   UNL     1      10.982   5.272   4.907  0.00  0.00    -0.312 N 
ATOM     21  C   UNL     1       9.735   5.427   5.486  0.00  0.00    +0.214 C 
ATOM     31  H   UNL     1      11.708   4.779   5.417  0.00  0.00    +0.149 HD
BRANCH  21  22
ATOM     22  C   UNL     1       9.627   4.758   6.846  0.00  0.00    +0.102 C 
BRANCH  22  23
ATOM     23  C   UNL     1       9.828   5.706   8.051  0.00  0.00    -0.029 C 
ATOM     26  C   UNL     1       9.573   4.975   9.381  0.00  0.00    +0.011 C 
ATOM     27  C   UNL     1      11.290   6.193   8.036  0.00  0.00    +0.011 C 
ATOM     28  C   UNL     1       8.906   6.934   7.962  0.00  0.00    +0.011 C 
ENDBRANCH  22  23
ENDBRANCH  21  22
ENDBRANCH  13   4
BRANCH   9   1
ATOM      1  O   UNL     1      12.270   3.499  -0.047  0.00  0.00    -0.391 OA
ATOM     32  H   UNL     1      11.914   3.748  -0.917  0.00  0.00    +0.210 HD
ENDBRANCH   9   1
BRANCH  11  17
ATOM     17  C   UNL     1      14.426   4.301  -1.875  0.00  0.00    +0.078 C 
ATOM     19  C   UNL     1      15.925   4.563  -1.729  0.00  0.00    +0.017 C 
BRANCH  17  20
ATOM      2  O   UNL     1      14.443   5.461  -3.970  0.00  0.00    -0.275 OA
ATOM      5  N   UNL     1      13.002   3.655  -3.838  0.00  0.00    -0.302 N 
ATOM     20  C   UNL     1      13.968   4.524  -3.319  0.00  0.00    +0.219 C 
BRANCH   5  24
ATOM     24  C   UNL     1      12.528   3.853  -5.203  0.00  0.00    +0.104 C 
ATOM     29  C   UNL     1      13.200   2.899  -6.169  0.00  0.00    +0.024 C 
ENDBRANCH   5  24
BRANCH   5  25
ATOM     25  C   UNL     1      12.417   2.506  -3.151  0.00  0.00    +0.104 C 
ATOM     30  C   UNL     1      10.903   2.562  -3.169  0.00  0.00    +0.024 C 
ENDBRANCH   5  25
ENDBRANCH  17  20
ENDBRANCH  11  17
TORSDOF 8
ENDMDL
MODEL 8
REMARK VINA RESULT:      -5.8     16.736     19.787
REMARK  Name = 28962614
REMARK  16 active torsions:
REMARK  status: ('A' for Active; 'I' for Inactive)
REMARK    1  A    between atoms: O_1  and  C_9
REMARK    2  A    between atoms: N_4  and  C_13
REMARK    3  A    between atoms: N_5  and  C_24
REMARK    4  A    between atoms: N_5  and  C_25
REMARK    5  A    between atoms: C_6  and  C_16
REMARK    6  A    between atoms: C_8  and  C_18
REMARK    7  A    between atoms: C_11  and  C_17
REMARK    8  A    between atoms: C_17  and  C_19
REMARK    9  A    between atoms: C_17  and  C_20
REMARK   10  A    between atoms: C_21  and  C_22
REMARK   11  A    between atoms: C_22  and  C_23
REMARK   12  A    between atoms: C_23  and  C_26
REMARK   13  A    between atoms: C_23  and  C_27
REMARK   14  A    between atoms: C_23  and  C_28
REMARK   15  A    between atoms: C_24  and  C_29
REMARK   16  A    between atoms: C_25  and  C_30
REMARK                            x       y       z     vdW  Elec       q    Type
REMARK                         _______ _______ _______ _____ _____    ______ ____
ROOT
ATOM      6  C   UNL     1       9.713   6.670   6.576  0.00  0.00    -0.027 C 
ATOM      7  C   UNL     1      10.397   7.569   5.495  0.00  0.00    +0.028 C 
ATOM      8  C   UNL     1      11.447   6.746   4.665  0.00  0.00    +0.012 C 
ATOM      9  C   UNL     1      10.928   8.893   6.116  0.00  0.00    +0.122 C 
ATOM     10  C   UNL     1       8.609   7.478   7.297  0.00  0.00    +0.007 C 
ATOM     11  C   UNL     1       9.845   9.646   6.924  0.00  0.00    +0.029 C 
ATOM     12  C   UNL     1       9.035   5.468   5.877  0.00  0.00    +0.009 C 
ATOM     13  C   UNL     1      10.771   5.499   4.028  0.00  0.00    +0.076 C 
ATOM     14  C   UNL     1       9.131   8.755   7.941  0.00  0.00    +0.007 C 
ATOM     15  C   UNL     1      10.000   4.646   5.035  0.00  0.00    +0.023 C 
ATOM     16  C   UNL     1      10.715   6.144   7.635  0.00  0.00    +0.011 C 
ATOM     18  C   UNL     1      12.140   7.564   3.562  0.00  0.00    +0.010 C 
ENDROOT
BRANCH  13   4
ATOM      3  O   UNL     1      10.419   4.095   1.520  0.00  0.00    -0.276 OA
ATOM      4  N   UNL     1      11.734   4.654   3.352  0.00  0.00    -0.312 N 
ATOM     21  C   UNL     1      11.472   4.022   2.150  0.00  0.00    +0.214 C 
ATOM     31  H   UNL     1      12.626   4.498   3.811  0.00  0.00    +0.149 HD
BRANCH  21  22
ATOM     22  C   UNL     1      12.640   3.187   1.654  0.00  0.00    +0.102 C 
BRANCH  22  23
ATOM     23  C   UNL     1      13.619   3.936   0.720  0.00  0.00    -0.029 C 
ATOM     26  C   UNL     1      13.380   5.455   0.770  0.00  0.00    +0.011 C 
ATOM     27  C   UNL     1      15.054   3.654   1.207  0.00  0.00    +0.011 C 
ATOM     28  C   UNL     1      13.495   3.451  -0.734  0.00  0.00    +0.011 C 
ENDBRANCH  22  23
ENDBRANCH  21  22
ENDBRANCH  13   4
BRANCH   9   1
ATOM      1  O   UNL     1      11.348   9.775   5.075  0.00  0.00    -0.391 OA
ATOM     32  H   UNL     1      11.175  10.688   5.365  0.00  0.00    +0.210 HD
ENDBRANCH   9   1
BRANCH  11  17
ATOM     17  C   UNL     1      10.420  10.877   7.636  0.00  0.00    +0.078 C 
ATOM     19  C   UNL     1      10.103  10.796   9.130  0.00  0.00    +0.017 C 
BRANCH  17  20
ATOM      2  O   UNL     1       8.611  12.294   6.963  0.00  0.00    -0.275 OA
ATOM      5  N   UNL     1      10.733  13.103   6.521  0.00  0.00    -0.302 N 
ATOM     20  C   UNL     1       9.837  12.151   7.019  0.00  0.00    +0.219 C 
BRANCH   5  24
ATOM     24  C   UNL     1      10.211  14.319   5.907  0.00  0.00    +0.104 C 
ATOM     29  C   UNL     1      10.368  14.291   4.400  0.00  0.00    +0.024 C 
ENDBRANCH   5  24
BRANCH   5  25
ATOM     25  C   UNL     1      12.191  13.029   6.579  0.00  0.00    +0.104 C 
ATOM     30  C   UNL     1      12.743  13.843   7.732  0.00  0.00    +0.024 C 
ENDBRANCH   5  25
ENDBRANCH  17  20
ENDBRANCH  11  17
TORSDOF 8
ENDMDL
MODEL 9
REMARK VINA RESULT:      -5.4     18.193     21.189
REMARK  Name = 28962614
REMARK  16 active torsions:
REMARK  status: ('A' for Active; 'I' for Inactive)
REMARK    1  A    between atoms: O_1  and  C_9
REMARK    2  A    between atoms: N_4  and  C_13
REMARK    3  A    between atoms: N_5  and  C_24
REMARK    4  A    between atoms: N_5  and  C_25
REMARK    5  A    between atoms: C_6  and  C_16
REMARK    6  A    between atoms: C_8  and  C_18
REMARK    7  A    between atoms: C_11  and  C_17
REMARK    8  A    between atoms: C_17  and  C_19
REMARK    9  A    between atoms: C_17  and  C_20
REMARK   10  A    between atoms: C_21  and  C_22
REMARK   11  A    between atoms: C_22  and  C_23
REMARK   12  A    between atoms: C_23  and  C_26
REMARK   13  A    between atoms: C_23  and  C_27
REMARK   14  A    between atoms: C_23  and  C_28
REMARK   15  A    between atoms: C_24  and  C_29
REMARK   16  A    between atoms: C_25  and  C_30
REMARK                            x       y       z     vdW  Elec       q    Type
REMARK                         _______ _______ _______ _____ _____    ______ ____
ROOT
ATOM      6  C   UNL     1      14.360   7.111   1.922  0.00  0.00    -0.027 C 
ATOM      7  C   UNL     1      13.419   5.907   2.258  0.00  0.00    +0.028 C 
ATOM      8  C   UNL     1      12.943   5.185   0.947  0.00  0.00    +0.012 C 
ATOM      9  C   UNL     1      12.284   6.335   3.234  0.00  0.00    +0.122 C 
ATOM     10  C   UNL     1      14.899   7.728   3.233  0.00  0.00    +0.007 C 
ATOM     11  C   UNL     1      12.823   7.046   4.497  0.00  0.00    +0.029 C 
ATOM     12  C   UNL     1      15.572   6.591   1.114  0.00  0.00    +0.009 C 
ATOM     13  C   UNL     1      14.170   4.733   0.105  0.00  0.00    +0.076 C 
ATOM     14  C   UNL     1      13.792   8.184   4.174  0.00  0.00    +0.007 C 
ATOM     15  C   UNL     1      15.172   5.857  -0.158  0.00  0.00    +0.023 C 
ATOM     16  C   UNL     1      13.643   8.218   1.109  0.00  0.00    +0.011 C 
ATOM     18  C   UNL     1      12.034   3.972   1.206  0.00  0.00    +0.010 C 
ENDROOT
BRANCH  13   4
ATOM      3  O   UNL     1      12.943   6.116  -2.123  0.00  0.00    -0.276 OA
ATOM      4  N   UNL     1      13.770   4.168  -1.166  0.00  0.00    -0.312 N 
ATOM     21  C   UNL     1      13.188   4.913  -2.175  0.00  0.00    +0.214 C 
ATOM     31  H   UNL     1      13.896   3.169  -1.296  0.00  0.00    +0.149 HD
BRANCH  21  22
ATOM     22  C   UNL     1      12.854   4.085  -3.404  0.00  0.00    +0.102 C 
BRANCH  22  23
ATOM     23  C   UNL     1      11.509   3.326  -3.326  0.00  0.00    -0.029 C 
ATOM     26  C   UNL     1      10.435   4.170  -2.618  0.00  0.00    +0.011 C 
ATOM     27  C   UNL     1      11.034   3.045  -4.766  0.00  0.00    +0.011 C 
ATOM     28  C   UNL     1      11.661   1.981  -2.595  0.00  0.00    +0.011 C 
ENDBRANCH  22  23
ENDBRANCH  21  22
ENDBRANCH  13   4
BRANCH   9   1
ATOM      1  O   UNL     1      11.581   5.178   3.686  0.00  0.00    -0.391 OA
ATOM     32  H   UNL     1      11.265   5.350   4.589  0.00  0.00    +0.210 HD
ENDBRANCH   9   1
BRANCH  11  17
ATOM     17  C   UNL     1      11.687   7.575   5.381  0.00  0.00    +0.078 C 
ATOM     19  C   UNL     1      11.851   9.083   5.572  0.00  0.00    +0.017 C 
BRANCH  17  20
ATOM      2  O   UNL     1      12.762   6.707   7.337  0.00  0.00    -0.275 OA
ATOM      5  N   UNL     1      10.480   6.346   7.206  0.00  0.00    -0.302 N 
ATOM     20  C   UNL     1      11.696   6.846   6.727  0.00  0.00    +0.219 C 
BRANCH   5  24
ATOM     24  C   UNL     1      10.457   5.628   8.475  0.00  0.00    +0.104 C 
ATOM     29  C   UNL     1       9.799   4.270   8.332  0.00  0.00    +0.024 C 
ENDBRANCH   5  24
BRANCH   5  25
ATOM     25  C   UNL     1       9.174   6.498   6.568  0.00  0.00    +0.104 C 
ATOM     30  C   UNL     1       8.441   7.717   7.088  0.00  0.00    +0.024 C 
ENDBRANCH   5  25
ENDBRANCH  17  20
ENDBRANCH  11  17
TORSDOF 8
ENDMDL
MODEL 10
REMARK VINA RESULT:      -5.3     19.026     22.939
REMARK  Name = 28962614
REMARK  16 active torsions:
REMARK  status: ('A' for Active; 'I' for Inactive)
REMARK    1  A    between atoms: O_1  and  C_9
REMARK    2  A    between atoms: N_4  and  C_13
REMARK    3  A    between atoms: N_5  and  C_24
REMARK    4  A    between atoms: N_5  and  C_25
REMARK    5  A    between atoms: C_6  and  C_16
REMARK    6  A    between atoms: C_8  and  C_18
REMARK    7  A    between atoms: C_11  and  C_17
REMARK    8  A    between atoms: C_17  and  C_19
REMARK    9  A    between atoms: C_17  and  C_20
REMARK   10  A    between atoms: C_21  and  C_22
REMARK   11  A    between atoms: C_22  and  C_23
REMARK   12  A    between atoms: C_23  and  C_26
REMARK   13  A    between atoms: C_23  and  C_27
REMARK   14  A    between atoms: C_23  and  C_28
REMARK   15  A    between atoms: C_24  and  C_29
REMARK   16  A    between atoms: C_25  and  C_30
REMARK                            x       y       z     vdW  Elec       q    Type
REMARK                         _______ _______ _______ _____ _____    ______ ____
ROOT
ATOM      6  C   UNL     1       9.309   7.528   5.048  0.00  0.00    -0.027 C 
ATOM      7  C   UNL     1       9.135   7.437   3.496  0.00  0.00    +0.028 C 
ATOM      8  C   UNL     1      10.427   6.854   2.821  0.00  0.00    +0.012 C 
ATOM      9  C   UNL     1       8.624   8.784   2.906  0.00  0.00    +0.122 C 
ATOM     10  C   UNL     1       7.983   7.999   5.690  0.00  0.00    +0.007 C 
ATOM     11  C   UNL     1       7.355   9.302   3.622  0.00  0.00    +0.029 C 
ATOM     12  C   UNL     1       9.626   6.120   5.603  0.00  0.00    +0.009 C 
ATOM     13  C   UNL     1      10.780   5.471   3.439  0.00  0.00    +0.076 C 
ATOM     14  C   UNL     1       7.500   9.335   5.144  0.00  0.00    +0.007 C 
ATOM     15  C   UNL     1      10.857   5.491   4.965  0.00  0.00    +0.023 C 
ATOM     16  C   UNL     1      10.437   8.506   5.463  0.00  0.00    +0.011 C 
ATOM     18  C   UNL     1      10.314   6.710   1.293  0.00  0.00    +0.010 C 
ENDROOT
BRANCH  13   4
ATOM      3  O   UNL     1      11.141   3.331   1.523  0.00  0.00    -0.276 OA
ATOM      4  N   UNL     1      12.031   4.956   2.923  0.00  0.00    -0.312 N 
ATOM     21  C   UNL     1      12.103   3.925   2.005  0.00  0.00    +0.214 C 
ATOM     31  H   UNL     1      12.890   5.356   3.287  0.00  0.00    +0.149 HD
BRANCH  21  22
ATOM     22  C   UNL     1      13.530   3.565   1.629  0.00  0.00    +0.102 C 
BRANCH  22  23
ATOM     23  C   UNL     1      14.021   4.177   0.296  0.00  0.00    -0.029 C 
ATOM     26  C   UNL     1      13.711   5.683   0.229  0.00  0.00    +0.011 C 
ATOM     27  C   UNL     1      15.550   3.992   0.220  0.00  0.00    +0.011 C 
ATOM     28  C   UNL     1      13.386   3.474  -0.916  0.00  0.00    +0.011 C 
ENDBRANCH  22  23
ENDBRANCH  21  22
ENDBRANCH  13   4
BRANCH   9   1
ATOM      1  O   UNL     1       8.272   8.602   1.534  0.00  0.00    -0.391 OA
ATOM     32  H   UNL     1       8.561   9.389   1.041  0.00  0.00    +0.210 HD
ENDBRANCH   9   1
BRANCH  11  17
ATOM     17  C   UNL     1       6.943  10.691   3.116  0.00  0.00    +0.078 C 
ATOM     19  C   UNL     1       7.023  11.696   4.266  0.00  0.00    +0.017 C 
BRANCH  17  20
ATOM      2  O   UNL     1       4.581  10.330   3.269  0.00  0.00    -0.275 OA
ATOM      5  N   UNL     1       5.371  10.908   1.172  0.00  0.00    -0.302 N 
ATOM     20  C   UNL     1       5.528  10.632   2.534  0.00  0.00    +0.219 C 
BRANCH   5  24
ATOM     24  C   UNL     1       4.039  10.839   0.581  0.00  0.00    +0.104 C 
ATOM     29  C   UNL     1       3.889   9.622  -0.308  0.00  0.00    +0.024 C 
ENDBRANCH   5  24
BRANCH   5  25
ATOM     25  C   UNL     1       6.429  11.306   0.245  0.00  0.00    +0.104 C 
ATOM     30  C   UNL     1       6.446  12.806   0.035  0.00  0.00    +0.024 C 
ENDBRANCH   5  25
ENDBRANCH  17  20
ENDBRANCH  11  17
TORSDOF 8
ENDMDL
