MODEL 1
REMARK VINA RESULT:      -6.8      0.000      0.000
REMARK  Name = 45783394
REMARK  9 active torsions:
REMARK  status: ('A' for Active; 'I' for Inactive)
REMARK    1  A    between atoms: O_2  and  C_28
REMARK    2  A    between atoms: O_2  and  C_29
REMARK    3  A    between atoms: N_3  and  C_12
REMARK    4  A    between atoms: N_6  and  C_26
REMARK    5  A    between atoms: C_8  and  C_13
REMARK    6  A    between atoms: C_12  and  C_14
REMARK    7  A    between atoms: C_17  and  C_20
REMARK    8  A    between atoms: C_21  and  C_23
REMARK    9  A    between atoms: C_26  and  C_28
REMARK                            x       y       z     vdW  Elec       q    Type
REMARK                         _______ _______ _______ _____ _____    ______ ____
ROOT
ATOM      1  O   UNL     1      11.556   3.084   2.734  0.00  0.00    -0.336 OA
ATOM      4  N   UNL     1      11.910   5.244   2.256  0.00  0.00    -0.190 NA
ATOM      5  N   UNL     1      10.622   3.808   3.487  0.00  0.00    -0.056 NA
ATOM     13  C   UNL     1      12.273   4.006   2.039  0.00  0.00    +0.245 A 
ATOM     17  C   UNL     1      10.893   5.073   3.151  0.00  0.00    +0.205 A 
ENDROOT
BRANCH  17  20
ATOM      6  N   UNL     1      10.710   5.533   5.949  0.00  0.00    -0.326 N 
ATOM      7  N   UNL     1       9.394   7.466   5.591  0.00  0.00    -0.240 NA
ATOM     20  C   UNL     1      10.169   6.187   3.691  0.00  0.00    +0.062 A 
ATOM     22  C   UNL     1      10.069   6.426   5.052  0.00  0.00    +0.130 A 
ATOM     24  C   UNL     1       9.534   7.071   2.827  0.00  0.00    +0.016 A 
ATOM     25  C   UNL     1       8.830   8.154   3.342  0.00  0.00    +0.020 A 
ATOM     27  C   UNL     1       8.789   8.305   4.719  0.00  0.00    +0.113 A 
ATOM     30  H   UNL     1      11.484   4.998   5.569  0.00  0.00    +0.148 HD
BRANCH   6  26
ATOM     26  C   UNL     1      10.663   5.697   7.364  0.00  0.00    +0.131 C 
BRANCH  26  28
ATOM     28  C   UNL     1       9.839   4.586   7.990  0.00  0.00    +0.178 C 
BRANCH  28   2
ATOM      2  O   UNL     1      10.172   4.468   9.368  0.00  0.00    -0.381 OA
ATOM     29  C   UNL     1       9.023   4.600  10.194  0.00  0.00    +0.194 C 
ENDBRANCH  28   2
ENDBRANCH  26  28
ENDBRANCH   6  26
ENDBRANCH  17  20
BRANCH  13   8
ATOM      3  N   UNL     1      13.202   3.901  -0.268  0.00  0.00    -0.287 NA
ATOM      8  C   UNL     1      13.365   3.470   1.135  0.00  0.00    +0.146 C 
ATOM      9  C   UNL     1      14.766   3.965   1.537  0.00  0.00    +0.030 C 
ATOM     10  C   UNL     1      15.337   4.606   0.281  0.00  0.00    +0.017 C 
ATOM     11  C   UNL     1      14.547   3.959  -0.840  0.00  0.00    +0.085 C 
BRANCH   3  12
ATOM     12  C   UNL     1      12.316   3.037  -1.036  0.00  0.00    +0.120 C 
BRANCH  12  14
ATOM     14  C   UNL     1      11.173   3.804  -1.645  0.00  0.00    -0.033 A 
ATOM     15  C   UNL     1      10.587   4.857  -0.943  0.00  0.00    +0.005 A 
ATOM     16  C   UNL     1      10.699   3.459  -2.911  0.00  0.00    +0.005 A 
ATOM     18  C   UNL     1       9.526   5.565  -1.507  0.00  0.00    +0.003 A 
ATOM     19  C   UNL     1       9.637   4.167  -3.475  0.00  0.00    +0.003 A 
ATOM     21  C   UNL     1       9.051   5.221  -2.773  0.00  0.00    -0.050 A 
ATOM     23  C   UNL     1       7.916   5.979  -3.375  0.00  0.00    +0.044 C 
ENDBRANCH  12  14
ENDBRANCH   3  12
ENDBRANCH  13   8
TORSDOF 7
ENDMDL
MODEL 2
REMARK VINA RESULT:      -6.6     13.363     17.952
REMARK  Name = 45783394
REMARK  9 active torsions:
REMARK  status: ('A' for Active; 'I' for Inactive)
REMARK    1  A    between atoms: O_2  and  C_28
REMARK    2  A    between atoms: O_2  and  C_29
REMARK    3  A    between atoms: N_3  and  C_12
REMARK    4  A    between atoms: N_6  and  C_26
REMARK    5  A    between atoms: C_8  and  C_13
REMARK    6  A    between atoms: C_12  and  C_14
REMARK    7  A    between atoms: C_17  and  C_20
REMARK    8  A    between atoms: C_21  and  C_23
REMARK    9  A    between atoms: C_26  and  C_28
REMARK                            x       y       z     vdW  Elec       q    Type
REMARK                         _______ _______ _______ _____ _____    ______ ____
ROOT
ATOM      1  O   UNL     1      12.632   8.465  16.026  0.00  0.00    -0.336 OA
ATOM      4  N   UNL     1      13.521   9.981  17.415  0.00  0.00    -0.190 NA
ATOM      5  N   UNL     1      13.236   9.432  15.212  0.00  0.00    -0.056 NA
ATOM     13  C   UNL     1      12.847   8.865  17.307  0.00  0.00    +0.245 A 
ATOM     17  C   UNL     1      13.738  10.292  16.104  0.00  0.00    +0.205 A 
ENDROOT
BRANCH  17  20
ATOM      6  N   UNL     1      12.821  12.005  14.031  0.00  0.00    -0.326 N 
ATOM      7  N   UNL     1      14.685  13.432  14.323  0.00  0.00    -0.240 NA
ATOM     20  C   UNL     1      14.459  11.471  15.718  0.00  0.00    +0.062 A 
ATOM     22  C   UNL     1      14.027  12.316  14.710  0.00  0.00    +0.130 A 
ATOM     24  C   UNL     1      15.644  11.790  16.373  0.00  0.00    +0.016 A 
ATOM     25  C   UNL     1      16.349  12.930  16.005  0.00  0.00    +0.020 A 
ATOM     27  C   UNL     1      15.833  13.711  14.983  0.00  0.00    +0.113 A 
ATOM     30  H   UNL     1      12.166  11.415  14.533  0.00  0.00    +0.148 HD
BRANCH   6  26
ATOM     26  C   UNL     1      12.298  12.815  12.981  0.00  0.00    +0.131 C 
BRANCH  26  28
ATOM     28  C   UNL     1      11.107  12.126  12.337  0.00  0.00    +0.178 C 
BRANCH  28   2
ATOM      2  O   UNL     1      10.155  11.791  13.339  0.00  0.00    -0.381 OA
ATOM     29  C   UNL     1       9.043  12.675  13.317  0.00  0.00    +0.194 C 
ENDBRANCH  28   2
ENDBRANCH  26  28
ENDBRANCH   6  26
ENDBRANCH  17  20
BRANCH  13   8
ATOM      3  N   UNL     1      13.146   7.929  19.594  0.00  0.00    -0.287 NA
ATOM      8  C   UNL     1      12.284   7.973  18.396  0.00  0.00    +0.146 C 
ATOM      9  C   UNL     1      10.918   8.458  18.912  0.00  0.00    +0.030 C 
ATOM     10  C   UNL     1      11.090   8.599  20.418  0.00  0.00    +0.017 C 
ATOM     11  C   UNL     1      12.258   7.685  20.731  0.00  0.00    +0.085 C 
BRANCH   3  12
ATOM     12  C   UNL     1      14.206   6.934  19.503  0.00  0.00    +0.120 C 
BRANCH  12  14
ATOM     14  C   UNL     1      15.495   7.432  20.101  0.00  0.00    -0.033 A 
ATOM     15  C   UNL     1      15.677   8.796  20.329  0.00  0.00    +0.005 A 
ATOM     16  C   UNL     1      16.508   6.529  20.425  0.00  0.00    +0.005 A 
ATOM     18  C   UNL     1      16.872   9.257  20.880  0.00  0.00    +0.003 A 
ATOM     19  C   UNL     1      17.703   6.990  20.975  0.00  0.00    +0.003 A 
ATOM     21  C   UNL     1      17.886   8.354  21.204  0.00  0.00    -0.050 A 
ATOM     23  C   UNL     1      19.165   8.848  21.792  0.00  0.00    +0.044 C 
ENDBRANCH  12  14
ENDBRANCH   3  12
ENDBRANCH  13   8
TORSDOF 7
ENDMDL
MODEL 3
REMARK VINA RESULT:      -6.6     16.013     20.065
REMARK  Name = 45783394
REMARK  9 active torsions:
REMARK  status: ('A' for Active; 'I' for Inactive)
REMARK    1  A    between atoms: O_2  and  C_28
REMARK    2  A    between atoms: O_2  and  C_29
REMARK    3  A    between atoms: N_3  and  C_12
REMARK    4  A    between atoms: N_6  and  C_26
REMARK    5  A    between atoms: C_8  and  C_13
REMARK    6  A    between atoms: C_12  and  C_14
REMARK    7  A    between atoms: C_17  and  C_20
REMARK    8  A    between atoms: C_21  and  C_23
REMARK    9  A    between atoms: C_26  and  C_28
REMARK                            x       y       z     vdW  Elec       q    Type
REMARK                         _______ _______ _______ _____ _____    ______ ____
ROOT
ATOM      1  O   UNL     1      14.072   6.658  20.207  0.00  0.00    -0.336 OA
ATOM      4  N   UNL     1      15.775   7.658  19.151  0.00  0.00    -0.190 NA
ATOM      5  N   UNL     1      15.179   6.543  21.058  0.00  0.00    -0.056 NA
ATOM     13  C   UNL     1      14.510   7.327  19.108  0.00  0.00    +0.245 A 
ATOM     17  C   UNL     1      16.144   7.156  20.365  0.00  0.00    +0.205 A 
ENDROOT
BRANCH  17  20
ATOM      6  N   UNL     1      17.036   9.497  21.707  0.00  0.00    -0.326 N 
ATOM      7  N   UNL     1      19.194   8.568  21.988  0.00  0.00    -0.240 NA
ATOM     20  C   UNL     1      17.485   7.284  20.858  0.00  0.00    +0.062 A 
ATOM     22  C   UNL     1      17.936   8.418  21.514  0.00  0.00    +0.130 A 
ATOM     24  C   UNL     1      18.381   6.237  20.677  0.00  0.00    +0.016 A 
ATOM     25  C   UNL     1      19.683   6.353  21.151  0.00  0.00    +0.020 A 
ATOM     27  C   UNL     1      20.036   7.529  21.794  0.00  0.00    +0.113 A 
ATOM     30  H   UNL     1      16.048   9.262  21.690  0.00  0.00    +0.148 HD
BRANCH   6  26
ATOM     26  C   UNL     1      17.409  10.702  22.369  0.00  0.00    +0.131 C 
BRANCH  26  28
ATOM     28  C   UNL     1      17.356  11.868  21.398  0.00  0.00    +0.178 C 
BRANCH  28   2
ATOM      2  O   UNL     1      17.862  11.455  20.134  0.00  0.00    -0.381 OA
ATOM     29  C   UNL     1      18.947  12.271  19.715  0.00  0.00    +0.194 C 
ENDBRANCH  28   2
ENDBRANCH  26  28
ENDBRANCH   6  26
ENDBRANCH  17  20
BRANCH  13   8
ATOM      3  N   UNL     1      12.587   8.709  18.343  0.00  0.00    -0.287 NA
ATOM      8  C   UNL     1      13.486   7.583  18.021  0.00  0.00    +0.146 C 
ATOM      9  C   UNL     1      14.130   7.967  16.677  0.00  0.00    +0.030 C 
ATOM     10  C   UNL     1      13.487   9.292  16.293  0.00  0.00    +0.017 C 
ATOM     11  C   UNL     1      12.182   9.292  17.064  0.00  0.00    +0.085 C 
BRANCH   3  12
ATOM     12  C   UNL     1      11.441   8.316  19.153  0.00  0.00    +0.120 C 
BRANCH  12  14
ATOM     14  C   UNL     1      11.391   9.069  20.456  0.00  0.00    -0.033 A 
ATOM     15  C   UNL     1      10.691   8.540  21.540  0.00  0.00    +0.005 A 
ATOM     16  C   UNL     1      12.041  10.297  20.576  0.00  0.00    +0.005 A 
ATOM     18  C   UNL     1      10.642   9.240  22.746  0.00  0.00    +0.003 A 
ATOM     19  C   UNL     1      11.992  10.997  21.782  0.00  0.00    +0.003 A 
ATOM     21  C   UNL     1      11.293  10.468  22.867  0.00  0.00    -0.050 A 
ATOM     23  C   UNL     1      11.239  11.216  24.157  0.00  0.00    +0.044 C 
ENDBRANCH  12  14
ENDBRANCH   3  12
ENDBRANCH  13   8
TORSDOF 7
ENDMDL
MODEL 4
REMARK VINA RESULT:      -6.5     22.772     25.269
REMARK  Name = 45783394
REMARK  9 active torsions:
REMARK  status: ('A' for Active; 'I' for Inactive)
REMARK    1  A    between atoms: O_2  and  C_28
REMARK    2  A    between atoms: O_2  and  C_29
REMARK    3  A    between atoms: N_3  and  C_12
REMARK    4  A    between atoms: N_6  and  C_26
REMARK    5  A    between atoms: C_8  and  C_13
REMARK    6  A    between atoms: C_12  and  C_14
REMARK    7  A    between atoms: C_17  and  C_20
REMARK    8  A    between atoms: C_21  and  C_23
REMARK    9  A    between atoms: C_26  and  C_28
REMARK                            x       y       z     vdW  Elec       q    Type
REMARK                         _______ _______ _______ _____ _____    ______ ____
ROOT
ATOM      1  O   UNL     1      -7.553 -10.334  11.652  0.00  0.00    -0.336 OA
ATOM      4  N   UNL     1      -5.833  -9.148  12.461  0.00  0.00    -0.190 NA
ATOM      5  N   UNL     1      -7.369 -10.764  12.973  0.00  0.00    -0.056 NA
ATOM     13  C   UNL     1      -6.608  -9.383  11.433  0.00  0.00    +0.245 A 
ATOM     17  C   UNL     1      -6.338 -10.019  13.382  0.00  0.00    +0.205 A 
ENDROOT
BRANCH  17  20
ATOM      6  N   UNL     1      -7.844  -9.335  15.693  0.00  0.00    -0.326 N 
ATOM      7  N   UNL     1      -6.019  -9.875  17.098  0.00  0.00    -0.240 NA
ATOM     20  C   UNL     1      -5.789 -10.121  14.704  0.00  0.00    +0.062 A 
ATOM     22  C   UNL     1      -6.509  -9.791  15.841  0.00  0.00    +0.130 A 
ATOM     24  C   UNL     1      -4.482 -10.565  14.867  0.00  0.00    +0.016 A 
ATOM     25  C   UNL     1      -3.942 -10.666  16.144  0.00  0.00    +0.020 A 
ATOM     27  C   UNL     1      -4.744 -10.312  17.217  0.00  0.00    +0.113 A 
ATOM     30  H   UNL     1      -8.316  -9.608  14.837  0.00  0.00    +0.148 HD
BRANCH   6  26
ATOM     26  C   UNL     1      -8.661  -8.973  16.803  0.00  0.00    +0.131 C 
BRANCH  26  28
ATOM     28  C   UNL     1      -9.974  -8.388  16.313  0.00  0.00    +0.178 C 
BRANCH  28   2
ATOM      2  O   UNL     1      -9.773  -7.035  15.922  0.00  0.00    -0.381 OA
ATOM     29  C   UNL     1     -10.989  -6.300  15.943  0.00  0.00    +0.194 C 
ENDBRANCH  28   2
ENDBRANCH  26  28
ENDBRANCH   6  26
ENDBRANCH  17  20
BRANCH  13   8
ATOM      3  N   UNL     1      -5.898  -9.583   9.055  0.00  0.00    -0.287 NA
ATOM      8  C   UNL     1      -6.595  -8.750  10.056  0.00  0.00    +0.146 C 
ATOM      9  C   UNL     1      -8.009  -8.546   9.483  0.00  0.00    +0.030 C 
ATOM     10  C   UNL     1      -7.994  -9.247   8.132  0.00  0.00    +0.017 C 
ATOM     11  C   UNL     1      -6.524  -9.286   7.766  0.00  0.00    +0.085 C 
BRANCH   3  12
ATOM     12  C   UNL     1      -4.458  -9.366   9.029  0.00  0.00    +0.120 C 
BRANCH  12  14
ATOM     14  C   UNL     1      -3.749 -10.184  10.075  0.00  0.00    -0.033 A 
ATOM     15  C   UNL     1      -4.097 -11.521  10.269  0.00  0.00    +0.005 A 
ATOM     16  C   UNL     1      -2.746  -9.603  10.852  0.00  0.00    +0.005 A 
ATOM     18  C   UNL     1      -3.441 -12.277  11.240  0.00  0.00    +0.003 A 
ATOM     19  C   UNL     1      -2.091 -10.360  11.823  0.00  0.00    +0.003 A 
ATOM     21  C   UNL     1      -2.437 -11.697  12.018  0.00  0.00    -0.050 A 
ATOM     23  C   UNL     1      -1.737 -12.507  13.057  0.00  0.00    +0.044 C 
ENDBRANCH  12  14
ENDBRANCH   3  12
ENDBRANCH  13   8
TORSDOF 7
ENDMDL
MODEL 5
REMARK VINA RESULT:      -6.5     18.359     21.250
REMARK  Name = 45783394
REMARK  9 active torsions:
REMARK  status: ('A' for Active; 'I' for Inactive)
REMARK    1  A    between atoms: O_2  and  C_28
REMARK    2  A    between atoms: O_2  and  C_29
REMARK    3  A    between atoms: N_3  and  C_12
REMARK    4  A    between atoms: N_6  and  C_26
REMARK    5  A    between atoms: C_8  and  C_13
REMARK    6  A    between atoms: C_12  and  C_14
REMARK    7  A    between atoms: C_17  and  C_20
REMARK    8  A    between atoms: C_21  and  C_23
REMARK    9  A    between atoms: C_26  and  C_28
REMARK                            x       y       z     vdW  Elec       q    Type
REMARK                         _______ _______ _______ _____ _____    ______ ____
ROOT
ATOM      1  O   UNL     1      12.530  11.133  19.989  0.00  0.00    -0.336 OA
ATOM      4  N   UNL     1      11.317  10.787  21.840  0.00  0.00    -0.190 NA
ATOM      5  N   UNL     1      12.455  12.370  20.643  0.00  0.00    -0.056 NA
ATOM     13  C   UNL     1      11.834  10.258  20.762  0.00  0.00    +0.245 A 
ATOM     17  C   UNL     1      11.724  12.085  21.724  0.00  0.00    +0.205 A 
ENDROOT
BRANCH  17  20
ATOM      6  N   UNL     1      13.416  12.654  23.935  0.00  0.00    -0.326 N 
ATOM      7  N   UNL     1      11.901  14.286  24.733  0.00  0.00    -0.240 NA
ATOM     20  C   UNL     1      11.383  13.073  22.707  0.00  0.00    +0.062 A 
ATOM     22  C   UNL     1      12.196  13.362  23.791  0.00  0.00    +0.130 A 
ATOM     24  C   UNL     1      10.190  13.776  22.582  0.00  0.00    +0.016 A 
ATOM     25  C   UNL     1       9.852  14.735  23.530  0.00  0.00    +0.020 A 
ATOM     27  C   UNL     1      10.733  14.950  24.578  0.00  0.00    +0.113 A 
ATOM     30  H   UNL     1      13.802  12.252  23.086  0.00  0.00    +0.148 HD
BRANCH   6  26
ATOM     26  C   UNL     1      14.317  12.883  25.015  0.00  0.00    +0.131 C 
BRANCH  26  28
ATOM     28  C   UNL     1      14.366  11.663  25.919  0.00  0.00    +0.178 C 
BRANCH  28   2
ATOM      2  O   UNL     1      14.550  12.080  27.267  0.00  0.00    -0.381 OA
ATOM     29  C   UNL     1      14.126  13.423  27.459  0.00  0.00    +0.194 C 
ENDBRANCH  28   2
ENDBRANCH  26  28
ENDBRANCH   6  26
ENDBRANCH  17  20
BRANCH  13   8
ATOM      3  N   UNL     1      13.032   8.095  20.468  0.00  0.00    -0.287 NA
ATOM      8  C   UNL     1      11.765   8.827  20.266  0.00  0.00    +0.146 C 
ATOM      9  C   UNL     1      10.706   7.992  21.007  0.00  0.00    +0.030 C 
ATOM     10  C   UNL     1      11.457   6.781  21.541  0.00  0.00    +0.017 C 
ATOM     11  C   UNL     1      12.671   6.687  20.637  0.00  0.00    +0.085 C 
BRANCH   3  12
ATOM     12  C   UNL     1      13.987   8.290  19.386  0.00  0.00    +0.120 C 
BRANCH  12  14
ATOM     14  C   UNL     1      15.345   7.737  19.732  0.00  0.00    -0.033 A 
ATOM     15  C   UNL     1      16.101   8.327  20.745  0.00  0.00    +0.005 A 
ATOM     16  C   UNL     1      15.847   6.637  19.036  0.00  0.00    +0.005 A 
ATOM     18  C   UNL     1      17.359   7.816  21.062  0.00  0.00    +0.003 A 
ATOM     19  C   UNL     1      17.106   6.127  19.353  0.00  0.00    +0.003 A 
ATOM     21  C   UNL     1      17.862   6.716  20.366  0.00  0.00    -0.050 A 
ATOM     23  C   UNL     1      19.209   6.171  20.706  0.00  0.00    +0.044 C 
ENDBRANCH  12  14
ENDBRANCH   3  12
ENDBRANCH  13   8
TORSDOF 7
ENDMDL
MODEL 6
REMARK VINA RESULT:      -6.4     15.602     20.351
REMARK  Name = 45783394
REMARK  9 active torsions:
REMARK  status: ('A' for Active; 'I' for Inactive)
REMARK    1  A    between atoms: O_2  and  C_28
REMARK    2  A    between atoms: O_2  and  C_29
REMARK    3  A    between atoms: N_3  and  C_12
REMARK    4  A    between atoms: N_6  and  C_26
REMARK    5  A    between atoms: C_8  and  C_13
REMARK    6  A    between atoms: C_12  and  C_14
REMARK    7  A    between atoms: C_17  and  C_20
REMARK    8  A    between atoms: C_21  and  C_23
REMARK    9  A    between atoms: C_26  and  C_28
REMARK                            x       y       z     vdW  Elec       q    Type
REMARK                         _______ _______ _______ _____ _____    ______ ____
ROOT
ATOM      1  O   UNL     1      15.046  10.440  22.501  0.00  0.00    -0.336 OA
ATOM      4  N   UNL     1      15.538  10.290  20.321  0.00  0.00    -0.190 NA
ATOM      5  N   UNL     1      15.509   9.134  22.295  0.00  0.00    -0.056 NA
ATOM     13  C   UNL     1      15.096  11.052  21.289  0.00  0.00    +0.245 A 
ATOM     17  C   UNL     1      15.779   9.123  20.986  0.00  0.00    +0.205 A 
ENDROOT
BRANCH  17  20
ATOM      6  N   UNL     1      14.339   7.841  18.899  0.00  0.00    -0.326 N 
ATOM      7  N   UNL     1      16.054   6.232  18.641  0.00  0.00    -0.240 NA
ATOM     20  C   UNL     1      16.289   7.963  20.313  0.00  0.00    +0.062 A 
ATOM     22  C   UNL     1      15.600   7.326  19.293  0.00  0.00    +0.130 A 
ATOM     24  C   UNL     1      17.523   7.445  20.688  0.00  0.00    +0.016 A 
ATOM     25  C   UNL     1      18.025   6.322  20.040  0.00  0.00    +0.020 A 
ATOM     27  C   UNL     1      17.259   5.757  19.033  0.00  0.00    +0.113 A 
ATOM     30  H   UNL     1      14.171   8.820  19.109  0.00  0.00    +0.148 HD
BRANCH   6  26
ATOM     26  C   UNL     1      13.558   7.254  17.861  0.00  0.00    +0.131 C 
BRANCH  26  28
ATOM     28  C   UNL     1      12.988   8.337  16.961  0.00  0.00    +0.178 C 
BRANCH  28   2
ATOM      2  O   UNL     1      13.814   8.480  15.812  0.00  0.00    -0.381 OA
ATOM     29  C   UNL     1      14.135   9.842  15.566  0.00  0.00    +0.194 C 
ENDBRANCH  28   2
ENDBRANCH  26  28
ENDBRANCH   6  26
ENDBRANCH  17  20
BRANCH  13   8
ATOM      3  N   UNL     1      13.391  12.721  21.998  0.00  0.00    -0.287 NA
ATOM      8  C   UNL     1      14.640  12.496  21.243  0.00  0.00    +0.146 C 
ATOM      9  C   UNL     1      15.660  13.461  21.875  0.00  0.00    +0.030 C 
ATOM     10  C   UNL     1      14.878  14.228  22.932  0.00  0.00    +0.017 C 
ATOM     11  C   UNL     1      13.440  14.105  22.471  0.00  0.00    +0.085 C 
BRANCH   3  12
ATOM     12  C   UNL     1      12.191  12.451  21.217  0.00  0.00    +0.120 C 
BRANCH  12  14
ATOM     14  C   UNL     1      11.708  11.038  21.402  0.00  0.00    -0.033 A 
ATOM     15  C   UNL     1      11.189  10.633  22.633  0.00  0.00    +0.005 A 
ATOM     16  C   UNL     1      11.782  10.131  20.344  0.00  0.00    +0.005 A 
ATOM     18  C   UNL     1      10.744   9.323  22.805  0.00  0.00    +0.003 A 
ATOM     19  C   UNL     1      11.337   8.820  20.517  0.00  0.00    +0.003 A 
ATOM     21  C   UNL     1      10.818   8.416  21.746  0.00  0.00    -0.050 A 
ATOM     23  C   UNL     1      10.343   7.014  21.932  0.00  0.00    +0.044 C 
ENDBRANCH  12  14
ENDBRANCH   3  12
ENDBRANCH  13   8
TORSDOF 7
ENDMDL
MODEL 7
REMARK VINA RESULT:      -6.4     22.712     27.435
REMARK  Name = 45783394
REMARK  9 active torsions:
REMARK  status: ('A' for Active; 'I' for Inactive)
REMARK    1  A    between atoms: O_2  and  C_28
REMARK    2  A    between atoms: O_2  and  C_29
REMARK    3  A    between atoms: N_3  and  C_12
REMARK    4  A    between atoms: N_6  and  C_26
REMARK    5  A    between atoms: C_8  and  C_13
REMARK    6  A    between atoms: C_12  and  C_14
REMARK    7  A    between atoms: C_17  and  C_20
REMARK    8  A    between atoms: C_21  and  C_23
REMARK    9  A    between atoms: C_26  and  C_28
REMARK                            x       y       z     vdW  Elec       q    Type
REMARK                         _______ _______ _______ _____ _____    ______ ____
ROOT
ATOM      1  O   UNL     1      -7.357 -11.444  13.987  0.00  0.00    -0.336 OA
ATOM      4  N   UNL     1      -6.282 -10.129  15.448  0.00  0.00    -0.190 NA
ATOM      5  N   UNL     1      -5.990 -11.620  13.737  0.00  0.00    -0.056 NA
ATOM     13  C   UNL     1      -7.440 -10.551  15.009  0.00  0.00    +0.245 A 
ATOM     17  C   UNL     1      -5.422 -10.812  14.638  0.00  0.00    +0.205 A 
ENDROOT
BRANCH  17  20
ATOM      6  N   UNL     1      -3.773 -10.318  12.377  0.00  0.00    -0.326 N 
ATOM      7  N   UNL     1      -1.839 -10.281  13.739  0.00  0.00    -0.240 NA
ATOM     20  C   UNL     1      -3.999 -10.665  14.753  0.00  0.00    +0.062 A 
ATOM     22  C   UNL     1      -3.181 -10.424  13.661  0.00  0.00    +0.130 A 
ATOM     24  C   UNL     1      -3.403 -10.766  16.005  0.00  0.00    +0.016 A 
ATOM     25  C   UNL     1      -2.025 -10.624  16.125  0.00  0.00    +0.020 A 
ATOM     27  C   UNL     1      -1.294 -10.386  14.972  0.00  0.00    +0.113 A 
ATOM     30  H   UNL     1      -4.756 -10.065  12.358  0.00  0.00    +0.148 HD
BRANCH   6  26
ATOM     26  C   UNL     1      -3.013 -10.072  11.197  0.00  0.00    +0.131 C 
BRANCH  26  28
ATOM     28  C   UNL     1      -3.887  -9.416  10.142  0.00  0.00    +0.178 C 
BRANCH  28   2
ATOM      2  O   UNL     1      -4.144 -10.346   9.096  0.00  0.00    -0.381 OA
ATOM     29  C   UNL     1      -5.040  -9.810   8.132  0.00  0.00    +0.194 C 
ENDBRANCH  28   2
ENDBRANCH  26  28
ENDBRANCH   6  26
ENDBRANCH  17  20
BRANCH  13   8
ATOM      3  N   UNL     1      -8.849  -9.642  16.848  0.00  0.00    -0.287 NA
ATOM      8  C   UNL     1      -8.835 -10.188  15.475  0.00  0.00    +0.146 C 
ATOM      9  C   UNL     1      -9.484  -9.092  14.611  0.00  0.00    +0.030 C 
ATOM     10  C   UNL     1      -9.886  -7.998  15.590  0.00  0.00    +0.017 C 
ATOM     11  C   UNL     1      -9.989  -8.728  16.915  0.00  0.00    +0.085 C 
BRANCH   3  12
ATOM     12  C   UNL     1      -8.912 -10.673  17.875  0.00  0.00    +0.120 C 
BRANCH  12  14
ATOM     14  C   UNL     1      -7.540 -11.115  18.310  0.00  0.00    -0.033 A 
ATOM     15  C   UNL     1      -6.712 -10.235  19.007  0.00  0.00    +0.005 A 
ATOM     16  C   UNL     1      -7.096 -12.404  18.014  0.00  0.00    +0.005 A 
ATOM     18  C   UNL     1      -5.441 -10.644  19.408  0.00  0.00    +0.003 A 
ATOM     19  C   UNL     1      -5.824 -12.813  18.414  0.00  0.00    +0.003 A 
ATOM     21  C   UNL     1      -4.996 -11.933  19.112  0.00  0.00    -0.050 A 
ATOM     23  C   UNL     1      -3.635 -12.369  19.540  0.00  0.00    +0.044 C 
ENDBRANCH  12  14
ENDBRANCH   3  12
ENDBRANCH  13   8
TORSDOF 7
ENDMDL
MODEL 8
REMARK VINA RESULT:      -6.4     18.371     21.314
REMARK  Name = 45783394
REMARK  9 active torsions:
REMARK  status: ('A' for Active; 'I' for Inactive)
REMARK    1  A    between atoms: O_2  and  C_28
REMARK    2  A    between atoms: O_2  and  C_29
REMARK    3  A    between atoms: N_3  and  C_12
REMARK    4  A    between atoms: N_6  and  C_26
REMARK    5  A    between atoms: C_8  and  C_13
REMARK    6  A    between atoms: C_12  and  C_14
REMARK    7  A    between atoms: C_17  and  C_20
REMARK    8  A    between atoms: C_21  and  C_23
REMARK    9  A    between atoms: C_26  and  C_28
REMARK                            x       y       z     vdW  Elec       q    Type
REMARK                         _______ _______ _______ _____ _____    ______ ____
ROOT
ATOM      1  O   UNL     1      12.224  11.087  20.486  0.00  0.00    -0.336 OA
ATOM      4  N   UNL     1      11.622  10.374  22.523  0.00  0.00    -0.190 NA
ATOM      5  N   UNL     1      12.297  12.205  21.328  0.00  0.00    -0.056 NA
ATOM     13  C   UNL     1      11.820  10.053  21.270  0.00  0.00    +0.245 A 
ATOM     17  C   UNL     1      11.927  11.704  22.511  0.00  0.00    +0.205 A 
ENDROOT
BRANCH  17  20
ATOM      6  N   UNL     1      14.193  13.064  23.553  0.00  0.00    -0.326 N 
ATOM      7  N   UNL     1      12.907  13.936  25.337  0.00  0.00    -0.240 NA
ATOM     20  C   UNL     1      11.852  12.506  23.698  0.00  0.00    +0.062 A 
ATOM     22  C   UNL     1      12.947  13.175  24.220  0.00  0.00    +0.130 A 
ATOM     24  C   UNL     1      10.637  12.624  24.365  0.00  0.00    +0.016 A 
ATOM     25  C   UNL     1      10.556  13.399  25.517  0.00  0.00    +0.020 A 
ATOM     27  C   UNL     1      11.709  14.029  25.958  0.00  0.00    +0.113 A 
ATOM     30  H   UNL     1      14.153  12.818  22.569  0.00  0.00    +0.148 HD
BRANCH   6  26
ATOM     26  C   UNL     1      15.374  13.716  24.014  0.00  0.00    +0.131 C 
BRANCH  26  28
ATOM     28  C   UNL     1      16.548  12.754  23.977  0.00  0.00    +0.178 C 
BRANCH  28   2
ATOM      2  O   UNL     1      16.196  11.607  23.212  0.00  0.00    -0.381 OA
ATOM     29  C   UNL     1      17.070  11.430  22.105  0.00  0.00    +0.194 C 
ENDBRANCH  28   2
ENDBRANCH  26  28
ENDBRANCH   6  26
ENDBRANCH  17  20
BRANCH  13   8
ATOM      3  N   UNL     1      12.901   7.904  20.629  0.00  0.00    -0.287 NA
ATOM      8  C   UNL     1      11.664   8.709  20.587  0.00  0.00    +0.146 C 
ATOM      9  C   UNL     1      10.596   7.824  21.254  0.00  0.00    +0.030 C 
ATOM     10  C   UNL     1      11.309   6.520  21.582  0.00  0.00    +0.017 C 
ATOM     11  C   UNL     1      12.480   6.503  20.620  0.00  0.00    +0.085 C 
BRANCH   3  12
ATOM     12  C   UNL     1      13.822   8.207  19.542  0.00  0.00    +0.120 C 
BRANCH  12  14
ATOM     14  C   UNL     1      15.197   7.652  19.802  0.00  0.00    -0.033 A 
ATOM     15  C   UNL     1      15.713   6.652  18.979  0.00  0.00    +0.005 A 
ATOM     16  C   UNL     1      15.954   8.138  20.869  0.00  0.00    +0.005 A 
ATOM     18  C   UNL     1      16.986   6.136  19.222  0.00  0.00    +0.003 A 
ATOM     19  C   UNL     1      17.227   7.622  21.112  0.00  0.00    +0.003 A 
ATOM     21  C   UNL     1      17.744   6.622  20.288  0.00  0.00    -0.050 A 
ATOM     23  C   UNL     1      19.105   6.070  20.548  0.00  0.00    +0.044 C 
ENDBRANCH  12  14
ENDBRANCH   3  12
ENDBRANCH  13   8
TORSDOF 7
ENDMDL
MODEL 9
REMARK VINA RESULT:      -6.3     23.020     26.513
REMARK  Name = 45783394
REMARK  9 active torsions:
REMARK  status: ('A' for Active; 'I' for Inactive)
REMARK    1  A    between atoms: O_2  and  C_28
REMARK    2  A    between atoms: O_2  and  C_29
REMARK    3  A    between atoms: N_3  and  C_12
REMARK    4  A    between atoms: N_6  and  C_26
REMARK    5  A    between atoms: C_8  and  C_13
REMARK    6  A    between atoms: C_12  and  C_14
REMARK    7  A    between atoms: C_17  and  C_20
REMARK    8  A    between atoms: C_21  and  C_23
REMARK    9  A    between atoms: C_26  and  C_28
REMARK                            x       y       z     vdW  Elec       q    Type
REMARK                         _______ _______ _______ _____ _____    ______ ____
ROOT
ATOM      1  O   UNL     1      -4.999  -9.673  15.912  0.00  0.00    -0.336 OA
ATOM      4  N   UNL     1      -5.181 -11.602  17.037  0.00  0.00    -0.190 NA
ATOM      5  N   UNL     1      -6.195  -9.591  16.637  0.00  0.00    -0.056 NA
ATOM     13  C   UNL     1      -4.466 -10.888  16.206  0.00  0.00    +0.245 A 
ATOM     17  C   UNL     1      -6.233 -10.765  17.274  0.00  0.00    +0.205 A 
ENDROOT
BRANCH  17  20
ATOM      6  N   UNL     1      -8.572  -9.174  17.538  0.00  0.00    -0.326 N 
ATOM      7  N   UNL     1      -9.479 -10.688  19.114  0.00  0.00    -0.240 NA
ATOM     20  C   UNL     1      -7.306 -11.132  18.153  0.00  0.00    +0.062 A 
ATOM     22  C   UNL     1      -8.452 -10.368  18.294  0.00  0.00    +0.130 A 
ATOM     24  C   UNL     1      -7.205 -12.300  18.901  0.00  0.00    +0.016 A 
ATOM     25  C   UNL     1      -8.240 -12.663  19.755  0.00  0.00    +0.020 A 
ATOM     27  C   UNL     1      -9.345 -11.830  19.826  0.00  0.00    +0.113 A 
ATOM     30  H   UNL     1      -8.011  -9.122  16.694  0.00  0.00    +0.148 HD
BRANCH   6  26
ATOM     26  C   UNL     1      -9.713  -8.324  17.617  0.00  0.00    +0.131 C 
BRANCH  26  28
ATOM     28  C   UNL     1      -9.955  -7.652  16.277  0.00  0.00    +0.178 C 
BRANCH  28   2
ATOM      2  O   UNL     1     -11.173  -6.918  16.329  0.00  0.00    -0.381 OA
ATOM     29  C   UNL     1     -11.233  -5.936  15.304  0.00  0.00    +0.194 C 
ENDBRANCH  28   2
ENDBRANCH  26  28
ENDBRANCH   6  26
ENDBRANCH  17  20
BRANCH  13   8
ATOM      3  N   UNL     1      -2.987 -10.557  14.232  0.00  0.00    -0.287 NA
ATOM      8  C   UNL     1      -3.148 -11.226  15.538  0.00  0.00    +0.146 C 
ATOM      9  C   UNL     1      -1.931 -10.773  16.364  0.00  0.00    +0.030 C 
ATOM     10  C   UNL     1      -1.111  -9.904  15.421  0.00  0.00    +0.017 C 
ATOM     11  C   UNL     1      -1.548 -10.362  14.044  0.00  0.00    +0.085 C 
BRANCH   3  12
ATOM     12  C   UNL     1      -3.588 -11.295  13.129  0.00  0.00    +0.120 C 
BRANCH  12  14
ATOM     14  C   UNL     1      -4.236 -10.377  12.128  0.00  0.00    -0.033 A 
ATOM     15  C   UNL     1      -3.552 -10.016  10.967  0.00  0.00    +0.005 A 
ATOM     16  C   UNL     1      -5.521  -9.885  12.362  0.00  0.00    +0.005 A 
ATOM     18  C   UNL     1      -4.151  -9.163  10.041  0.00  0.00    +0.003 A 
ATOM     19  C   UNL     1      -6.121  -9.032  11.435  0.00  0.00    +0.003 A 
ATOM     21  C   UNL     1      -5.437  -8.672  10.274  0.00  0.00    -0.050 A 
ATOM     23  C   UNL     1      -6.077  -7.759   9.283  0.00  0.00    +0.044 C 
ENDBRANCH  12  14
ENDBRANCH   3  12
ENDBRANCH  13   8
TORSDOF 7
ENDMDL
MODEL 10
REMARK VINA RESULT:      -6.2     13.979     18.589
REMARK  Name = 45783394
REMARK  9 active torsions:
REMARK  status: ('A' for Active; 'I' for Inactive)
REMARK    1  A    between atoms: O_2  and  C_28
REMARK    2  A    between atoms: O_2  and  C_29
REMARK    3  A    between atoms: N_3  and  C_12
REMARK    4  A    between atoms: N_6  and  C_26
REMARK    5  A    between atoms: C_8  and  C_13
REMARK    6  A    between atoms: C_12  and  C_14
REMARK    7  A    between atoms: C_17  and  C_20
REMARK    8  A    between atoms: C_21  and  C_23
REMARK    9  A    between atoms: C_26  and  C_28
REMARK                            x       y       z     vdW  Elec       q    Type
REMARK                         _______ _______ _______ _____ _____    ______ ____
ROOT
ATOM      1  O   UNL     1      12.977  10.982  19.445  0.00  0.00    -0.336 OA
ATOM      4  N   UNL     1      14.302  10.345  17.754  0.00  0.00    -0.190 NA
ATOM      5  N   UNL     1      13.749  12.102  19.111  0.00  0.00    -0.056 NA
ATOM     13  C   UNL     1      13.366   9.992  18.598  0.00  0.00    +0.245 A 
ATOM     17  C   UNL     1      14.505  11.648  18.107  0.00  0.00    +0.205 A 
ENDROOT
BRANCH  17  20
ATOM      6  N   UNL     1      13.948  12.893  15.615  0.00  0.00    -0.326 N 
ATOM      7  N   UNL     1      16.106  13.861  15.564  0.00  0.00    -0.240 NA
ATOM     20  C   UNL     1      15.471  12.468  17.436  0.00  0.00    +0.062 A 
ATOM     22  C   UNL     1      15.216  13.083  16.220  0.00  0.00    +0.130 A 
ATOM     24  C   UNL     1      16.720  12.664  18.015  0.00  0.00    +0.016 A 
ATOM     25  C   UNL     1      17.662  13.458  17.371  0.00  0.00    +0.020 A 
ATOM     27  C   UNL     1      17.310  14.028  16.158  0.00  0.00    +0.113 A 
ATOM     30  H   UNL     1      13.189  12.636  16.238  0.00  0.00    +0.148 HD
BRANCH   6  26
ATOM     26  C   UNL     1      13.594  13.484  14.367  0.00  0.00    +0.131 C 
BRANCH  26  28
ATOM     28  C   UNL     1      13.449  12.410  13.304  0.00  0.00    +0.178 C 
BRANCH  28   2
ATOM      2  O   UNL     1      12.324  11.593  13.607  0.00  0.00    -0.381 OA
ATOM     29  C   UNL     1      11.186  11.970  12.844  0.00  0.00    +0.194 C 
ENDBRANCH  28   2
ENDBRANCH  26  28
ENDBRANCH   6  26
ENDBRANCH  17  20
BRANCH  13   8
ATOM      3  N   UNL     1      13.456   7.698  19.558  0.00  0.00    -0.287 NA
ATOM      8  C   UNL     1      12.669   8.656  18.757  0.00  0.00    +0.146 C 
ATOM      9  C   UNL     1      11.323   8.772  19.494  0.00  0.00    +0.030 C 
ATOM     10  C   UNL     1      11.423   7.798  20.659  0.00  0.00    +0.017 C 
ATOM     11  C   UNL     1      12.489   6.817  20.213  0.00  0.00    +0.085 C 
BRANCH   3  12
ATOM     12  C   UNL     1      14.430   6.953  18.771  0.00  0.00    +0.120 C 
BRANCH  12  14
ATOM     14  C   UNL     1      15.771   6.889  19.453  0.00  0.00    -0.033 A 
ATOM     15  C   UNL     1      16.039   7.717  20.544  0.00  0.00    +0.005 A 
ATOM     16  C   UNL     1      16.746   6.004  18.992  0.00  0.00    +0.005 A 
ATOM     18  C   UNL     1      17.282   7.659  21.173  0.00  0.00    +0.003 A 
ATOM     19  C   UNL     1      17.989   5.947  19.621  0.00  0.00    +0.003 A 
ATOM     21  C   UNL     1      18.258   6.774  20.712  0.00  0.00    -0.050 A 
ATOM     23  C   UNL     1      19.588   6.714  21.385  0.00  0.00    +0.044 C 
ENDBRANCH  12  14
ENDBRANCH   3  12
ENDBRANCH  13   8
TORSDOF 7
ENDMDL
