MODEL 1
REMARK VINA RESULT:      -7.5      0.000      0.000
REMARK  Name = 45360675
REMARK  9 active torsions:
REMARK  status: ('A' for Active; 'I' for Inactive)
REMARK    1  A    between atoms: N_4  and  C_9
REMARK    2  A    between atoms: N_4  and  C_17
REMARK    3  A    between atoms: N_6  and  C_26
REMARK    4  A    between atoms: N_7  and  C_25
REMARK    5  A    between atoms: C_11  and  C_15
REMARK    6  A    between atoms: C_15  and  C_16
REMARK    7  A    between atoms: C_16  and  C_19
REMARK    8  A    between atoms: C_17  and  C_18
REMARK    9  A    between atoms: C_25  and  C_29
REMARK                            x       y       z     vdW  Elec       q    Type
REMARK                         _______ _______ _______ _____ _____    ______ ____
ROOT
ATOM      1  O   UNL     1      12.561  14.060  24.988  0.00  0.00    -0.274 OA
ATOM      3  N   UNL     1      12.544  10.760  23.429  0.00  0.00    -0.286 NA
ATOM      5  N   UNL     1      11.315  13.276  23.255  0.00  0.00    -0.313 N 
ATOM      8  C   UNL     1      12.796  11.719  24.512  0.00  0.00    +0.145 C 
ATOM      9  C   UNL     1      14.836  10.824  23.546  0.00  0.00    +0.070 C 
ATOM     10  C   UNL     1      14.326  11.764  24.640  0.00  0.00    +0.048 C 
ATOM     11  C   UNL     1      11.218  10.862  22.833  0.00  0.00    +0.075 C 
ATOM     12  C   UNL     1      13.698  10.808  22.535  0.00  0.00    +0.104 C 
ATOM     13  C   UNL     1      10.975  12.258  22.286  0.00  0.00    +0.123 C 
ATOM     14  C   UNL     1      12.236  13.116  24.261  0.00  0.00    +0.230 C 
ATOM     36  H   UNL     1      10.933  14.206  23.112  0.00  0.00    +0.149 HD
ENDROOT
BRANCH   9   4
ATOM      4  N   UNL     1      16.109  11.243  22.981  0.00  0.00    -0.308 NA
ATOM     35  H   UNL     1      16.143  12.263  22.961  0.00  0.00    +0.123 HD
BRANCH   4  17
ATOM     17  C   UNL     1      16.271  10.737  21.624  0.00  0.00    +0.118 C 
BRANCH  17  18
ATOM      6  N   UNL     1      19.230   8.566  21.828  0.00  0.00    -0.349 N 
ATOM     18  C   UNL     1      17.327   9.672  21.545  0.00  0.00    -0.008 A 
ATOM     20  C   UNL     1      17.229   8.433  20.852  0.00  0.00    +0.004 A 
ATOM     21  C   UNL     1      18.568   9.724  22.135  0.00  0.00    +0.091 A 
ATOM     22  C   UNL     1      18.436   7.759  21.045  0.00  0.00    +0.049 A 
ATOM     23  C   UNL     1      16.226   7.819  20.076  0.00  0.00    +0.010 A 
ATOM     24  C   UNL     1      18.693   6.496  20.499  0.00  0.00    +0.026 A 
ATOM     26  C   UNL     1      20.573   8.253  22.269  0.00  0.00    +0.149 C 
ATOM     27  C   UNL     1      16.468   6.555  19.524  0.00  0.00    +0.001 A 
ATOM     28  C   UNL     1      17.682   5.906  19.734  0.00  0.00    +0.002 A 
ENDBRANCH  17  18
ENDBRANCH   4  17
ENDBRANCH   9   4
BRANCH  11  15
ATOM     15  C   UNL     1      10.967   9.801  21.761  0.00  0.00    +0.029 C 
BRANCH  15  16
ATOM     16  C   UNL     1      11.052   8.397  22.343  0.00  0.00    +0.097 C 
BRANCH  16  19
ATOM      2  O   UNL     1      10.937   6.210  21.311  0.00  0.00    -0.276 OA
ATOM      7  N   UNL     1      12.214   7.868  20.306  0.00  0.00    -0.311 N 
ATOM     19  C   UNL     1      11.374   7.357  21.285  0.00  0.00    +0.213 C 
ATOM     37  H   UNL     1      12.555   8.822  20.374  0.00  0.00    +0.149 HD
BRANCH   7  25
ATOM     25  C   UNL     1      12.667   7.073  19.188  0.00  0.00    +0.139 C 
BRANCH  25  29
ATOM     29  C   UNL     1      12.707   7.866  17.914  0.00  0.00    -0.030 A 
ATOM     30  C   UNL     1      13.914   8.039  17.238  0.00  0.00    +0.005 A 
ATOM     31  C   UNL     1      11.536   8.429  17.406  0.00  0.00    +0.005 A 
ATOM     32  C   UNL     1      13.951   8.776  16.054  0.00  0.00    +0.000 A 
ATOM     33  C   UNL     1      11.573   9.166  16.222  0.00  0.00    +0.000 A 
ATOM     34  C   UNL     1      12.780   9.339  15.547  0.00  0.00    +0.000 A 
ENDBRANCH  25  29
ENDBRANCH   7  25
ENDBRANCH  16  19
ENDBRANCH  15  16
ENDBRANCH  11  15
TORSDOF 8
ENDMDL
MODEL 2
REMARK VINA RESULT:      -7.1     26.863     30.274
REMARK  Name = 45360675
REMARK  9 active torsions:
REMARK  status: ('A' for Active; 'I' for Inactive)
REMARK    1  A    between atoms: N_4  and  C_9
REMARK    2  A    between atoms: N_4  and  C_17
REMARK    3  A    between atoms: N_6  and  C_26
REMARK    4  A    between atoms: N_7  and  C_25
REMARK    5  A    between atoms: C_11  and  C_15
REMARK    6  A    between atoms: C_15  and  C_16
REMARK    7  A    between atoms: C_16  and  C_19
REMARK    8  A    between atoms: C_17  and  C_18
REMARK    9  A    between atoms: C_25  and  C_29
REMARK                            x       y       z     vdW  Elec       q    Type
REMARK                         _______ _______ _______ _____ _____    ______ ____
ROOT
ATOM      1  O   UNL     1      -7.408 -14.481  17.055  0.00  0.00    -0.274 OA
ATOM      3  N   UNL     1      -5.198 -11.693  17.870  0.00  0.00    -0.286 NA
ATOM      5  N   UNL     1      -6.240 -13.100  15.677  0.00  0.00    -0.313 N 
ATOM      8  C   UNL     1      -5.918 -12.943  18.141  0.00  0.00    +0.145 C 
ATOM      9  C   UNL     1      -6.759 -11.065  19.431  0.00  0.00    +0.070 C 
ATOM     10  C   UNL     1      -6.956 -12.566  19.210  0.00  0.00    +0.048 C 
ATOM     11  C   UNL     1      -4.468 -11.682  16.608  0.00  0.00    +0.075 C 
ATOM     12  C   UNL     1      -6.127 -10.596  18.128  0.00  0.00    +0.104 C 
ATOM     13  C   UNL     1      -5.403 -11.947  15.439  0.00  0.00    +0.123 C 
ATOM     14  C   UNL     1      -6.601 -13.557  16.922  0.00  0.00    +0.230 C 
ATOM     36  H   UNL     1      -6.685 -13.531  14.873  0.00  0.00    +0.149 HD
ENDROOT
BRANCH   9   4
ATOM      4  N   UNL     1      -7.994 -10.371  19.760  0.00  0.00    -0.308 NA
ATOM     35  H   UNL     1      -7.958 -10.072  20.734  0.00  0.00    +0.123 HD
BRANCH   4  17
ATOM     17  C   UNL     1      -9.149 -11.241  19.575  0.00  0.00    +0.118 C 
BRANCH  17  18
ATOM      6  N   UNL     1     -12.418  -9.820  18.682  0.00  0.00    -0.349 N 
ATOM     18  C   UNL     1     -10.334 -10.495  19.033  0.00  0.00    -0.008 A 
ATOM     20  C   UNL     1     -10.308  -9.459  18.058  0.00  0.00    +0.004 A 
ATOM     21  C   UNL     1     -11.645 -10.694  19.398  0.00  0.00    +0.091 A 
ATOM     22  C   UNL     1     -11.629  -9.054  17.855  0.00  0.00    +0.049 A 
ATOM     23  C   UNL     1      -9.284  -8.826  17.325  0.00  0.00    +0.010 A 
ATOM     24  C   UNL     1     -11.979  -8.043  16.953  0.00  0.00    +0.026 A 
ATOM     26  C   UNL     1     -13.859  -9.731  18.789  0.00  0.00    +0.149 C 
ATOM     27  C   UNL     1      -9.620  -7.812  16.419  0.00  0.00    +0.001 A 
ATOM     28  C   UNL     1     -10.947  -7.429  16.238  0.00  0.00    +0.002 A 
ENDBRANCH  17  18
ENDBRANCH   4  17
ENDBRANCH   9   4
BRANCH  11  15
ATOM     15  C   UNL     1      -3.672 -10.394  16.394  0.00  0.00    +0.029 C 
BRANCH  15  16
ATOM     16  C   UNL     1      -2.192 -10.688  16.189  0.00  0.00    +0.097 C 
BRANCH  16  19
ATOM      2  O   UNL     1      -1.513 -12.317  14.533  0.00  0.00    -0.276 OA
ATOM      7  N   UNL     1      -2.107 -10.182  13.840  0.00  0.00    -0.311 N 
ATOM     19  C   UNL     1      -1.895 -11.177  14.784  0.00  0.00    +0.213 C 
ATOM     37  H   UNL     1      -2.396  -9.255  14.136  0.00  0.00    +0.149 HD
BRANCH   7  25
ATOM     25  C   UNL     1      -1.892 -10.400  12.429  0.00  0.00    +0.139 C 
BRANCH  25  29
ATOM     29  C   UNL     1      -3.074  -9.970  11.608  0.00  0.00    -0.030 A 
ATOM     30  C   UNL     1      -2.879  -9.417  10.343  0.00  0.00    +0.005 A 
ATOM     31  C   UNL     1      -4.365 -10.126  12.111  0.00  0.00    +0.005 A 
ATOM     32  C   UNL     1      -3.977  -9.018   9.580  0.00  0.00    +0.000 A 
ATOM     33  C   UNL     1      -5.463  -9.727  11.347  0.00  0.00    +0.000 A 
ATOM     34  C   UNL     1      -5.269  -9.173  10.083  0.00  0.00    +0.000 A 
ENDBRANCH  25  29
ENDBRANCH   7  25
ENDBRANCH  16  19
ENDBRANCH  15  16
ENDBRANCH  11  15
TORSDOF 8
ENDMDL
MODEL 3
REMARK VINA RESULT:      -6.9      3.871      7.136
REMARK  Name = 45360675
REMARK  9 active torsions:
REMARK  status: ('A' for Active; 'I' for Inactive)
REMARK    1  A    between atoms: N_4  and  C_9
REMARK    2  A    between atoms: N_4  and  C_17
REMARK    3  A    between atoms: N_6  and  C_26
REMARK    4  A    between atoms: N_7  and  C_25
REMARK    5  A    between atoms: C_11  and  C_15
REMARK    6  A    between atoms: C_15  and  C_16
REMARK    7  A    between atoms: C_16  and  C_19
REMARK    8  A    between atoms: C_17  and  C_18
REMARK    9  A    between atoms: C_25  and  C_29
REMARK                            x       y       z     vdW  Elec       q    Type
REMARK                         _______ _______ _______ _____ _____    ______ ____
ROOT
ATOM      1  O   UNL     1      14.904  13.254  13.456  0.00  0.00    -0.274 OA
ATOM      3  N   UNL     1      15.780  12.195  16.836  0.00  0.00    -0.286 NA
ATOM      5  N   UNL     1      15.349  14.504  15.302  0.00  0.00    -0.313 N 
ATOM      8  C   UNL     1      15.652  12.034  15.383  0.00  0.00    +0.145 C 
ATOM      9  C   UNL     1      14.147  10.594  16.631  0.00  0.00    +0.070 C 
ATOM     10  C   UNL     1      14.585  10.942  15.207  0.00  0.00    +0.048 C 
ATOM     11  C   UNL     1      16.400  13.447  17.250  0.00  0.00    +0.075 C 
ATOM     12  C   UNL     1      14.487  11.849  17.423  0.00  0.00    +0.104 C 
ATOM     13  C   UNL     1      15.624  14.639  16.714  0.00  0.00    +0.123 C 
ATOM     14  C   UNL     1      15.249  13.304  14.639  0.00  0.00    +0.230 C 
ATOM     36  H   UNL     1      15.099  15.344  14.790  0.00  0.00    +0.149 HD
ENDROOT
BRANCH   9   4
ATOM      4  N   UNL     1      12.746  10.214  16.720  0.00  0.00    -0.308 NA
ATOM     35  H   UNL     1      12.350  10.602  17.576  0.00  0.00    +0.123 HD
BRANCH   4  17
ATOM     17  C   UNL     1      12.598   8.764  16.744  0.00  0.00    +0.118 C 
BRANCH  17  18
ATOM      6  N   UNL     1      14.371   7.154  19.532  0.00  0.00    -0.349 N 
ATOM     18  C   UNL     1      13.089   8.171  18.034  0.00  0.00    -0.008 A 
ATOM     20  C   UNL     1      12.389   8.142  19.272  0.00  0.00    +0.004 A 
ATOM     21  C   UNL     1      14.304   7.557  18.226  0.00  0.00    +0.091 A 
ATOM     22  C   UNL     1      13.215   7.499  20.195  0.00  0.00    +0.049 A 
ATOM     23  C   UNL     1      11.127   8.604  19.698  0.00  0.00    +0.010 A 
ATOM     24  C   UNL     1      12.843   7.292  21.528  0.00  0.00    +0.026 A 
ATOM     26  C   UNL     1      15.502   6.464  20.115  0.00  0.00    +0.149 C 
ATOM     27  C   UNL     1      10.740   8.404  21.029  0.00  0.00    +0.001 A 
ATOM     28  C   UNL     1      11.587   7.759  21.928  0.00  0.00    +0.002 A 
ENDBRANCH  17  18
ENDBRANCH   4  17
ENDBRANCH   9   4
BRANCH  11  15
ATOM     15  C   UNL     1      16.582  13.547  18.765  0.00  0.00    +0.029 C 
BRANCH  15  16
ATOM     16  C   UNL     1      17.765  12.711  19.235  0.00  0.00    +0.097 C 
BRANCH  16  19
ATOM      2  O   UNL     1      18.122  10.781  20.652  0.00  0.00    -0.276 OA
ATOM      7  N   UNL     1      15.950  11.477  20.218  0.00  0.00    -0.311 N 
ATOM     19  C   UNL     1      17.332  11.550  20.112  0.00  0.00    +0.213 C 
ATOM     37  H   UNL     1      15.366  12.137  19.715  0.00  0.00    +0.149 HD
BRANCH   7  25
ATOM     25  C   UNL     1      15.291  10.456  20.998  0.00  0.00    +0.139 C 
BRANCH  25  29
ATOM     29  C   UNL     1      13.963  10.921  21.523  0.00  0.00    -0.030 A 
ATOM     30  C   UNL     1      13.056  11.546  20.669  0.00  0.00    +0.005 A 
ATOM     31  C   UNL     1      13.637  10.726  22.865  0.00  0.00    +0.005 A 
ATOM     32  C   UNL     1      11.821  11.978  21.156  0.00  0.00    +0.000 A 
ATOM     33  C   UNL     1      12.402  11.157  23.353  0.00  0.00    +0.000 A 
ATOM     34  C   UNL     1      11.496  11.783  22.498  0.00  0.00    +0.000 A 
ENDBRANCH  25  29
ENDBRANCH   7  25
ENDBRANCH  16  19
ENDBRANCH  15  16
ENDBRANCH  11  15
TORSDOF 8
ENDMDL
MODEL 4
REMARK VINA RESULT:      -6.9     26.807     30.498
REMARK  Name = 45360675
REMARK  9 active torsions:
REMARK  status: ('A' for Active; 'I' for Inactive)
REMARK    1  A    between atoms: N_4  and  C_9
REMARK    2  A    between atoms: N_4  and  C_17
REMARK    3  A    between atoms: N_6  and  C_26
REMARK    4  A    between atoms: N_7  and  C_25
REMARK    5  A    between atoms: C_11  and  C_15
REMARK    6  A    between atoms: C_15  and  C_16
REMARK    7  A    between atoms: C_16  and  C_19
REMARK    8  A    between atoms: C_17  and  C_18
REMARK    9  A    between atoms: C_25  and  C_29
REMARK                            x       y       z     vdW  Elec       q    Type
REMARK                         _______ _______ _______ _____ _____    ______ ____
ROOT
ATOM      1  O   UNL     1      -8.435 -10.514  14.941  0.00  0.00    -0.274 OA
ATOM      3  N   UNL     1      -5.443 -12.071  16.336  0.00  0.00    -0.286 NA
ATOM      5  N   UNL     1      -6.525  -9.557  15.718  0.00  0.00    -0.313 N 
ATOM      8  C   UNL     1      -6.678 -12.035  15.544  0.00  0.00    +0.145 C 
ATOM      9  C   UNL     1      -6.852 -13.455  17.507  0.00  0.00    +0.070 C 
ATOM     10  C   UNL     1      -7.639 -12.979  16.284  0.00  0.00    +0.048 C 
ATOM     11  C   UNL     1      -4.542 -10.951  16.094  0.00  0.00    +0.075 C 
ATOM     12  C   UNL     1      -5.826 -12.350  17.718  0.00  0.00    +0.104 C 
ATOM     13  C   UNL     1      -5.236  -9.627  16.369  0.00  0.00    +0.123 C 
ATOM     14  C   UNL     1      -7.295 -10.648  15.397  0.00  0.00    +0.230 C 
ATOM     36  H   UNL     1      -6.938  -8.638  15.596  0.00  0.00    +0.149 HD
ENDROOT
BRANCH   9   4
ATOM      4  N   UNL     1      -7.694 -13.695  18.668  0.00  0.00    -0.308 NA
ATOM     35  H   UNL     1      -8.612 -14.010  18.354  0.00  0.00    +0.123 HD
BRANCH   4  17
ATOM     17  C   UNL     1      -7.855 -12.480  19.457  0.00  0.00    +0.118 C 
BRANCH  17  18
ATOM      6  N   UNL     1     -11.395 -12.190  20.403  0.00  0.00    -0.349 N 
ATOM     18  C   UNL     1      -9.302 -12.135  19.669  0.00  0.00    -0.008 A 
ATOM     20  C   UNL     1     -10.011 -11.057  19.070  0.00  0.00    +0.004 A 
ATOM     21  C   UNL     1     -10.179 -12.813  20.483  0.00  0.00    +0.091 A 
ATOM     22  C   UNL     1     -11.322 -11.114  19.547  0.00  0.00    +0.049 A 
ATOM     23  C   UNL     1      -9.663 -10.035  18.165  0.00  0.00    +0.010 A 
ATOM     24  C   UNL     1     -12.307 -10.197  19.164  0.00  0.00    +0.026 A 
ATOM     26  C   UNL     1     -12.578 -12.616  21.120  0.00  0.00    +0.149 C 
ATOM     27  C   UNL     1     -10.637  -9.109  17.772  0.00  0.00    +0.001 A 
ATOM     28  C   UNL     1     -11.937  -9.191  18.265  0.00  0.00    +0.002 A 
ENDBRANCH  17  18
ENDBRANCH   4  17
ENDBRANCH   9   4
BRANCH  11  15
ATOM     15  C   UNL     1      -3.235 -11.060  16.882  0.00  0.00    +0.029 C 
BRANCH  15  16
ATOM     16  C   UNL     1      -2.050 -10.582  16.053  0.00  0.00    +0.097 C 
BRANCH  16  19
ATOM      2  O   UNL     1      -1.853 -12.449  14.526  0.00  0.00    -0.276 OA
ATOM      7  N   UNL     1      -2.152 -10.314  13.666  0.00  0.00    -0.311 N 
ATOM     19  C   UNL     1      -2.005 -11.242  14.687  0.00  0.00    +0.213 C 
ATOM     37  H   UNL     1      -2.245  -9.327  13.885  0.00  0.00    +0.149 HD
BRANCH   7  25
ATOM     25  C   UNL     1      -2.142 -10.693  12.273  0.00  0.00    +0.139 C 
BRANCH  25  29
ATOM     29  C   UNL     1      -3.254 -10.039  11.504  0.00  0.00    -0.030 A 
ATOM     30  C   UNL     1      -2.995  -9.459  10.263  0.00  0.00    +0.005 A 
ATOM     31  C   UNL     1      -4.544 -10.012  12.031  0.00  0.00    +0.005 A 
ATOM     32  C   UNL     1      -4.027  -8.851   9.548  0.00  0.00    +0.000 A 
ATOM     33  C   UNL     1      -5.577  -9.404  11.317  0.00  0.00    +0.000 A 
ATOM     34  C   UNL     1      -5.318  -8.824  10.076  0.00  0.00    +0.000 A 
ENDBRANCH  25  29
ENDBRANCH   7  25
ENDBRANCH  16  19
ENDBRANCH  15  16
ENDBRANCH  11  15
TORSDOF 8
ENDMDL
MODEL 5
REMARK VINA RESULT:      -6.9     26.584     30.338
REMARK  Name = 45360675
REMARK  9 active torsions:
REMARK  status: ('A' for Active; 'I' for Inactive)
REMARK    1  A    between atoms: N_4  and  C_9
REMARK    2  A    between atoms: N_4  and  C_17
REMARK    3  A    between atoms: N_6  and  C_26
REMARK    4  A    between atoms: N_7  and  C_25
REMARK    5  A    between atoms: C_11  and  C_15
REMARK    6  A    between atoms: C_15  and  C_16
REMARK    7  A    between atoms: C_16  and  C_19
REMARK    8  A    between atoms: C_17  and  C_18
REMARK    9  A    between atoms: C_25  and  C_29
REMARK                            x       y       z     vdW  Elec       q    Type
REMARK                         _______ _______ _______ _____ _____    ______ ____
ROOT
ATOM      1  O   UNL     1      -6.958 -12.424  10.839  0.00  0.00    -0.274 OA
ATOM      3  N   UNL     1      -4.284 -10.110  11.741  0.00  0.00    -0.286 NA
ATOM      5  N   UNL     1      -4.710 -12.755  10.907  0.00  0.00    -0.313 N 
ATOM      8  C   UNL     1      -5.665 -10.608  11.729  0.00  0.00    +0.145 C 
ATOM      9  C   UNL     1      -5.396  -8.528  10.504  0.00  0.00    +0.070 C 
ATOM     10  C   UNL     1      -6.448  -9.553  10.932  0.00  0.00    +0.048 C 
ATOM     11  C   UNL     1      -3.283 -11.123  12.056  0.00  0.00    +0.075 C 
ATOM     12  C   UNL     1      -4.098  -9.324  10.524  0.00  0.00    +0.104 C 
ATOM     13  C   UNL     1      -3.355 -12.278  11.072  0.00  0.00    +0.123 C 
ATOM     14  C   UNL     1      -5.833 -11.989  11.103  0.00  0.00    +0.230 C 
ATOM     36  H   UNL     1      -4.837 -13.680  10.510  0.00  0.00    +0.149 HD
ENDROOT
BRANCH   9   4
ATOM      4  N   UNL     1      -5.683  -7.920   9.215  0.00  0.00    -0.308 NA
ATOM     35  H   UNL     1      -5.686  -6.905   9.319  0.00  0.00    +0.123 HD
BRANCH   4  17
ATOM     17  C   UNL     1      -6.983  -8.347   8.713  0.00  0.00    +0.118 C 
BRANCH  17  18
ATOM      6  N   UNL     1      -7.219  -9.301   5.172  0.00  0.00    -0.349 N 
ATOM     18  C   UNL     1      -6.887  -8.937   7.335  0.00  0.00    -0.008 A 
ATOM     20  C   UNL     1      -6.065 -10.027   6.937  0.00  0.00    +0.004 A 
ATOM     21  C   UNL     1      -7.584  -8.511   6.228  0.00  0.00    +0.091 A 
ATOM     22  C   UNL     1      -6.293 -10.236   5.575  0.00  0.00    +0.049 A 
ATOM     23  C   UNL     1      -5.146 -10.860   7.606  0.00  0.00    +0.010 A 
ATOM     24  C   UNL     1      -5.645 -11.239   4.845  0.00  0.00    +0.026 A 
ATOM     26  C   UNL     1      -7.744  -9.161   3.830  0.00  0.00    +0.149 C 
ATOM     27  C   UNL     1      -4.491 -11.868   6.889  0.00  0.00    +0.001 A 
ATOM     28  C   UNL     1      -4.737 -12.053   5.530  0.00  0.00    +0.002 A 
ENDBRANCH  17  18
ENDBRANCH   4  17
ENDBRANCH   9   4
BRANCH  11  15
ATOM     15  C   UNL     1      -1.866 -10.553  12.131  0.00  0.00    +0.029 C 
BRANCH  15  16
ATOM     16  C   UNL     1      -1.604  -9.904  13.483  0.00  0.00    +0.097 C 
BRANCH  16  19
ATOM      2  O   UNL     1      -1.441 -11.973  14.729  0.00  0.00    -0.276 OA
ATOM      7  N   UNL     1      -2.773 -10.261  15.554  0.00  0.00    -0.311 N 
ATOM     19  C   UNL     1      -1.909 -10.842  14.637  0.00  0.00    +0.213 C 
ATOM     37  H   UNL     1      -3.139  -9.328  15.388  0.00  0.00    +0.149 HD
BRANCH   7  25
ATOM     25  C   UNL     1      -3.216 -10.953  16.741  0.00  0.00    +0.139 C 
BRANCH  25  29
ATOM     29  C   UNL     1      -4.614 -10.565  17.129  0.00  0.00    -0.030 A 
ATOM     30  C   UNL     1      -5.095 -10.873  18.401  0.00  0.00    +0.005 A 
ATOM     31  C   UNL     1      -5.430  -9.896  16.218  0.00  0.00    +0.005 A 
ATOM     32  C   UNL     1      -6.394 -10.513  18.763  0.00  0.00    +0.000 A 
ATOM     33  C   UNL     1      -6.729  -9.535  16.579  0.00  0.00    +0.000 A 
ATOM     34  C   UNL     1      -7.210  -9.844  17.850  0.00  0.00    +0.000 A 
ENDBRANCH  25  29
ENDBRANCH   7  25
ENDBRANCH  16  19
ENDBRANCH  15  16
ENDBRANCH  11  15
TORSDOF 8
ENDMDL
MODEL 6
REMARK VINA RESULT:      -6.8     26.828     30.300
REMARK  Name = 45360675
REMARK  9 active torsions:
REMARK  status: ('A' for Active; 'I' for Inactive)
REMARK    1  A    between atoms: N_4  and  C_9
REMARK    2  A    between atoms: N_4  and  C_17
REMARK    3  A    between atoms: N_6  and  C_26
REMARK    4  A    between atoms: N_7  and  C_25
REMARK    5  A    between atoms: C_11  and  C_15
REMARK    6  A    between atoms: C_15  and  C_16
REMARK    7  A    between atoms: C_16  and  C_19
REMARK    8  A    between atoms: C_17  and  C_18
REMARK    9  A    between atoms: C_25  and  C_29
REMARK                            x       y       z     vdW  Elec       q    Type
REMARK                         _______ _______ _______ _____ _____    ______ ____
ROOT
ATOM      1  O   UNL     1      -7.600 -13.389  18.215  0.00  0.00    -0.274 OA
ATOM      3  N   UNL     1      -5.388 -10.554  17.591  0.00  0.00    -0.286 NA
ATOM      5  N   UNL     1      -5.719 -13.264  16.944  0.00  0.00    -0.313 N 
ATOM      8  C   UNL     1      -6.396 -11.316  18.338  0.00  0.00    +0.145 C 
ATOM      9  C   UNL     1      -7.283  -9.279  17.358  0.00  0.00    +0.070 C 
ATOM     10  C   UNL     1      -7.676 -10.473  18.230  0.00  0.00    +0.048 C 
ATOM     11  C   UNL     1      -4.225 -11.334  17.186  0.00  0.00    +0.075 C 
ATOM     12  C   UNL     1      -6.096  -9.800  16.560  0.00  0.00    +0.104 C 
ATOM     13  C   UNL     1      -4.640 -12.522  16.334  0.00  0.00    +0.123 C 
ATOM     14  C   UNL     1      -6.638 -12.729  17.814  0.00  0.00    +0.230 C 
ATOM     36  H   UNL     1      -5.879 -14.212  16.619  0.00  0.00    +0.149 HD
ENDROOT
BRANCH   9   4
ATOM      4  N   UNL     1      -8.374  -8.795  16.527  0.00  0.00    -0.308 NA
ATOM     35  H   UNL     1      -8.193  -7.824  16.272  0.00  0.00    +0.123 HD
BRANCH   4  17
ATOM     17  C   UNL     1      -9.645  -8.870  17.237  0.00  0.00    +0.118 C 
BRANCH  17  18
ATOM      6  N   UNL     1     -11.735  -6.574  15.270  0.00  0.00    -0.349 N 
ATOM     18  C   UNL     1     -10.717  -8.070  16.554  0.00  0.00    -0.008 A 
ATOM     20  C   UNL     1     -12.122  -8.237  16.705  0.00  0.00    +0.004 A 
ATOM     21  C   UNL     1     -10.511  -7.041  15.665  0.00  0.00    +0.091 A 
ATOM     22  C   UNL     1     -12.738  -7.285  15.889  0.00  0.00    +0.049 A 
ATOM     23  C   UNL     1     -12.932  -9.108  17.460  0.00  0.00    +0.010 A 
ATOM     24  C   UNL     1     -14.128  -7.161  15.789  0.00  0.00    +0.026 A 
ATOM     26  C   UNL     1     -11.929  -5.485  14.336  0.00  0.00    +0.149 C 
ATOM     27  C   UNL     1     -14.325  -8.995  17.371  0.00  0.00    +0.001 A 
ATOM     28  C   UNL     1     -14.911  -8.037  16.547  0.00  0.00    +0.002 A 
ENDBRANCH  17  18
ENDBRANCH   4  17
ENDBRANCH   9   4
BRANCH  11  15
ATOM     15  C   UNL     1      -3.165 -10.492  16.475  0.00  0.00    +0.029 C 
BRANCH  15  16
ATOM     16  C   UNL     1      -2.405 -11.316  15.445  0.00  0.00    +0.097 C 
BRANCH  16  19
ATOM      2  O   UNL     1      -1.060  -9.503  14.571  0.00  0.00    -0.276 OA
ATOM      7  N   UNL     1      -2.213 -10.869  13.090  0.00  0.00    -0.311 N 
ATOM     19  C   UNL     1      -1.807 -10.452  14.349  0.00  0.00    +0.213 C 
ATOM     37  H   UNL     1      -2.857 -11.648  12.995  0.00  0.00    +0.149 HD
BRANCH   7  25
ATOM     25  C   UNL     1      -1.779 -10.207  11.882  0.00  0.00    +0.139 C 
BRANCH  25  29
ATOM     29  C   UNL     1      -2.845 -10.213  10.824  0.00  0.00    -0.030 A 
ATOM     30  C   UNL     1      -3.131  -9.046  10.116  0.00  0.00    +0.005 A 
ATOM     31  C   UNL     1      -3.547 -11.386  10.549  0.00  0.00    +0.005 A 
ATOM     32  C   UNL     1      -4.121  -9.051   9.133  0.00  0.00    +0.000 A 
ATOM     33  C   UNL     1      -4.537 -11.392   9.565  0.00  0.00    +0.000 A 
ATOM     34  C   UNL     1      -4.823 -10.225   8.859  0.00  0.00    +0.000 A 
ENDBRANCH  25  29
ENDBRANCH   7  25
ENDBRANCH  16  19
ENDBRANCH  15  16
ENDBRANCH  11  15
TORSDOF 8
ENDMDL
MODEL 7
REMARK VINA RESULT:      -6.8     27.473     30.386
REMARK  Name = 45360675
REMARK  9 active torsions:
REMARK  status: ('A' for Active; 'I' for Inactive)
REMARK    1  A    between atoms: N_4  and  C_9
REMARK    2  A    between atoms: N_4  and  C_17
REMARK    3  A    between atoms: N_6  and  C_26
REMARK    4  A    between atoms: N_7  and  C_25
REMARK    5  A    between atoms: C_11  and  C_15
REMARK    6  A    between atoms: C_15  and  C_16
REMARK    7  A    between atoms: C_16  and  C_19
REMARK    8  A    between atoms: C_17  and  C_18
REMARK    9  A    between atoms: C_25  and  C_29
REMARK                            x       y       z     vdW  Elec       q    Type
REMARK                         _______ _______ _______ _____ _____    ______ ____
ROOT
ATOM      1  O   UNL     1      -7.037 -12.757  19.277  0.00  0.00    -0.274 OA
ATOM      3  N   UNL     1      -5.255 -10.311  17.237  0.00  0.00    -0.286 NA
ATOM      5  N   UNL     1      -5.480 -13.077  17.650  0.00  0.00    -0.313 N 
ATOM      8  C   UNL     1      -6.016 -10.767  18.407  0.00  0.00    +0.145 C 
ATOM      9  C   UNL     1      -7.259  -9.213  17.014  0.00  0.00    +0.070 C 
ATOM     10  C   UNL     1      -7.358 -10.024  18.308  0.00  0.00    +0.048 C 
ATOM     11  C   UNL     1      -4.140 -11.176  16.872  0.00  0.00    +0.075 C 
ATOM     12  C   UNL     1      -6.224  -9.974  16.197  0.00  0.00    +0.104 C 
ATOM     13  C   UNL     1      -4.620 -12.591  16.596  0.00  0.00    +0.123 C 
ATOM     14  C   UNL     1      -6.239 -12.275  18.468  0.00  0.00    +0.230 C 
ATOM     36  H   UNL     1      -5.622 -14.080  17.715  0.00  0.00    +0.149 HD
ENDROOT
BRANCH   9   4
ATOM      4  N   UNL     1      -8.537  -9.062  16.337  0.00  0.00    -0.308 NA
ATOM     35  H   UNL     1      -8.370  -8.765  15.375  0.00  0.00    +0.123 HD
BRANCH   4  17
ATOM     17  C   UNL     1      -9.367  -8.066  17.003  0.00  0.00    +0.118 C 
BRANCH  17  18
ATOM      6  N   UNL     1     -12.949  -8.781  16.603  0.00  0.00    -0.349 N 
ATOM     18  C   UNL     1     -10.803  -8.497  17.087  0.00  0.00    -0.008 A 
ATOM     20  C   UNL     1     -11.395  -9.269  18.125  0.00  0.00    +0.004 A 
ATOM     21  C   UNL     1     -11.784  -8.213  16.166  0.00  0.00    +0.091 A 
ATOM     22  C   UNL     1     -12.742  -9.433  17.798  0.00  0.00    +0.049 A 
ATOM     23  C   UNL     1     -10.912  -9.847  19.317  0.00  0.00    +0.010 A 
ATOM     24  C   UNL     1     -13.635 -10.148  18.604  0.00  0.00    +0.026 A 
ATOM     26  C   UNL     1     -14.212  -8.697  15.899  0.00  0.00    +0.149 C 
ATOM     27  C   UNL     1     -11.794 -10.565  20.134  0.00  0.00    +0.001 A 
ATOM     28  C   UNL     1     -13.133 -10.712  19.781  0.00  0.00    +0.002 A 
ENDBRANCH  17  18
ENDBRANCH   4  17
ENDBRANCH   9   4
BRANCH  11  15
ATOM     15  C   UNL     1      -3.328 -10.632  15.696  0.00  0.00    +0.029 C 
BRANCH  15  16
ATOM     16  C   UNL     1      -2.157 -11.547  15.364  0.00  0.00    +0.097 C 
BRANCH  16  19
ATOM      2  O   UNL     1      -1.583 -12.732  13.333  0.00  0.00    -0.276 OA
ATOM      7  N   UNL     1      -2.212 -10.501  13.200  0.00  0.00    -0.311 N 
ATOM     19  C   UNL     1      -1.946 -11.688  13.868  0.00  0.00    +0.213 C 
ATOM     37  H   UNL     1      -2.481  -9.673  13.722  0.00  0.00    +0.149 HD
BRANCH   7  25
ATOM     25  C   UNL     1      -2.084 -10.378  11.767  0.00  0.00    +0.139 C 
BRANCH  25  29
ATOM     29  C   UNL     1      -3.326  -9.815  11.138  0.00  0.00    -0.030 A 
ATOM     30  C   UNL     1      -3.266  -9.242   9.868  0.00  0.00    +0.005 A 
ATOM     31  C   UNL     1      -4.539  -9.866  11.824  0.00  0.00    +0.005 A 
ATOM     32  C   UNL     1      -4.419  -8.718   9.284  0.00  0.00    +0.000 A 
ATOM     33  C   UNL     1      -5.693  -9.343  11.239  0.00  0.00    +0.000 A 
ATOM     34  C   UNL     1      -5.633  -8.768   9.970  0.00  0.00    +0.000 A 
ENDBRANCH  25  29
ENDBRANCH   7  25
ENDBRANCH  16  19
ENDBRANCH  15  16
ENDBRANCH  11  15
TORSDOF 8
ENDMDL
MODEL 8
REMARK VINA RESULT:      -6.8     27.318     29.571
REMARK  Name = 45360675
REMARK  9 active torsions:
REMARK  status: ('A' for Active; 'I' for Inactive)
REMARK    1  A    between atoms: N_4  and  C_9
REMARK    2  A    between atoms: N_4  and  C_17
REMARK    3  A    between atoms: N_6  and  C_26
REMARK    4  A    between atoms: N_7  and  C_25
REMARK    5  A    between atoms: C_11  and  C_15
REMARK    6  A    between atoms: C_15  and  C_16
REMARK    7  A    between atoms: C_16  and  C_19
REMARK    8  A    between atoms: C_17  and  C_18
REMARK    9  A    between atoms: C_25  and  C_29
REMARK                            x       y       z     vdW  Elec       q    Type
REMARK                         _______ _______ _______ _____ _____    ______ ____
ROOT
ATOM      1  O   UNL     1      13.584  -8.381  -5.713  0.00  0.00    -0.274 OA
ATOM      3  N   UNL     1      16.231  -7.955  -3.237  0.00  0.00    -0.286 NA
ATOM      5  N   UNL     1      15.641  -9.342  -5.603  0.00  0.00    -0.313 N 
ATOM      8  C   UNL     1      14.848  -7.912  -3.727  0.00  0.00    +0.145 C 
ATOM      9  C   UNL     1      15.775  -5.706  -3.309  0.00  0.00    +0.070 C 
ATOM     10  C   UNL     1      14.496  -6.416  -3.759  0.00  0.00    +0.048 C 
ATOM     11  C   UNL     1      16.929  -9.203  -3.520  0.00  0.00    +0.075 C 
ATOM     12  C   UNL     1      16.872  -6.708  -3.644  0.00  0.00    +0.104 C 
ATOM     13  C   UNL     1      16.953  -9.483  -5.014  0.00  0.00    +0.123 C 
ATOM     14  C   UNL     1      14.644  -8.541  -5.102  0.00  0.00    +0.230 C 
ATOM     36  H   UNL     1      15.486  -9.773  -6.509  0.00  0.00    +0.149 HD
ENDROOT
BRANCH   9   4
ATOM      4  N   UNL     1      15.960  -4.410  -3.942  0.00  0.00    -0.308 NA
ATOM     35  H   UNL     1      16.668  -4.494  -4.672  0.00  0.00    +0.123 HD
BRANCH   4  17
ATOM     17  C   UNL     1      16.396  -3.412  -2.973  0.00  0.00    +0.118 C 
BRANCH  17  18
ATOM      6  N   UNL     1      19.959  -2.648  -3.442  0.00  0.00    -0.349 N 
ATOM     18  C   UNL     1      17.891  -3.274  -2.941  0.00  0.00    -0.008 A 
ATOM     20  C   UNL     1      18.780  -3.907  -2.029  0.00  0.00    +0.004 A 
ATOM     21  C   UNL     1      18.645  -2.507  -3.797  0.00  0.00    +0.091 A 
ATOM     22  C   UNL     1      20.072  -3.497  -2.364  0.00  0.00    +0.049 A 
ATOM     23  C   UNL     1      18.609  -4.791  -0.945  0.00  0.00    +0.010 A 
ATOM     24  C   UNL     1      21.207  -3.929  -1.669  0.00  0.00    +0.026 A 
ATOM     26  C   UNL     1      21.061  -1.993  -4.115  0.00  0.00    +0.149 C 
ATOM     27  C   UNL     1      19.736  -5.232  -0.239  0.00  0.00    +0.001 A 
ATOM     28  C   UNL     1      21.013  -4.806  -0.597  0.00  0.00    +0.002 A 
ENDBRANCH  17  18
ENDBRANCH   4  17
ENDBRANCH   9   4
BRANCH  11  15
ATOM     15  C   UNL     1      18.340  -9.240  -2.932  0.00  0.00    +0.029 C 
BRANCH  15  16
ATOM     16  C   UNL     1      18.311  -9.597  -1.452  0.00  0.00    +0.097 C 
BRANCH  16  19
ATOM      2  O   UNL     1      18.387 -11.997  -1.760  0.00  0.00    -0.276 OA
ATOM      7  N   UNL     1      16.800 -11.092  -0.328  0.00  0.00    -0.311 N 
ATOM     19  C   UNL     1      17.863 -11.028  -1.218  0.00  0.00    +0.213 C 
ATOM     37  H   UNL     1      16.405 -10.238   0.055  0.00  0.00    +0.149 HD
BRANCH   7  25
ATOM     25  C   UNL     1      16.192 -12.343   0.057  0.00  0.00    +0.139 C 
BRANCH  25  29
ATOM     29  C   UNL     1      15.905 -12.399   1.530  0.00  0.00    -0.030 A 
ATOM     30  C   UNL     1      16.270 -11.333   2.352  0.00  0.00    +0.005 A 
ATOM     31  C   UNL     1      15.271 -13.515   2.075  0.00  0.00    +0.005 A 
ATOM     32  C   UNL     1      16.003 -11.384   3.720  0.00  0.00    +0.000 A 
ATOM     33  C   UNL     1      15.004 -13.566   3.444  0.00  0.00    +0.000 A 
ATOM     34  C   UNL     1      15.370 -12.501   4.266  0.00  0.00    +0.000 A 
ENDBRANCH  25  29
ENDBRANCH   7  25
ENDBRANCH  16  19
ENDBRANCH  15  16
ENDBRANCH  11  15
TORSDOF 8
ENDMDL
MODEL 9
REMARK VINA RESULT:      -6.7     27.386     30.061
REMARK  Name = 45360675
REMARK  9 active torsions:
REMARK  status: ('A' for Active; 'I' for Inactive)
REMARK    1  A    between atoms: N_4  and  C_9
REMARK    2  A    between atoms: N_4  and  C_17
REMARK    3  A    between atoms: N_6  and  C_26
REMARK    4  A    between atoms: N_7  and  C_25
REMARK    5  A    between atoms: C_11  and  C_15
REMARK    6  A    between atoms: C_15  and  C_16
REMARK    7  A    between atoms: C_16  and  C_19
REMARK    8  A    between atoms: C_17  and  C_18
REMARK    9  A    between atoms: C_25  and  C_29
REMARK                            x       y       z     vdW  Elec       q    Type
REMARK                         _______ _______ _______ _____ _____    ______ ____
ROOT
ATOM      1  O   UNL     1      -2.190 -13.951  14.041  0.00  0.00    -0.274 OA
ATOM      3  N   UNL     1      -4.926 -12.346  15.845  0.00  0.00    -0.286 NA
ATOM      5  N   UNL     1      -2.234 -11.968  15.152  0.00  0.00    -0.313 N 
ATOM      8  C   UNL     1      -4.208 -13.481  15.252  0.00  0.00    +0.145 C 
ATOM      9  C   UNL     1      -6.283 -12.966  14.101  0.00  0.00    +0.070 C 
ATOM     10  C   UNL     1      -5.107 -13.944  14.095  0.00  0.00    +0.048 C 
ATOM     11  C   UNL     1      -4.097 -11.476  16.670  0.00  0.00    +0.075 C 
ATOM     12  C   UNL     1      -5.712 -11.729  14.780  0.00  0.00    +0.104 C 
ATOM     13  C   UNL     1      -2.929 -10.923  15.870  0.00  0.00    +0.123 C 
ATOM     14  C   UNL     1      -2.808 -13.148  14.745  0.00  0.00    +0.230 C 
ATOM     36  H   UNL     1      -1.294 -11.767  14.826  0.00  0.00    +0.149 HD
ENDROOT
BRANCH   9   4
ATOM      4  N   UNL     1      -6.815 -12.705  12.772  0.00  0.00    -0.308 NA
ATOM     35  H   UNL     1      -7.627 -13.302  12.616  0.00  0.00    +0.123 HD
BRANCH   4  17
ATOM     17  C   UNL     1      -5.818 -12.985  11.746  0.00  0.00    +0.118 C 
BRANCH  17  18
ATOM      6  N   UNL     1      -5.587 -10.065   9.527  0.00  0.00    -0.349 N 
ATOM     18  C   UNL     1      -5.465 -11.758  10.956  0.00  0.00    -0.008 A 
ATOM     20  C   UNL     1      -4.252 -11.019  11.039  0.00  0.00    +0.004 A 
ATOM     21  C   UNL     1      -6.265 -11.147  10.019  0.00  0.00    +0.091 A 
ATOM     22  C   UNL     1      -4.354  -9.962  10.132  0.00  0.00    +0.049 A 
ATOM     23  C   UNL     1      -3.074 -11.147  11.800  0.00  0.00    +0.010 A 
ATOM     24  C   UNL     1      -3.333  -9.023   9.947  0.00  0.00    +0.026 A 
ATOM     26  C   UNL     1      -6.104  -9.169   8.514  0.00  0.00    +0.149 C 
ATOM     27  C   UNL     1      -2.043 -10.215  11.626  0.00  0.00    +0.001 A 
ATOM     28  C   UNL     1      -2.173  -9.171  10.714  0.00  0.00    +0.002 A 
ENDBRANCH  17  18
ENDBRANCH   4  17
ENDBRANCH   9   4
BRANCH  11  15
ATOM     15  C   UNL     1      -4.893 -10.348  17.329  0.00  0.00    +0.029 C 
BRANCH  15  16
ATOM     16  C   UNL     1      -5.207 -10.672  18.783  0.00  0.00    +0.097 C 
BRANCH  16  19
ATOM      2  O   UNL     1      -7.156 -11.268  20.089  0.00  0.00    -0.276 OA
ATOM      7  N   UNL     1      -7.385 -10.944  17.801  0.00  0.00    -0.311 N 
ATOM     19  C   UNL     1      -6.676 -10.995  18.992  0.00  0.00    +0.213 C 
ATOM     37  H   UNL     1      -6.905 -10.737  16.931  0.00  0.00    +0.149 HD
BRANCH   7  25
ATOM     25  C   UNL     1      -8.802 -11.213  17.737  0.00  0.00    +0.139 C 
BRANCH  25  29
ATOM     29  C   UNL     1      -9.600  -9.969  17.468  0.00  0.00    -0.030 A 
ATOM     30  C   UNL     1      -8.968  -8.832  16.966  0.00  0.00    +0.005 A 
ATOM     31  C   UNL     1     -10.971  -9.952  17.718  0.00  0.00    +0.005 A 
ATOM     32  C   UNL     1      -9.708  -7.676  16.716  0.00  0.00    +0.000 A 
ATOM     33  C   UNL     1     -11.712  -8.797  17.467  0.00  0.00    +0.000 A 
ATOM     34  C   UNL     1     -11.080  -7.659  16.967  0.00  0.00    +0.000 A 
ENDBRANCH  25  29
ENDBRANCH   7  25
ENDBRANCH  16  19
ENDBRANCH  15  16
ENDBRANCH  11  15
TORSDOF 8
ENDMDL
MODEL 10
REMARK VINA RESULT:      -6.7      5.106     10.284
REMARK  Name = 45360675
REMARK  9 active torsions:
REMARK  status: ('A' for Active; 'I' for Inactive)
REMARK    1  A    between atoms: N_4  and  C_9
REMARK    2  A    between atoms: N_4  and  C_17
REMARK    3  A    between atoms: N_6  and  C_26
REMARK    4  A    between atoms: N_7  and  C_25
REMARK    5  A    between atoms: C_11  and  C_15
REMARK    6  A    between atoms: C_15  and  C_16
REMARK    7  A    between atoms: C_16  and  C_19
REMARK    8  A    between atoms: C_17  and  C_18
REMARK    9  A    between atoms: C_25  and  C_29
REMARK                            x       y       z     vdW  Elec       q    Type
REMARK                         _______ _______ _______ _____ _____    ______ ____
ROOT
ATOM      1  O   UNL     1      19.302  10.524  23.149  0.00  0.00    -0.274 OA
ATOM      3  N   UNL     1      19.867   7.387  21.371  0.00  0.00    -0.286 NA
ATOM      5  N   UNL     1      20.572   8.730  23.732  0.00  0.00    -0.313 N 
ATOM      8  C   UNL     1      19.498   8.803  21.487  0.00  0.00    +0.145 C 
ATOM      9  C   UNL     1      17.618   7.378  20.913  0.00  0.00    +0.070 C 
ATOM     10  C   UNL     1      17.998   8.840  21.155  0.00  0.00    +0.048 C 
ATOM     11  C   UNL     1      21.111   7.034  22.044  0.00  0.00    +0.075 C 
ATOM     12  C   UNL     1      18.675   6.604  21.688  0.00  0.00    +0.104 C 
ATOM     13  C   UNL     1      21.045   7.381  23.522  0.00  0.00    +0.123 C 
ATOM     14  C   UNL     1      19.760   9.414  22.860  0.00  0.00    +0.230 C 
ATOM     36  H   UNL     1      20.756   9.157  24.634  0.00  0.00    +0.149 HD
ENDROOT
BRANCH   9   4
ATOM      4  N   UNL     1      16.257   7.068  21.322  0.00  0.00    -0.308 NA
ATOM     35  H   UNL     1      16.284   6.525  22.185  0.00  0.00    +0.123 HD
BRANCH   4  17
ATOM     17  C   UNL     1      15.566   6.295  20.298  0.00  0.00    +0.118 C 
BRANCH  17  18
ATOM      6  N   UNL     1      13.257   8.246  18.208  0.00  0.00    -0.349 N 
ATOM     18  C   UNL     1      14.446   7.071  19.667  0.00  0.00    -0.008 A 
ATOM     20  C   UNL     1      13.185   7.367  20.257  0.00  0.00    +0.004 A 
ATOM     21  C   UNL     1      14.460   7.624  18.408  0.00  0.00    +0.091 A 
ATOM     22  C   UNL     1      12.458   8.105  19.321  0.00  0.00    +0.049 A 
ATOM     23  C   UNL     1      12.591   7.077  21.501  0.00  0.00    +0.010 A 
ATOM     24  C   UNL     1      11.161   8.570  19.566  0.00  0.00    +0.026 A 
ATOM     26  C   UNL     1      12.894   8.949  16.996  0.00  0.00    +0.149 C 
ATOM     27  C   UNL     1      11.293   7.535  21.761  0.00  0.00    +0.001 A 
ATOM     28  C   UNL     1      10.592   8.269  20.807  0.00  0.00    +0.002 A 
ENDBRANCH  17  18
ENDBRANCH   4  17
ENDBRANCH   9   4
BRANCH  11  15
ATOM     15  C   UNL     1      21.500   5.569  21.840  0.00  0.00    +0.029 C 
BRANCH  15  16
ATOM     16  C   UNL     1      22.065   5.337  20.446  0.00  0.00    +0.097 C 
BRANCH  16  19
ATOM      2  O   UNL     1      24.372   5.654  21.105  0.00  0.00    -0.276 OA
ATOM      7  N   UNL     1      23.830   3.878  19.711  0.00  0.00    -0.311 N 
ATOM     19  C   UNL     1      23.545   5.000  20.476  0.00  0.00    +0.213 C 
ATOM     37  H   UNL     1      23.089   3.411  19.198  0.00  0.00    +0.149 HD
BRANCH   7  25
ATOM     25  C   UNL     1      25.170   3.357  19.579  0.00  0.00    +0.139 C 
BRANCH  25  29
ATOM     29  C   UNL     1      25.522   2.423  20.702  0.00  0.00    -0.030 A 
ATOM     30  C   UNL     1      26.780   2.495  21.299  0.00  0.00    +0.005 A 
ATOM     31  C   UNL     1      24.590   1.485  21.146  0.00  0.00    +0.005 A 
ATOM     32  C   UNL     1      27.107   1.627  22.342  0.00  0.00    +0.000 A 
ATOM     33  C   UNL     1      24.917   0.618  22.190  0.00  0.00    +0.000 A 
ATOM     34  C   UNL     1      26.175   0.689  22.786  0.00  0.00    +0.000 A 
ENDBRANCH  25  29
ENDBRANCH   7  25
ENDBRANCH  16  19
ENDBRANCH  15  16
ENDBRANCH  11  15
TORSDOF 8
ENDMDL
