MODEL 1
REMARK VINA RESULT:      -6.7      0.000      0.000
REMARK  Name = 44716116
REMARK  7 active torsions:
REMARK  status: ('A' for Active; 'I' for Inactive)
REMARK    1  A    between atoms: O_2  and  C_25
REMARK    2  A    between atoms: O_2  and  C_26
REMARK    3  A    between atoms: N_4  and  C_17
REMARK    4  A    between atoms: N_5  and  C_15
REMARK    5  A    between atoms: C_9  and  C_16
REMARK    6  A    between atoms: C_10  and  C_15
REMARK    7  A    between atoms: C_24  and  C_25
REMARK                            x       y       z     vdW  Elec       q    Type
REMARK                         _______ _______ _______ _____ _____    ______ ____
ROOT
ATOM      3  N   UNL     1      13.788   6.962  19.722  0.00  0.00    -0.297 NA
ATOM      8  C   UNL     1      14.133   8.652  21.670  0.00  0.00    +0.005 C 
ATOM      9  C   UNL     1      12.820   7.865  21.840  0.00  0.00    +0.092 C 
ATOM     10  C   UNL     1      14.060   8.317  19.175  0.00  0.00    +0.078 C 
ATOM     11  C   UNL     1      14.118   9.368  20.305  0.00  0.00    +0.025 C 
ATOM     12  C   UNL     1      15.269   7.613  21.629  0.00  0.00    +0.020 C 
ATOM     13  C   UNL     1      12.589   6.990  20.595  0.00  0.00    +0.097 C 
ATOM     14  C   UNL     1      14.954   6.562  20.550  0.00  0.00    +0.085 C 
ENDROOT
BRANCH   9  16
ATOM      1  O   UNL     1      10.587   8.642  21.500  0.00  0.00    -0.275 OA
ATOM      4  N   UNL     1      11.950   9.763  23.018  0.00  0.00    -0.312 N 
ATOM     16  C   UNL     1      11.655   8.778  22.090  0.00  0.00    +0.218 C 
ATOM     27  H   UNL     1      12.861   9.753  23.468  0.00  0.00    +0.149 HD
BRANCH   4  17
ATOM     17  C   UNL     1      11.006  10.782  23.418  0.00  0.00    +0.073 C 
ATOM     18  C   UNL     1      11.064  11.988  22.475  0.00  0.00    +0.022 C 
ATOM     19  C   UNL     1      11.233  11.203  24.874  0.00  0.00    +0.022 C 
ATOM     20  C   UNL     1      12.340  12.811  22.657  0.00  0.00    +0.002 C 
ATOM     21  C   UNL     1      12.508  12.027  25.052  0.00  0.00    +0.002 C 
ATOM     22  C   UNL     1      12.538  13.228  24.110  0.00  0.00    +0.000 C 
ENDBRANCH   4  17
ENDBRANCH   9  16
BRANCH  10  15
ATOM     15  C   UNL     1      13.069   8.713  18.079  0.00  0.00    +0.164 C 
BRANCH  15   5
ATOM      5  N   UNL     1      13.777   9.149  16.827  0.00  0.00    -0.250 N 
ATOM      6  N   UNL     1      13.912   8.310  15.787  0.00  0.00    -0.065 NA
ATOM      7  N   UNL     1      14.576   8.962  14.838  0.00  0.00    -0.132 NA
ATOM     23  C   UNL     1      14.348  10.358  16.573  0.00  0.00    +0.136 A 
ATOM     24  C   UNL     1      14.850  10.219  15.305  0.00  0.00    +0.108 A 
BRANCH  24  25
ATOM     25  C   UNL     1      15.580  11.193  14.485  0.00  0.00    +0.218 C 
BRANCH  25   2
ATOM      2  O   UNL     1      15.271  11.006  13.101  0.00  0.00    -0.377 OA
ATOM     26  C   UNL     1      15.189  12.248  12.422  0.00  0.00    +0.194 C 
ENDBRANCH  25   2
ENDBRANCH  24  25
ENDBRANCH  15   5
ENDBRANCH  10  15
TORSDOF 6
ENDMDL
MODEL 2
REMARK VINA RESULT:      -6.1      3.492      5.398
REMARK  Name = 44716116
REMARK  7 active torsions:
REMARK  status: ('A' for Active; 'I' for Inactive)
REMARK    1  A    between atoms: O_2  and  C_25
REMARK    2  A    between atoms: O_2  and  C_26
REMARK    3  A    between atoms: N_4  and  C_17
REMARK    4  A    between atoms: N_5  and  C_15
REMARK    5  A    between atoms: C_9  and  C_16
REMARK    6  A    between atoms: C_10  and  C_15
REMARK    7  A    between atoms: C_24  and  C_25
REMARK                            x       y       z     vdW  Elec       q    Type
REMARK                         _______ _______ _______ _____ _____    ______ ____
ROOT
ATOM      3  N   UNL     1      12.428   6.918  19.520  0.00  0.00    -0.297 NA
ATOM      8  C   UNL     1      12.068   7.956  21.879  0.00  0.00    +0.005 C 
ATOM      9  C   UNL     1      11.399   8.811  20.785  0.00  0.00    +0.092 C 
ATOM     10  C   UNL     1      13.733   7.057  20.217  0.00  0.00    +0.078 C 
ATOM     11  C   UNL     1      13.568   7.809  21.556  0.00  0.00    +0.025 C 
ATOM     12  C   UNL     1      11.441   6.553  21.789  0.00  0.00    +0.020 C 
ATOM     13  C   UNL     1      11.763   8.239  19.403  0.00  0.00    +0.097 C 
ATOM     14  C   UNL     1      11.562   6.036  20.344  0.00  0.00    +0.085 C 
ENDROOT
BRANCH   9  16
ATOM      1  O   UNL     1      11.283  10.998  21.739  0.00  0.00    -0.275 OA
ATOM      4  N   UNL     1      12.724  10.624  19.949  0.00  0.00    -0.312 N 
ATOM     16  C   UNL     1      11.785  10.257  20.898  0.00  0.00    +0.218 C 
ATOM     27  H   UNL     1      13.094   9.913  19.326  0.00  0.00    +0.149 HD
BRANCH   4  17
ATOM     17  C   UNL     1      13.245  11.968  19.831  0.00  0.00    +0.073 C 
ATOM     18  C   UNL     1      13.636  12.282  18.383  0.00  0.00    +0.022 C 
ATOM     19  C   UNL     1      14.424  12.188  20.785  0.00  0.00    +0.022 C 
ATOM     20  C   UNL     1      14.896  11.537  17.943  0.00  0.00    +0.002 C 
ATOM     21  C   UNL     1      15.683  11.443  20.341  0.00  0.00    +0.002 C 
ATOM     22  C   UNL     1      16.057  11.780  18.900  0.00  0.00    +0.000 C 
ENDBRANCH   4  17
ENDBRANCH   9  16
BRANCH  10  15
ATOM     15  C   UNL     1      14.802   7.700  19.331  0.00  0.00    +0.164 C 
BRANCH  15   5
ATOM      5  N   UNL     1      16.141   7.044  19.519  0.00  0.00    -0.250 N 
ATOM      6  N   UNL     1      16.476   5.951  18.812  0.00  0.00    -0.065 NA
ATOM      7  N   UNL     1      17.699   5.597  19.189  0.00  0.00    -0.132 NA
ATOM     23  C   UNL     1      17.139   7.418  20.365  0.00  0.00    +0.136 A 
ATOM     24  C   UNL     1      18.120   6.485  20.141  0.00  0.00    +0.108 A 
BRANCH  24  25
ATOM     25  C   UNL     1      19.443   6.365  20.763  0.00  0.00    +0.218 C 
BRANCH  25   2
ATOM      2  O   UNL     1      19.328   6.426  22.188  0.00  0.00    -0.377 OA
ATOM     26  C   UNL     1      20.061   7.519  22.715  0.00  0.00    +0.194 C 
ENDBRANCH  25   2
ENDBRANCH  24  25
ENDBRANCH  15   5
ENDBRANCH  10  15
TORSDOF 6
ENDMDL
MODEL 3
REMARK VINA RESULT:      -5.9     11.280     14.524
REMARK  Name = 44716116
REMARK  7 active torsions:
REMARK  status: ('A' for Active; 'I' for Inactive)
REMARK    1  A    between atoms: O_2  and  C_25
REMARK    2  A    between atoms: O_2  and  C_26
REMARK    3  A    between atoms: N_4  and  C_17
REMARK    4  A    between atoms: N_5  and  C_15
REMARK    5  A    between atoms: C_9  and  C_16
REMARK    6  A    between atoms: C_10  and  C_15
REMARK    7  A    between atoms: C_24  and  C_25
REMARK                            x       y       z     vdW  Elec       q    Type
REMARK                         _______ _______ _______ _____ _____    ______ ____
ROOT
ATOM      3  N   UNL     1       9.515   5.442   6.126  0.00  0.00    -0.297 NA
ATOM      8  C   UNL     1      10.423   6.984   8.014  0.00  0.00    +0.005 C 
ATOM      9  C   UNL     1       9.032   7.445   7.539  0.00  0.00    +0.092 C 
ATOM     10  C   UNL     1      10.880   5.917   5.780  0.00  0.00    +0.078 C 
ATOM     11  C   UNL     1      11.382   6.953   6.808  0.00  0.00    +0.025 C 
ATOM     12  C   UNL     1      10.264   5.535   8.510  0.00  0.00    +0.020 C 
ATOM     13  C   UNL     1       8.605   6.597   6.328  0.00  0.00    +0.097 C 
ATOM     14  C   UNL     1       9.602   4.693   7.404  0.00  0.00    +0.085 C 
ENDROOT
BRANCH   9  16
ATOM      1  O   UNL     1       8.707   9.323   6.098  0.00  0.00    -0.275 OA
ATOM      4  N   UNL     1       9.400   9.691   8.290  0.00  0.00    -0.312 N 
ATOM     16  C   UNL     1       9.015   8.910   7.214  0.00  0.00    +0.218 C 
ATOM     27  H   UNL     1       9.598   9.238   9.177  0.00  0.00    +0.149 HD
BRANCH   4  17
ATOM     17  C   UNL     1       9.488  11.133   8.230  0.00  0.00    +0.073 C 
ATOM     18  C   UNL     1      10.935  11.589   8.010  0.00  0.00    +0.022 C 
ATOM     19  C   UNL     1       8.889  11.774   9.487  0.00  0.00    +0.022 C 
ATOM     20  C   UNL     1      11.807  11.383   9.248  0.00  0.00    +0.002 C 
ATOM     21  C   UNL     1       9.765  11.569  10.722  0.00  0.00    +0.002 C 
ATOM     22  C   UNL     1      11.197  12.039  10.482  0.00  0.00    +0.000 C 
ENDBRANCH   4  17
ENDBRANCH   9  16
BRANCH  10  15
ATOM     15  C   UNL     1      10.968   6.448   4.347  0.00  0.00    +0.164 C 
BRANCH  15   5
ATOM      5  N   UNL     1      11.414   5.379   3.390  0.00  0.00    -0.250 N 
ATOM      6  N   UNL     1      10.801   4.184   3.359  0.00  0.00    -0.065 NA
ATOM      7  N   UNL     1      11.407   3.453   2.430  0.00  0.00    -0.132 NA
ATOM     23  C   UNL     1      12.427   5.446   2.483  0.00  0.00    +0.136 A 
ATOM     24  C   UNL     1      12.406   4.212   1.884  0.00  0.00    +0.108 A 
BRANCH  24  25
ATOM     25  C   UNL     1      13.268   3.684   0.820  0.00  0.00    +0.218 C 
BRANCH  25   2
ATOM      2  O   UNL     1      14.504   3.220   1.369  0.00  0.00    -0.377 OA
ATOM     26  C   UNL     1      15.612   3.812   0.711  0.00  0.00    +0.194 C 
ENDBRANCH  25   2
ENDBRANCH  24  25
ENDBRANCH  15   5
ENDBRANCH  10  15
TORSDOF 6
ENDMDL
MODEL 4
REMARK VINA RESULT:      -5.8     27.163     29.086
REMARK  Name = 44716116
REMARK  7 active torsions:
REMARK  status: ('A' for Active; 'I' for Inactive)
REMARK    1  A    between atoms: O_2  and  C_25
REMARK    2  A    between atoms: O_2  and  C_26
REMARK    3  A    between atoms: N_4  and  C_17
REMARK    4  A    between atoms: N_5  and  C_15
REMARK    5  A    between atoms: C_9  and  C_16
REMARK    6  A    between atoms: C_10  and  C_15
REMARK    7  A    between atoms: C_24  and  C_25
REMARK                            x       y       z     vdW  Elec       q    Type
REMARK                         _______ _______ _______ _____ _____    ______ ____
ROOT
ATOM      3  N   UNL     1      -2.553 -12.867  14.480  0.00  0.00    -0.297 NA
ATOM      8  C   UNL     1      -4.052 -12.723  12.358  0.00  0.00    +0.005 C 
ATOM      9  C   UNL     1      -2.631 -12.201  12.074  0.00  0.00    +0.092 C 
ATOM     10  C   UNL     1      -3.817 -12.154  14.800  0.00  0.00    +0.078 C 
ATOM     11  C   UNL     1      -4.658 -11.920  13.526  0.00  0.00    +0.025 C 
ATOM     12  C   UNL     1      -3.902 -14.180  12.834  0.00  0.00    +0.020 C 
ATOM     13  C   UNL     1      -1.831 -12.169  13.388  0.00  0.00    +0.097 C 
ATOM     14  C   UNL     1      -2.905 -14.229  14.006  0.00  0.00    +0.085 C 
ENDROOT
BRANCH   9  16
ATOM      1  O   UNL     1      -1.849  -9.974  11.705  0.00  0.00    -0.275 OA
ATOM      4  N   UNL     1      -3.687 -10.736  10.498  0.00  0.00    -0.312 N 
ATOM     16  C   UNL     1      -2.657 -10.852  11.416  0.00  0.00    +0.218 C 
ATOM     27  H   UNL     1      -4.273 -11.546  10.315  0.00  0.00    +0.149 HD
BRANCH   4  17
ATOM     17  C   UNL     1      -3.943  -9.529   9.745  0.00  0.00    +0.073 C 
ATOM     18  C   UNL     1      -4.746  -8.521  10.575  0.00  0.00    +0.022 C 
ATOM     19  C   UNL     1      -4.649  -9.845   8.421  0.00  0.00    +0.022 C 
ATOM     20  C   UNL     1      -6.200  -8.950  10.770  0.00  0.00    +0.002 C 
ATOM     21  C   UNL     1      -6.103 -10.271   8.620  0.00  0.00    +0.002 C 
ATOM     22  C   UNL     1      -6.883  -9.247   9.440  0.00  0.00    +0.000 C 
ENDBRANCH   4  17
ENDBRANCH   9  16
BRANCH  10  15
ATOM     15  C   UNL     1      -3.575 -10.853  15.569  0.00  0.00    +0.164 C 
BRANCH  15   5
ATOM      5  N   UNL     1      -4.595 -10.657  16.655  0.00  0.00    -0.250 N 
ATOM      6  N   UNL     1      -5.727  -9.972  16.419  0.00  0.00    -0.065 NA
ATOM      7  N   UNL     1      -6.423  -9.959  17.551  0.00  0.00    -0.132 NA
ATOM     23  C   UNL     1      -4.537 -11.100  17.940  0.00  0.00    +0.136 A 
ATOM     24  C   UNL     1      -5.708 -10.646  18.492  0.00  0.00    +0.108 A 
BRANCH  24  25
ATOM     25  C   UNL     1      -6.212 -10.812  19.861  0.00  0.00    +0.218 C 
BRANCH  25   2
ATOM      2  O   UNL     1      -7.592 -11.186  19.838  0.00  0.00    -0.377 OA
ATOM     26  C   UNL     1      -7.742 -12.589  19.697  0.00  0.00    +0.194 C 
ENDBRANCH  25   2
ENDBRANCH  24  25
ENDBRANCH  15   5
ENDBRANCH  10  15
TORSDOF 6
ENDMDL
MODEL 5
REMARK VINA RESULT:      -5.7      3.368      4.907
REMARK  Name = 44716116
REMARK  7 active torsions:
REMARK  status: ('A' for Active; 'I' for Inactive)
REMARK    1  A    between atoms: O_2  and  C_25
REMARK    2  A    between atoms: O_2  and  C_26
REMARK    3  A    between atoms: N_4  and  C_17
REMARK    4  A    between atoms: N_5  and  C_15
REMARK    5  A    between atoms: C_9  and  C_16
REMARK    6  A    between atoms: C_10  and  C_15
REMARK    7  A    between atoms: C_24  and  C_25
REMARK                            x       y       z     vdW  Elec       q    Type
REMARK                         _______ _______ _______ _____ _____    ______ ____
ROOT
ATOM      3  N   UNL     1      12.648   7.423  19.621  0.00  0.00    -0.297 NA
ATOM      8  C   UNL     1      12.267   8.453  21.980  0.00  0.00    +0.005 C 
ATOM      9  C   UNL     1      11.658   9.341  20.879  0.00  0.00    +0.092 C 
ATOM     10  C   UNL     1      13.939   7.508  20.352  0.00  0.00    +0.078 C 
ATOM     11  C   UNL     1      13.768   8.253  21.693  0.00  0.00    +0.025 C 
ATOM     12  C   UNL     1      11.591   7.074  21.861  0.00  0.00    +0.020 C 
ATOM     13  C   UNL     1      12.035   8.769  19.501  0.00  0.00    +0.097 C 
ATOM     14  C   UNL     1      11.731   6.567  20.414  0.00  0.00    +0.085 C 
ENDROOT
BRANCH   9  16
ATOM      1  O   UNL     1      12.679  11.360  20.110  0.00  0.00    -0.275 OA
ATOM      4  N   UNL     1      11.780  11.298  22.257  0.00  0.00    -0.312 N 
ATOM     16  C   UNL     1      12.094  10.771  21.016  0.00  0.00    +0.218 C 
ATOM     27  H   UNL     1      11.261  10.725  22.915  0.00  0.00    +0.149 HD
BRANCH   4  17
ATOM     17  C   UNL     1      12.112  12.650  22.649  0.00  0.00    +0.073 C 
ATOM     18  C   UNL     1      13.078  12.657  23.838  0.00  0.00    +0.022 C 
ATOM     19  C   UNL     1      10.848  13.461  22.955  0.00  0.00    +0.022 C 
ATOM     20  C   UNL     1      12.405  12.227  25.142  0.00  0.00    +0.002 C 
ATOM     21  C   UNL     1      10.178  13.030  24.260  0.00  0.00    +0.002 C 
ATOM     22  C   UNL     1      11.157  13.055  25.431  0.00  0.00    +0.000 C 
ENDBRANCH   4  17
ENDBRANCH   9  16
BRANCH  10  15
ATOM     15  C   UNL     1      15.053   8.119  19.499  0.00  0.00    +0.164 C 
BRANCH  15   5
ATOM      5  N   UNL     1      16.397   7.966  20.156  0.00  0.00    -0.250 N 
ATOM      6  N   UNL     1      16.999   9.015  20.741  0.00  0.00    -0.065 NA
ATOM      7  N   UNL     1      18.159   8.585  21.225  0.00  0.00    -0.132 NA
ATOM     23  C   UNL     1      17.153   6.839  20.249  0.00  0.00    +0.136 A 
ATOM     24  C   UNL     1      18.268   7.253  20.932  0.00  0.00    +0.108 A 
BRANCH  24  25
ATOM     25  C   UNL     1      19.448   6.479  21.335  0.00  0.00    +0.218 C 
BRANCH  25   2
ATOM      2  O   UNL     1      20.514   6.678  20.402  0.00  0.00    -0.377 OA
ATOM     26  C   UNL     1      21.605   7.353  21.007  0.00  0.00    +0.194 C 
ENDBRANCH  25   2
ENDBRANCH  24  25
ENDBRANCH  15   5
ENDBRANCH  10  15
TORSDOF 6
ENDMDL
MODEL 6
REMARK VINA RESULT:      -5.7      1.562      2.222
REMARK  Name = 44716116
REMARK  7 active torsions:
REMARK  status: ('A' for Active; 'I' for Inactive)
REMARK    1  A    between atoms: O_2  and  C_25
REMARK    2  A    between atoms: O_2  and  C_26
REMARK    3  A    between atoms: N_4  and  C_17
REMARK    4  A    between atoms: N_5  and  C_15
REMARK    5  A    between atoms: C_9  and  C_16
REMARK    6  A    between atoms: C_10  and  C_15
REMARK    7  A    between atoms: C_24  and  C_25
REMARK                            x       y       z     vdW  Elec       q    Type
REMARK                         _______ _______ _______ _____ _____    ______ ____
ROOT
ATOM      3  N   UNL     1      11.287   7.888  20.140  0.00  0.00    -0.297 NA
ATOM      8  C   UNL     1      13.624   8.250  21.226  0.00  0.00    +0.005 C 
ATOM      9  C   UNL     1      12.566   9.173  21.860  0.00  0.00    +0.092 C 
ATOM     10  C   UNL     1      12.303   8.137  19.085  0.00  0.00    +0.078 C 
ATOM     11  C   UNL     1      13.668   8.505  19.707  0.00  0.00    +0.025 C 
ATOM     12  C   UNL     1      13.133   6.805  21.434  0.00  0.00    +0.020 C 
ATOM     13  C   UNL     1      11.241   9.028  21.089  0.00  0.00    +0.097 C 
ATOM     14  C   UNL     1      11.698   6.677  20.893  0.00  0.00    +0.085 C 
ENDROOT
BRANCH   9  16
ATOM      1  O   UNL     1      14.004  10.983  21.259  0.00  0.00    -0.275 OA
ATOM      4  N   UNL     1      12.241  11.383  22.726  0.00  0.00    -0.312 N 
ATOM     16  C   UNL     1      13.025  10.601  21.896  0.00  0.00    +0.218 C 
ATOM     27  H   UNL     1      11.432  10.963  23.174  0.00  0.00    +0.149 HD
BRANCH   4  17
ATOM     17  C   UNL     1      12.487  12.790  22.952  0.00  0.00    +0.073 C 
ATOM     18  C   UNL     1      12.001  13.219  24.341  0.00  0.00    +0.022 C 
ATOM     19  C   UNL     1      11.848  13.644  21.851  0.00  0.00    +0.022 C 
ATOM     20  C   UNL     1      10.477  13.261  24.440  0.00  0.00    +0.002 C 
ATOM     21  C   UNL     1      10.324  13.686  21.955  0.00  0.00    +0.002 C 
ATOM     22  C   UNL     1       9.865  14.125  23.343  0.00  0.00    +0.000 C 
ENDBRANCH   4  17
ENDBRANCH   9  16
BRANCH  10  15
ATOM     15  C   UNL     1      11.843   9.180  18.065  0.00  0.00    +0.164 C 
BRANCH  15   5
ATOM      5  N   UNL     1      12.834   9.332  16.945  0.00  0.00    -0.250 N 
ATOM      6  N   UNL     1      13.062   8.322  16.088  0.00  0.00    -0.065 NA
ATOM      7  N   UNL     1      13.977   8.740  15.221  0.00  0.00    -0.132 NA
ATOM     23  C   UNL     1      13.595  10.420  16.650  0.00  0.00    +0.136 A 
ATOM     24  C   UNL     1      14.315  10.024  15.552  0.00  0.00    +0.108 A 
BRANCH  24  25
ATOM     25  C   UNL     1      15.312  10.773  14.778  0.00  0.00    +0.218 C 
BRANCH  25   2
ATOM      2  O   UNL     1      14.732  11.265  13.567  0.00  0.00    -0.377 OA
ATOM     26  C   UNL     1      15.729  11.730  12.673  0.00  0.00    +0.194 C 
ENDBRANCH  25   2
ENDBRANCH  24  25
ENDBRANCH  15   5
ENDBRANCH  10  15
TORSDOF 6
ENDMDL
MODEL 7
REMARK VINA RESULT:      -5.6     27.326     28.810
REMARK  Name = 44716116
REMARK  7 active torsions:
REMARK  status: ('A' for Active; 'I' for Inactive)
REMARK    1  A    between atoms: O_2  and  C_25
REMARK    2  A    between atoms: O_2  and  C_26
REMARK    3  A    between atoms: N_4  and  C_17
REMARK    4  A    between atoms: N_5  and  C_15
REMARK    5  A    between atoms: C_9  and  C_16
REMARK    6  A    between atoms: C_10  and  C_15
REMARK    7  A    between atoms: C_24  and  C_25
REMARK                            x       y       z     vdW  Elec       q    Type
REMARK                         _______ _______ _______ _____ _____    ______ ____
ROOT
ATOM      3  N   UNL     1      -5.440 -12.352  17.306  0.00  0.00    -0.297 NA
ATOM      8  C   UNL     1      -6.029 -11.012  19.457  0.00  0.00    +0.005 C 
ATOM      9  C   UNL     1      -7.149 -12.005  19.095  0.00  0.00    +0.092 C 
ATOM     10  C   UNL     1      -5.297 -10.895  17.051  0.00  0.00    +0.078 C 
ATOM     11  C   UNL     1      -5.785 -10.070  18.261  0.00  0.00    +0.025 C 
ATOM     12  C   UNL     1      -4.747 -11.842  19.654  0.00  0.00    +0.020 C 
ATOM     13  C   UNL     1      -6.823 -12.664  17.743  0.00  0.00    +0.097 C 
ATOM     14  C   UNL     1      -4.514 -12.715  18.408  0.00  0.00    +0.085 C 
ENDROOT
BRANCH   9  16
ATOM      1  O   UNL     1      -9.073 -11.009  20.101  0.00  0.00    -0.275 OA
ATOM      4  N   UNL     1      -8.975 -11.180  17.781  0.00  0.00    -0.312 N 
ATOM     16  C   UNL     1      -8.494 -11.339  19.069  0.00  0.00    +0.218 C 
ATOM     27  H   UNL     1      -8.388 -11.460  17.001  0.00  0.00    +0.149 HD
BRANCH   4  17
ATOM     17  C   UNL     1     -10.260 -10.586  17.485  0.00  0.00    +0.073 C 
ATOM     18  C   UNL     1     -10.634 -10.788  16.013  0.00  0.00    +0.022 C 
ATOM     19  C   UNL     1     -10.280  -9.101  17.864  0.00  0.00    +0.022 C 
ATOM     20  C   UNL     1      -9.791  -9.929  15.071  0.00  0.00    +0.002 C 
ATOM     21  C   UNL     1      -9.437  -8.244  16.919  0.00  0.00    +0.002 C 
ATOM     22  C   UNL     1      -9.836  -8.456  15.461  0.00  0.00    +0.000 C 
ENDBRANCH   4  17
ENDBRANCH   9  16
BRANCH  10  15
ATOM     15  C   UNL     1      -5.980 -10.460  15.752  0.00  0.00    +0.164 C 
BRANCH  15   5
ATOM      5  N   UNL     1      -5.022 -10.470  14.595  0.00  0.00    -0.250 N 
ATOM      6  N   UNL     1      -3.706 -10.652  14.794  0.00  0.00    -0.065 NA
ATOM      7  N   UNL     1      -3.117 -10.608  13.604  0.00  0.00    -0.132 NA
ATOM     23  C   UNL     1      -5.311 -10.305  13.275  0.00  0.00    +0.136 A 
ATOM     24  C   UNL     1      -4.087 -10.396  12.662  0.00  0.00    +0.108 A 
BRANCH  24  25
ATOM     25  C   UNL     1      -3.755 -10.297  11.236  0.00  0.00    +0.218 C 
BRANCH  25   2
ATOM      2  O   UNL     1      -4.177  -9.033  10.716  0.00  0.00    -0.377 OA
ATOM     26  C   UNL     1      -4.145  -9.025   9.299  0.00  0.00    +0.194 C 
ENDBRANCH  25   2
ENDBRANCH  24  25
ENDBRANCH  15   5
ENDBRANCH  10  15
TORSDOF 6
ENDMDL
MODEL 8
REMARK VINA RESULT:      -5.5     10.932     16.044
REMARK  Name = 44716116
REMARK  7 active torsions:
REMARK  status: ('A' for Active; 'I' for Inactive)
REMARK    1  A    between atoms: O_2  and  C_25
REMARK    2  A    between atoms: O_2  and  C_26
REMARK    3  A    between atoms: N_4  and  C_17
REMARK    4  A    between atoms: N_5  and  C_15
REMARK    5  A    between atoms: C_9  and  C_16
REMARK    6  A    between atoms: C_10  and  C_15
REMARK    7  A    between atoms: C_24  and  C_25
REMARK                            x       y       z     vdW  Elec       q    Type
REMARK                         _______ _______ _______ _____ _____    ______ ____
ROOT
ATOM      3  N   UNL     1      10.519   7.191   7.718  0.00  0.00    -0.297 NA
ATOM      8  C   UNL     1       9.608   5.371   6.097  0.00  0.00    +0.005 C 
ATOM      9  C   UNL     1      11.015   5.838   5.677  0.00  0.00    +0.092 C 
ATOM     10  C   UNL     1       9.169   7.576   7.231  0.00  0.00    +0.078 C 
ATOM     11  C   UNL     1       8.669   6.592   6.151  0.00  0.00    +0.025 C 
ATOM     12  C   UNL     1       9.732   4.824   7.531  0.00  0.00    +0.020 C 
ATOM     13  C   UNL     1      11.447   7.011   6.574  0.00  0.00    +0.097 C 
ATOM     14  C   UNL     1      10.396   5.889   8.422  0.00  0.00    +0.085 C 
ENDROOT
BRANCH   9  16
ATOM      1  O   UNL     1      10.549   7.243   3.803  0.00  0.00    -0.275 OA
ATOM      4  N   UNL     1      11.724   5.263   3.461  0.00  0.00    -0.312 N 
ATOM     16  C   UNL     1      11.065   6.212   4.225  0.00  0.00    +0.218 C 
ATOM     27  H   UNL     1      12.143   4.465   3.928  0.00  0.00    +0.149 HD
BRANCH   4  17
ATOM     17  C   UNL     1      11.889   5.376   2.030  0.00  0.00    +0.073 C 
ATOM     18  C   UNL     1      11.735   4.012   1.347  0.00  0.00    +0.022 C 
ATOM     19  C   UNL     1      13.233   6.024   1.680  0.00  0.00    +0.022 C 
ATOM     20  C   UNL     1      12.922   3.087   1.617  0.00  0.00    +0.002 C 
ATOM     21  C   UNL     1      14.417   5.095   1.948  0.00  0.00    +0.002 C 
ATOM     22  C   UNL     1      14.246   3.748   1.250  0.00  0.00    +0.000 C 
ENDBRANCH   4  17
ENDBRANCH   9  16
BRANCH  10  15
ATOM     15  C   UNL     1       9.115   9.027   6.748  0.00  0.00    +0.164 C 
BRANCH  15   5
ATOM      5  N   UNL     1       9.827   9.950   7.696  0.00  0.00    -0.250 N 
ATOM      6  N   UNL     1      10.963  10.567   7.331  0.00  0.00    -0.065 NA
ATOM      7  N   UNL     1      11.360  11.305   8.362  0.00  0.00    -0.132 NA
ATOM     23  C   UNL     1       9.465  10.277   8.966  0.00  0.00    +0.136 A 
ATOM     24  C   UNL     1      10.452  11.138   9.372  0.00  0.00    +0.108 A 
BRANCH  24  25
ATOM     25  C   UNL     1      10.610  11.827  10.659  0.00  0.00    +0.218 C 
BRANCH  25   2
ATOM      2  O   UNL     1      10.660  13.242  10.460  0.00  0.00    -0.377 OA
ATOM     26  C   UNL     1       9.360  13.785  10.302  0.00  0.00    +0.194 C 
ENDBRANCH  25   2
ENDBRANCH  24  25
ENDBRANCH  15   5
ENDBRANCH  10  15
TORSDOF 6
ENDMDL
MODEL 9
REMARK VINA RESULT:      -5.4     28.960     30.981
REMARK  Name = 44716116
REMARK  7 active torsions:
REMARK  status: ('A' for Active; 'I' for Inactive)
REMARK    1  A    between atoms: O_2  and  C_25
REMARK    2  A    between atoms: O_2  and  C_26
REMARK    3  A    between atoms: N_4  and  C_17
REMARK    4  A    between atoms: N_5  and  C_15
REMARK    5  A    between atoms: C_9  and  C_16
REMARK    6  A    between atoms: C_10  and  C_15
REMARK    7  A    between atoms: C_24  and  C_25
REMARK                            x       y       z     vdW  Elec       q    Type
REMARK                         _______ _______ _______ _____ _____    ______ ____
ROOT
ATOM      3  N   UNL     1     -15.575   2.341  32.181  0.00  0.00    -0.297 NA
ATOM      8  C   UNL     1     -13.544   3.951  31.948  0.00  0.00    +0.005 C 
ATOM      9  C   UNL     1     -14.580   4.501  32.947  0.00  0.00    +0.092 C 
ATOM     10  C   UNL     1     -15.333   2.647  30.747  0.00  0.00    +0.078 C 
ATOM     11  C   UNL     1     -14.232   3.718  30.588  0.00  0.00    +0.025 C 
ATOM     12  C   UNL     1     -13.103   2.575  32.479  0.00  0.00    +0.020 C 
ATOM     13  C   UNL     1     -15.822   3.592  32.940  0.00  0.00    +0.097 C 
ATOM     14  C   UNL     1     -14.349   1.705  32.725  0.00  0.00    +0.085 C 
ENDROOT
BRANCH   9  16
ATOM      1  O   UNL     1     -15.983   6.219  32.062  0.00  0.00    -0.275 OA
ATOM      4  N   UNL     1     -13.970   6.815  33.068  0.00  0.00    -0.312 N 
ATOM     16  C   UNL     1     -14.942   5.925  32.643  0.00  0.00    +0.218 C 
ATOM     27  H   UNL     1     -13.165   6.456  33.572  0.00  0.00    +0.149 HD
BRANCH   4  17
ATOM     17  C   UNL     1     -14.068   8.245  32.875  0.00  0.00    +0.073 C 
ATOM     18  C   UNL     1     -13.167   8.709  31.725  0.00  0.00    +0.022 C 
ATOM     19  C   UNL     1     -13.749   8.999  34.171  0.00  0.00    +0.022 C 
ATOM     20  C   UNL     1     -11.683   8.654  32.088  0.00  0.00    +0.002 C 
ATOM     21  C   UNL     1     -12.264   8.944  34.528  0.00  0.00    +0.002 C 
ATOM     22  C   UNL     1     -11.388   9.420  33.372  0.00  0.00    +0.000 C 
ENDBRANCH   4  17
ENDBRANCH   9  16
BRANCH  10  15
ATOM     15  C   UNL     1     -16.616   3.036  30.008  0.00  0.00    +0.164 C 
BRANCH  15   5
ATOM      5  N   UNL     1     -16.759   2.280  28.717  0.00  0.00    -0.250 N 
ATOM      6  N   UNL     1     -16.873   0.942  28.713  0.00  0.00    -0.065 NA
ATOM      7  N   UNL     1     -16.978   0.558  27.446  0.00  0.00    -0.132 NA
ATOM     23  C   UNL     1     -16.788   2.789  27.455  0.00  0.00    +0.136 A 
ATOM     24  C   UNL     1     -16.928   1.678  26.662  0.00  0.00    +0.108 A 
BRANCH  24  25
ATOM     25  C   UNL     1     -17.018   1.590  25.200  0.00  0.00    +0.218 C 
BRANCH  25   2
ATOM      2  O   UNL     1     -15.989   2.375  24.591  0.00  0.00    -0.377 OA
ATOM     26  C   UNL     1     -16.505   3.167  23.534  0.00  0.00    +0.194 C 
ENDBRANCH  25   2
ENDBRANCH  24  25
ENDBRANCH  15   5
ENDBRANCH  10  15
TORSDOF 6
ENDMDL
MODEL 10
REMARK VINA RESULT:      -5.4     33.885     36.327
REMARK  Name = 44716116
REMARK  7 active torsions:
REMARK  status: ('A' for Active; 'I' for Inactive)
REMARK    1  A    between atoms: O_2  and  C_25
REMARK    2  A    between atoms: O_2  and  C_26
REMARK    3  A    between atoms: N_4  and  C_17
REMARK    4  A    between atoms: N_5  and  C_15
REMARK    5  A    between atoms: C_9  and  C_16
REMARK    6  A    between atoms: C_10  and  C_15
REMARK    7  A    between atoms: C_24  and  C_25
REMARK                            x       y       z     vdW  Elec       q    Type
REMARK                         _______ _______ _______ _____ _____    ______ ____
ROOT
ATOM      3  N   UNL     1       0.503 -13.012  -6.891  0.00  0.00    -0.297 NA
ATOM      8  C   UNL     1       1.936 -12.506  -4.779  0.00  0.00    +0.005 C 
ATOM      9  C   UNL     1       2.371 -13.825  -5.445  0.00  0.00    +0.092 C 
ATOM     10  C   UNL     1      -0.384 -12.743  -5.729  0.00  0.00    +0.078 C 
ATOM     11  C   UNL     1       0.437 -12.590  -4.430  0.00  0.00    +0.025 C 
ATOM     12  C   UNL     1       2.099 -11.400  -5.838  0.00  0.00    +0.020 C 
ATOM     13  C   UNL     1       1.404 -14.154  -6.597  0.00  0.00    +0.097 C 
ATOM     14  C   UNL     1       1.341 -11.807  -7.114  0.00  0.00    +0.085 C 
ENDROOT
BRANCH   9  16
ATOM      1  O   UNL     1       1.939 -16.046  -4.680  0.00  0.00    -0.275 OA
ATOM      4  N   UNL     1       3.109 -14.585  -3.296  0.00  0.00    -0.312 N 
ATOM     16  C   UNL     1       2.444 -14.950  -4.454  0.00  0.00    +0.218 C 
ATOM     27  H   UNL     1       3.518 -13.658  -3.238  0.00  0.00    +0.149 HD
BRANCH   4  17
ATOM     17  C   UNL     1       3.296 -15.481  -2.176  0.00  0.00    +0.073 C 
ATOM     18  C   UNL     1       2.048 -15.520  -1.287  0.00  0.00    +0.022 C 
ATOM     19  C   UNL     1       4.541 -15.100  -1.368  0.00  0.00    +0.022 C 
ATOM     20  C   UNL     1       1.859 -14.231  -0.488  0.00  0.00    +0.002 C 
ATOM     21  C   UNL     1       4.348 -13.812  -0.567  0.00  0.00    +0.002 C 
ATOM     22  C   UNL     1       3.106 -13.879   0.316  0.00  0.00    +0.000 C 
ENDBRANCH   4  17
ENDBRANCH   9  16
BRANCH  10  15
ATOM     15  C   UNL     1      -1.489 -13.791  -5.583  0.00  0.00    +0.164 C 
BRANCH  15   5
ATOM      5  N   UNL     1      -2.826 -13.151  -5.332  0.00  0.00    -0.250 N 
ATOM      6  N   UNL     1      -3.112 -11.938  -5.834  0.00  0.00    -0.065 NA
ATOM      7  N   UNL     1      -4.347 -11.633  -5.449  0.00  0.00    -0.132 NA
ATOM     23  C   UNL     1      -3.867 -13.654  -4.614  0.00  0.00    +0.136 A 
ATOM     24  C   UNL     1      -4.823 -12.674  -4.700  0.00  0.00    +0.108 A 
BRANCH  24  25
ATOM     25  C   UNL     1      -6.171 -12.642  -4.122  0.00  0.00    +0.218 C 
BRANCH  25   2
ATOM      2  O   UNL     1      -6.625 -11.291  -3.998  0.00  0.00    -0.377 OA
ATOM     26  C   UNL     1      -7.015 -11.001  -2.665  0.00  0.00    +0.194 C 
ENDBRANCH  25   2
ENDBRANCH  24  25
ENDBRANCH  15   5
ENDBRANCH  10  15
TORSDOF 6
ENDMDL
