MODEL 1
REMARK VINA RESULT:      -6.4      0.000      0.000
REMARK  Name = 45361325
REMARK  10 active torsions:
REMARK  status: ('A' for Active; 'I' for Inactive)
REMARK    1  A    between atoms: O_2  and  C_10
REMARK    2  A    between atoms: N_6  and  C_28
REMARK    3  A    between atoms: N_6  and  C_29
REMARK    4  A    between atoms: C_8  and  C_16
REMARK    5  A    between atoms: C_11  and  C_17
REMARK    6  A    between atoms: C_13  and  C_20
REMARK    7  A    between atoms: C_17  and  C_21
REMARK    8  A    between atoms: C_17  and  C_22
REMARK    9  A    between atoms: C_24  and  C_27
REMARK   10  A    between atoms: C_28  and  C_30
REMARK                            x       y       z     vdW  Elec       q    Type
REMARK                         _______ _______ _______ _____ _____    ______ ____
ROOT
ATOM      1  S   UNL     1      -5.593 -10.153   6.746  0.00  0.00    -0.057 S 
ATOM      4  O   UNL     1      -9.091  -7.027   6.774  0.00  0.00    -0.275 OA
ATOM      5  N   UNL     1      -7.060  -8.688   8.290  0.00  0.00    -0.229 NA
ATOM      7  N   UNL     1      -7.494  -8.545   5.924  0.00  0.00    -0.264 N 
ATOM      8  C   UNL     1      -3.928 -10.542  10.487  0.00  0.00    -0.022 C 
ATOM      9  C   UNL     1      -5.270 -10.310  11.287  0.00  0.00    +0.033 C 
ATOM     10  C   UNL     1      -4.992 -10.024  12.790  0.00  0.00    +0.123 C 
ATOM     11  C   UNL     1      -4.078 -11.085  13.442  0.00  0.00    +0.029 C 
ATOM     12  C   UNL     1      -3.083 -11.630  11.189  0.00  0.00    +0.008 C 
ATOM     13  C   UNL     1      -6.191  -9.222  10.597  0.00  0.00    +0.042 C 
ATOM     14  C   UNL     1      -2.791 -11.312  12.649  0.00  0.00    +0.007 C 
ATOM     15  C   UNL     1      -4.253 -11.057   9.050  0.00  0.00    +0.051 C 
ATOM     16  C   UNL     1      -3.086  -9.244  10.376  0.00  0.00    +0.012 C 
ATOM     18  C   UNL     1      -6.192  -9.402   9.098  0.00  0.00    +0.057 A 
ATOM     19  C   UNL     1      -5.311 -10.221   8.423  0.00  0.00    +0.015 A 
ATOM     20  C   UNL     1      -7.632  -9.224  11.126  0.00  0.00    +0.014 C 
ATOM     23  C   UNL     1      -6.844  -9.013   7.035  0.00  0.00    +0.165 A 
ATOM     27  C   UNL     1      -8.549  -7.609   5.843  0.00  0.00    +0.222 C 
ATOM     33  H   UNL     1      -7.153  -8.933   5.047  0.00  0.00    +0.157 HD
ENDROOT
BRANCH  27  24
ATOM     24  C   UNL     1      -9.026  -7.324   4.454  0.00  0.00    +0.075 C 
ATOM     25  C   UNL     1     -10.466  -6.964   4.235  0.00  0.00    +0.013 C 
ATOM     26  C   UNL     1      -9.951  -8.299   3.785  0.00  0.00    +0.013 C 
ENDBRANCH  27  24
BRANCH  10   2
ATOM      2  O   UNL     1      -6.223 -10.027  13.509  0.00  0.00    -0.391 OA
ATOM     32  H   UNL     1      -6.379 -10.929  13.837  0.00  0.00    +0.210 HD
ENDBRANCH  10   2
BRANCH  11  17
ATOM     17  C   UNL     1      -3.731 -10.725  14.892  0.00  0.00    +0.078 C 
ATOM     21  C   UNL     1      -2.213 -10.631  15.044  0.00  0.00    +0.017 C 
BRANCH  17  22
ATOM      3  O   UNL     1      -3.968 -12.957  15.725  0.00  0.00    -0.275 OA
ATOM      6  N   UNL     1      -5.245 -11.350  16.792  0.00  0.00    -0.301 N 
ATOM     22  C   UNL     1      -4.316 -11.776  15.839  0.00  0.00    +0.219 C 
ATOM     29  C   UNL     1      -5.837 -12.330  17.696  0.00  0.00    +0.132 C 
BRANCH   6  28
ATOM     28  C   UNL     1      -5.681  -9.973  17.017  0.00  0.00    +0.134 C 
BRANCH  28  30
ATOM     30  C   UNL     1      -7.126  -9.973  17.394  0.00  0.00    -0.016 C 
ATOM     31  C   UNL     1      -8.039  -9.162  16.846  0.00  0.00    +0.005 C 
ENDBRANCH  28  30
ENDBRANCH   6  28
ENDBRANCH  17  22
ENDBRANCH  11  17
TORSDOF 6
ENDMDL
MODEL 2
REMARK VINA RESULT:      -6.4     27.905     31.197
REMARK  Name = 45361325
REMARK  10 active torsions:
REMARK  status: ('A' for Active; 'I' for Inactive)
REMARK    1  A    between atoms: O_2  and  C_10
REMARK    2  A    between atoms: N_6  and  C_28
REMARK    3  A    between atoms: N_6  and  C_29
REMARK    4  A    between atoms: C_8  and  C_16
REMARK    5  A    between atoms: C_11  and  C_17
REMARK    6  A    between atoms: C_13  and  C_20
REMARK    7  A    between atoms: C_17  and  C_21
REMARK    8  A    between atoms: C_17  and  C_22
REMARK    9  A    between atoms: C_24  and  C_27
REMARK   10  A    between atoms: C_28  and  C_30
REMARK                            x       y       z     vdW  Elec       q    Type
REMARK                         _______ _______ _______ _____ _____    ______ ____
ROOT
ATOM      1  S   UNL     1      19.307   5.083  20.137  0.00  0.00    -0.057 S 
ATOM      4  O   UNL     1      21.708   6.838  23.766  0.00  0.00    -0.275 OA
ATOM      5  N   UNL     1      19.360   7.011  21.859  0.00  0.00    -0.229 NA
ATOM      7  N   UNL     1      21.134   5.387  21.994  0.00  0.00    -0.264 N 
ATOM      8  C   UNL     1      15.751   7.081  19.612  0.00  0.00    -0.022 C 
ATOM      9  C   UNL     1      16.289   8.493  20.073  0.00  0.00    +0.033 C 
ATOM     10  C   UNL     1      15.120   9.479  20.360  0.00  0.00    +0.123 C 
ATOM     11  C   UNL     1      14.114   9.570  19.191  0.00  0.00    +0.029 C 
ATOM     12  C   UNL     1      14.772   7.257  18.428  0.00  0.00    +0.008 C 
ATOM     13  C   UNL     1      17.320   8.374  21.268  0.00  0.00    +0.042 C 
ATOM     14  C   UNL     1      13.615   8.196  18.742  0.00  0.00    +0.007 C 
ATOM     15  C   UNL     1      16.939   6.203  19.109  0.00  0.00    +0.051 C 
ATOM     16  C   UNL     1      15.025   6.333  20.760  0.00  0.00    +0.012 C 
ATOM     18  C   UNL     1      18.258   7.212  21.044  0.00  0.00    +0.057 A 
ATOM     19  C   UNL     1      18.066   6.246  20.079  0.00  0.00    +0.015 A 
ATOM     20  C   UNL     1      18.126   9.659  21.505  0.00  0.00    +0.014 C 
ATOM     23  C   UNL     1      19.993   5.928  21.466  0.00  0.00    +0.165 A 
ATOM     27  C   UNL     1      21.914   5.847  23.079  0.00  0.00    +0.222 C 
ATOM     33  H   UNL     1      21.445   4.535  21.530  0.00  0.00    +0.157 HD
ENDROOT
BRANCH  27  24
ATOM     24  C   UNL     1      23.110   5.002  23.391  0.00  0.00    +0.075 C 
ATOM     25  C   UNL     1      23.151   3.585  22.901  0.00  0.00    +0.013 C 
ATOM     26  C   UNL     1      22.969   3.867  24.363  0.00  0.00    +0.013 C 
ENDBRANCH  27  24
BRANCH  10   2
ATOM      2  O   UNL     1      15.645  10.789  20.569  0.00  0.00    -0.391 OA
ATOM     32  H   UNL     1      15.359  11.091  21.448  0.00  0.00    +0.210 HD
ENDBRANCH  10   2
BRANCH  11  17
ATOM     17  C   UNL     1      12.917  10.464  19.538  0.00  0.00    +0.078 C 
ATOM     21  C   UNL     1      13.201  11.895  19.079  0.00  0.00    +0.017 C 
BRANCH  17  22
ATOM      3  O   UNL     1      13.274  11.169  21.798  0.00  0.00    -0.275 OA
ATOM      6  N   UNL     1      11.720   9.479  21.510  0.00  0.00    -0.301 N 
ATOM     22  C   UNL     1      12.652  10.411  21.045  0.00  0.00    +0.219 C 
ATOM     29  C   UNL     1      11.459   9.388  22.943  0.00  0.00    +0.132 C 
BRANCH   6  28
ATOM     28  C   UNL     1      10.919   8.575  20.687  0.00  0.00    +0.134 C 
BRANCH  28  30
ATOM     30  C   UNL     1      10.730   7.287  21.417  0.00  0.00    -0.016 C 
ATOM     31  C   UNL     1      11.483   6.199  21.215  0.00  0.00    +0.005 C 
ENDBRANCH  28  30
ENDBRANCH   6  28
ENDBRANCH  17  22
ENDBRANCH  11  17
TORSDOF 6
ENDMDL
MODEL 3
REMARK VINA RESULT:      -6.1     29.063     32.074
REMARK  Name = 45361325
REMARK  10 active torsions:
REMARK  status: ('A' for Active; 'I' for Inactive)
REMARK    1  A    between atoms: O_2  and  C_10
REMARK    2  A    between atoms: N_6  and  C_28
REMARK    3  A    between atoms: N_6  and  C_29
REMARK    4  A    between atoms: C_8  and  C_16
REMARK    5  A    between atoms: C_11  and  C_17
REMARK    6  A    between atoms: C_13  and  C_20
REMARK    7  A    between atoms: C_17  and  C_21
REMARK    8  A    between atoms: C_17  and  C_22
REMARK    9  A    between atoms: C_24  and  C_27
REMARK   10  A    between atoms: C_28  and  C_30
REMARK                            x       y       z     vdW  Elec       q    Type
REMARK                         _______ _______ _______ _____ _____    ______ ____
ROOT
ATOM      1  S   UNL     1      19.662   4.879  20.204  0.00  0.00    -0.057 S 
ATOM      4  O   UNL     1      22.314   6.435  23.748  0.00  0.00    -0.275 OA
ATOM      5  N   UNL     1      19.892   6.766  21.957  0.00  0.00    -0.229 NA
ATOM      7  N   UNL     1      21.585   5.052  21.978  0.00  0.00    -0.264 N 
ATOM      8  C   UNL     1      16.192   7.065  19.884  0.00  0.00    -0.022 C 
ATOM      9  C   UNL     1      16.822   8.438  20.345  0.00  0.00    +0.033 C 
ATOM     10  C   UNL     1      15.720   9.474  20.705  0.00  0.00    +0.123 C 
ATOM     11  C   UNL     1      14.668   9.640  19.586  0.00  0.00    +0.029 C 
ATOM     12  C   UNL     1      15.170   7.314  18.751  0.00  0.00    +0.008 C 
ATOM     13  C   UNL     1      17.900   8.242  21.489  0.00  0.00    +0.042 C 
ATOM     14  C   UNL     1      14.079   8.303  19.137  0.00  0.00    +0.007 C 
ATOM     15  C   UNL     1      17.310   6.139  19.309  0.00  0.00    +0.051 C 
ATOM     16  C   UNL     1      15.483   6.330  21.051  0.00  0.00    +0.012 C 
ATOM     18  C   UNL     1      18.766   7.039  21.199  0.00  0.00    +0.057 A 
ATOM     19  C   UNL     1      18.481   6.105  20.226  0.00  0.00    +0.015 A 
ATOM     20  C   UNL     1      18.781   9.479  21.711  0.00  0.00    +0.014 C 
ATOM     23  C   UNL     1      20.450   5.661  21.515  0.00  0.00    +0.165 A 
ATOM     27  C   UNL     1      22.437   5.449  23.034  0.00  0.00    +0.222 C 
ATOM     33  H   UNL     1      21.830   4.196  21.485  0.00  0.00    +0.157 HD
ENDROOT
BRANCH  27  24
ATOM     24  C   UNL     1      23.601   4.539  23.274  0.00  0.00    +0.075 C 
ATOM     25  C   UNL     1      23.553   3.137  22.743  0.00  0.00    +0.013 C 
ATOM     26  C   UNL     1      23.442   3.384  24.219  0.00  0.00    +0.013 C 
ENDBRANCH  27  24
BRANCH  10   2
ATOM      2  O   UNL     1      16.321  10.752  20.914  0.00  0.00    -0.391 OA
ATOM     32  H   UNL     1      16.495  10.851  21.866  0.00  0.00    +0.210 HD
ENDBRANCH  10   2
BRANCH  11  17
ATOM     17  C   UNL     1      13.535  10.586  20.006  0.00  0.00    +0.078 C 
ATOM     21  C   UNL     1      12.225   9.803  20.097  0.00  0.00    +0.017 C 
BRANCH  17  22
ATOM      3  O   UNL     1      13.525  11.495  17.791  0.00  0.00    -0.275 OA
ATOM      6  N   UNL     1      13.220  13.023  19.500  0.00  0.00    -0.301 N 
ATOM     22  C   UNL     1      13.421  11.734  18.999  0.00  0.00    +0.219 C 
ATOM     29  C   UNL     1      13.127  14.142  18.569  0.00  0.00    +0.132 C 
BRANCH   6  28
ATOM     28  C   UNL     1      13.049  13.385  20.906  0.00  0.00    +0.134 C 
BRANCH  28  30
ATOM     30  C   UNL     1      11.592  13.503  21.208  0.00  0.00    -0.016 C 
ATOM     31  C   UNL     1      10.935  12.688  22.040  0.00  0.00    +0.005 C 
ENDBRANCH  28  30
ENDBRANCH   6  28
ENDBRANCH  17  22
ENDBRANCH  11  17
TORSDOF 6
ENDMDL
MODEL 4
REMARK VINA RESULT:      -6.1     23.949     26.787
REMARK  Name = 45361325
REMARK  10 active torsions:
REMARK  status: ('A' for Active; 'I' for Inactive)
REMARK    1  A    between atoms: O_2  and  C_10
REMARK    2  A    between atoms: N_6  and  C_28
REMARK    3  A    between atoms: N_6  and  C_29
REMARK    4  A    between atoms: C_8  and  C_16
REMARK    5  A    between atoms: C_11  and  C_17
REMARK    6  A    between atoms: C_13  and  C_20
REMARK    7  A    between atoms: C_17  and  C_21
REMARK    8  A    between atoms: C_17  and  C_22
REMARK    9  A    between atoms: C_24  and  C_27
REMARK   10  A    between atoms: C_28  and  C_30
REMARK                            x       y       z     vdW  Elec       q    Type
REMARK                         _______ _______ _______ _____ _____    ______ ____
ROOT
ATOM      1  S   UNL     1       9.257   7.713   7.913  0.00  0.00    -0.057 S 
ATOM      4  O   UNL     1      11.544  11.769   8.481  0.00  0.00    -0.275 OA
ATOM      5  N   UNL     1      11.110   9.213   6.913  0.00  0.00    -0.229 NA
ATOM      7  N   UNL     1      10.013  10.021   8.900  0.00  0.00    -0.264 N 
ATOM      8  C   UNL     1      10.245   5.947   4.332  0.00  0.00    -0.022 C 
ATOM      9  C   UNL     1      11.744   6.446   4.313  0.00  0.00    +0.033 C 
ATOM     10  C   UNL     1      12.381   6.276   2.904  0.00  0.00    +0.123 C 
ATOM     11  C   UNL     1      12.215   4.847   2.342  0.00  0.00    +0.029 C 
ATOM     12  C   UNL     1      10.169   4.506   3.777  0.00  0.00    +0.008 C 
ATOM     13  C   UNL     1      11.889   7.911   4.898  0.00  0.00    +0.042 C 
ATOM     14  C   UNL     1      10.763   4.369   2.382  0.00  0.00    +0.007 C 
ATOM     15  C   UNL     1       9.720   5.911   5.801  0.00  0.00    +0.051 C 
ATOM     16  C   UNL     1       9.318   6.862   3.490  0.00  0.00    +0.012 C 
ATOM     18  C   UNL     1      11.021   8.081   6.121  0.00  0.00    +0.057 A 
ATOM     19  C   UNL     1      10.050   7.179   6.504  0.00  0.00    +0.015 A 
ATOM     20  C   UNL     1      13.339   8.291   5.228  0.00  0.00    +0.014 C 
ATOM     23  C   UNL     1      10.238   9.122   7.893  0.00  0.00    +0.165 A 
ATOM     27  C   UNL     1      10.651  11.258   9.143  0.00  0.00    +0.222 C 
ATOM     33  H   UNL     1       9.280   9.744   9.550  0.00  0.00    +0.157 HD
ENDROOT
BRANCH  27  24
ATOM     24  C   UNL     1      10.151  11.993  10.348  0.00  0.00    +0.075 C 
ATOM     25  C   UNL     1       8.766  11.712  10.851  0.00  0.00    +0.013 C 
ATOM     26  C   UNL     1       9.068  13.019  10.180  0.00  0.00    +0.013 C 
ENDBRANCH  27  24
BRANCH  10   2
ATOM      2  O   UNL     1      13.780   6.540   2.981  0.00  0.00    -0.391 OA
ATOM     32  H   UNL     1      14.112   6.165   3.815  0.00  0.00    +0.210 HD
ENDBRANCH  10   2
BRANCH  11  17
ATOM     17  C   UNL     1      12.755   4.731   0.911  0.00  0.00    +0.078 C 
ATOM     21  C   UNL     1      11.722   4.025   0.033  0.00  0.00    +0.017 C 
BRANCH  17  22
ATOM      3  O   UNL     1      14.263   3.071   1.749  0.00  0.00    -0.275 OA
ATOM      6  N   UNL     1      15.056   4.345  -0.012  0.00  0.00    -0.301 N 
ATOM     22  C   UNL     1      14.083   3.970   0.920  0.00  0.00    +0.219 C 
ATOM     29  C   UNL     1      16.341   3.654  -0.016  0.00  0.00    +0.132 C 
BRANCH   6  28
ATOM     28  C   UNL     1      14.911   5.368  -1.045  0.00  0.00    +0.134 C 
BRANCH  28  30
ATOM     30  C   UNL     1      14.915   4.713  -2.386  0.00  0.00    -0.016 C 
ATOM     31  C   UNL     1      13.816   4.247  -2.992  0.00  0.00    +0.005 C 
ENDBRANCH  28  30
ENDBRANCH   6  28
ENDBRANCH  17  22
ENDBRANCH  11  17
TORSDOF 6
ENDMDL
MODEL 5
REMARK VINA RESULT:      -6.0     28.882     32.269
REMARK  Name = 45361325
REMARK  10 active torsions:
REMARK  status: ('A' for Active; 'I' for Inactive)
REMARK    1  A    between atoms: O_2  and  C_10
REMARK    2  A    between atoms: N_6  and  C_28
REMARK    3  A    between atoms: N_6  and  C_29
REMARK    4  A    between atoms: C_8  and  C_16
REMARK    5  A    between atoms: C_11  and  C_17
REMARK    6  A    between atoms: C_13  and  C_20
REMARK    7  A    between atoms: C_17  and  C_21
REMARK    8  A    between atoms: C_17  and  C_22
REMARK    9  A    between atoms: C_24  and  C_27
REMARK   10  A    between atoms: C_28  and  C_30
REMARK                            x       y       z     vdW  Elec       q    Type
REMARK                         _______ _______ _______ _____ _____    ______ ____
ROOT
ATOM      1  S   UNL     1      20.523   6.017  21.252  0.00  0.00    -0.057 S 
ATOM      4  O   UNL     1      22.106   8.996  24.513  0.00  0.00    -0.275 OA
ATOM      5  N   UNL     1      19.962   8.196  22.526  0.00  0.00    -0.229 NA
ATOM      7  N   UNL     1      22.052   7.128  23.069  0.00  0.00    -0.264 N 
ATOM      8  C   UNL     1      16.655   6.917  20.181  0.00  0.00    -0.022 C 
ATOM      9  C   UNL     1      16.799   8.481  20.352  0.00  0.00    +0.033 C 
ATOM     10  C   UNL     1      15.409   9.178  20.378  0.00  0.00    +0.123 C 
ATOM     11  C   UNL     1      14.518   8.783  19.180  0.00  0.00    +0.029 C 
ATOM     12  C   UNL     1      15.771   6.606  18.951  0.00  0.00    +0.008 C 
ATOM     13  C   UNL     1      17.719   8.861  21.583  0.00  0.00    +0.042 C 
ATOM     14  C   UNL     1      14.401   7.268  19.015  0.00  0.00    +0.007 C 
ATOM     15  C   UNL     1      18.057   6.284  19.921  0.00  0.00    +0.051 C 
ATOM     16  C   UNL     1      16.028   6.251  21.434  0.00  0.00    +0.012 C 
ATOM     18  C   UNL     1      18.922   7.951  21.646  0.00  0.00    +0.057 A 
ATOM     19  C   UNL     1      19.051   6.798  20.901  0.00  0.00    +0.015 A 
ATOM     20  C   UNL     1      18.172  10.328  21.572  0.00  0.00    +0.014 C 
ATOM     23  C   UNL     1      20.867   7.251  22.396  0.00  0.00    +0.165 A 
ATOM     27  C   UNL     1      22.601   7.972  24.061  0.00  0.00    +0.222 C 
ATOM     33  H   UNL     1      22.596   6.308  22.809  0.00  0.00    +0.157 HD
ENDROOT
BRANCH  27  24
ATOM     24  C   UNL     1      23.931   7.533  24.590  0.00  0.00    +0.075 C 
ATOM     25  C   UNL     1      24.952   8.571  24.950  0.00  0.00    +0.013 C 
ATOM     26  C   UNL     1      25.152   7.713  23.735  0.00  0.00    +0.013 C 
ENDBRANCH  27  24
BRANCH  10   2
ATOM      2  O   UNL     1      15.587  10.593  20.325  0.00  0.00    -0.391 OA
ATOM     32  H   UNL     1      16.531  10.772  20.171  0.00  0.00    +0.210 HD
ENDBRANCH  10   2
BRANCH  11  17
ATOM     17  C   UNL     1      13.117   9.398  19.284  0.00  0.00    +0.078 C 
ATOM     21  C   UNL     1      12.430   8.888  20.551  0.00  0.00    +0.017 C 
BRANCH  17  22
ATOM      3  O   UNL     1      11.404   8.202  18.116  0.00  0.00    -0.275 OA
ATOM      6  N   UNL     1      12.633   9.689  16.839  0.00  0.00    -0.301 N 
ATOM     22  C   UNL     1      12.304   9.046  18.036  0.00  0.00    +0.219 C 
ATOM     29  C   UNL     1      11.892   9.360  15.627  0.00  0.00    +0.132 C 
BRANCH   6  28
ATOM     28  C   UNL     1      13.655  10.720  16.667  0.00  0.00    +0.134 C 
BRANCH  28  30
ATOM     30  C   UNL     1      14.134  10.703  15.254  0.00  0.00    -0.016 C 
ATOM     31  C   UNL     1      15.425  10.741  14.904  0.00  0.00    +0.005 C 
ENDBRANCH  28  30
ENDBRANCH   6  28
ENDBRANCH  17  22
ENDBRANCH  11  17
TORSDOF 6
ENDMDL
MODEL 6
REMARK VINA RESULT:      -6.0     20.243     23.010
REMARK  Name = 45361325
REMARK  10 active torsions:
REMARK  status: ('A' for Active; 'I' for Inactive)
REMARK    1  A    between atoms: O_2  and  C_10
REMARK    2  A    between atoms: N_6  and  C_28
REMARK    3  A    between atoms: N_6  and  C_29
REMARK    4  A    between atoms: C_8  and  C_16
REMARK    5  A    between atoms: C_11  and  C_17
REMARK    6  A    between atoms: C_13  and  C_20
REMARK    7  A    between atoms: C_17  and  C_21
REMARK    8  A    between atoms: C_17  and  C_22
REMARK    9  A    between atoms: C_24  and  C_27
REMARK   10  A    between atoms: C_28  and  C_30
REMARK                            x       y       z     vdW  Elec       q    Type
REMARK                         _______ _______ _______ _____ _____    ______ ____
ROOT
ATOM      1  S   UNL     1     -13.876   5.681  22.179  0.00  0.00    -0.057 S 
ATOM      4  O   UNL     1     -18.205   4.865  20.564  0.00  0.00    -0.275 OA
ATOM      5  N   UNL     1     -15.581   6.367  20.360  0.00  0.00    -0.229 NA
ATOM      7  N   UNL     1     -16.287   4.681  21.929  0.00  0.00    -0.264 N 
ATOM      8  C   UNL     1     -11.789   8.147  19.633  0.00  0.00    -0.022 C 
ATOM      9  C   UNL     1     -13.037   9.002  19.176  0.00  0.00    +0.033 C 
ATOM     10  C   UNL     1     -12.714   9.842  17.907  0.00  0.00    +0.123 C 
ATOM     11  C   UNL     1     -11.429  10.686  18.061  0.00  0.00    +0.029 C 
ATOM     12  C   UNL     1     -10.555   9.067  19.785  0.00  0.00    +0.008 C 
ATOM     13  C   UNL     1     -14.341   8.116  19.029  0.00  0.00    +0.042 C 
ATOM     14  C   UNL     1     -10.234   9.852  18.520  0.00  0.00    +0.007 C 
ATOM     15  C   UNL     1     -12.071   7.509  21.029  0.00  0.00    +0.051 C 
ATOM     16  C   UNL     1     -11.456   7.019  18.623  0.00  0.00    +0.012 C 
ATOM     18  C   UNL     1     -14.441   7.129  20.168  0.00  0.00    +0.057 A 
ATOM     19  C   UNL     1     -13.411   6.865  21.047  0.00  0.00    +0.015 A 
ATOM     20  C   UNL     1     -15.630   8.944  18.940  0.00  0.00    +0.014 C 
ATOM     23  C   UNL     1     -15.402   5.580  21.398  0.00  0.00    +0.165 A 
ATOM     27  C   UNL     1     -17.600   4.374  21.507  0.00  0.00    +0.222 C 
ATOM     33  H   UNL     1     -15.930   4.172  22.735  0.00  0.00    +0.157 HD
ENDROOT
BRANCH  27  24
ATOM     24  C   UNL     1     -18.291   3.329  22.327  0.00  0.00    +0.075 C 
ATOM     25  C   UNL     1     -17.466   2.312  23.058  0.00  0.00    +0.013 C 
ATOM     26  C   UNL     1     -18.270   1.902  21.859  0.00  0.00    +0.013 C 
ENDBRANCH  27  24
BRANCH  10   2
ATOM      2  O   UNL     1     -13.787  10.747  17.652  0.00  0.00    -0.391 OA
ATOM     32  H   UNL     1     -14.623  10.267  17.783  0.00  0.00    +0.210 HD
ENDBRANCH  10   2
BRANCH  11  17
ATOM     17  C   UNL     1     -11.074  11.423  16.763  0.00  0.00    +0.078 C 
ATOM     21  C   UNL     1     -10.404  10.449  15.792  0.00  0.00    +0.017 C 
BRANCH  17  22
ATOM      3  O   UNL     1      -8.932  12.477  16.947  0.00  0.00    -0.275 OA
ATOM      6  N   UNL     1     -10.747  13.793  17.518  0.00  0.00    -0.301 N 
ATOM     22  C   UNL     1     -10.155  12.607  17.075  0.00  0.00    +0.219 C 
ATOM     29  C   UNL     1      -9.898  14.933  17.844  0.00  0.00    +0.132 C 
BRANCH   6  28
ATOM     28  C   UNL     1     -12.181  14.040  17.661  0.00  0.00    +0.134 C 
BRANCH  28  30
ATOM     30  C   UNL     1     -12.496  14.262  19.103  0.00  0.00    -0.016 C 
ATOM     31  C   UNL     1     -13.190  13.400  19.856  0.00  0.00    +0.005 C 
ENDBRANCH  28  30
ENDBRANCH   6  28
ENDBRANCH  17  22
ENDBRANCH  11  17
TORSDOF 6
ENDMDL
MODEL 7
REMARK VINA RESULT:      -5.9      6.316     11.075
REMARK  Name = 45361325
REMARK  10 active torsions:
REMARK  status: ('A' for Active; 'I' for Inactive)
REMARK    1  A    between atoms: O_2  and  C_10
REMARK    2  A    between atoms: N_6  and  C_28
REMARK    3  A    between atoms: N_6  and  C_29
REMARK    4  A    between atoms: C_8  and  C_16
REMARK    5  A    between atoms: C_11  and  C_17
REMARK    6  A    between atoms: C_13  and  C_20
REMARK    7  A    between atoms: C_17  and  C_21
REMARK    8  A    between atoms: C_17  and  C_22
REMARK    9  A    between atoms: C_24  and  C_27
REMARK   10  A    between atoms: C_28  and  C_30
REMARK                            x       y       z     vdW  Elec       q    Type
REMARK                         _______ _______ _______ _____ _____    ______ ____
ROOT
ATOM      1  S   UNL     1     -10.676 -10.617  19.878  0.00  0.00    -0.057 S 
ATOM      4  O   UNL     1     -11.407 -14.870  21.718  0.00  0.00    -0.275 OA
ATOM      5  N   UNL     1      -9.760 -13.033  19.959  0.00  0.00    -0.229 NA
ATOM      7  N   UNL     1     -11.743 -12.580  21.250  0.00  0.00    -0.264 N 
ATOM      8  C   UNL     1      -7.071 -10.461  17.902  0.00  0.00    -0.022 C 
ATOM      9  C   UNL     1      -7.101 -11.956  17.393  0.00  0.00    +0.033 C 
ATOM     10  C   UNL     1      -5.703 -12.408  16.883  0.00  0.00    +0.123 C 
ATOM     11  C   UNL     1      -5.098 -11.431  15.850  0.00  0.00    +0.029 C 
ATOM     12  C   UNL     1      -6.476  -9.548  16.806  0.00  0.00    +0.008 C 
ATOM     13  C   UNL     1      -7.728 -12.936  18.466  0.00  0.00    +0.042 C 
ATOM     14  C   UNL     1      -5.091  -9.986  16.348  0.00  0.00    +0.007 C 
ATOM     15  C   UNL     1      -8.527  -9.970  18.179  0.00  0.00    +0.051 C 
ATOM     16  C   UNL     1      -6.234 -10.305  19.198  0.00  0.00    +0.012 C 
ATOM     18  C   UNL     1      -8.935 -12.305  19.118  0.00  0.00    +0.057 A 
ATOM     19  C   UNL     1      -9.271 -10.975  18.985  0.00  0.00    +0.015 A 
ATOM     20  C   UNL     1      -8.102 -14.309  17.889  0.00  0.00    +0.014 C 
ATOM     23  C   UNL     1     -10.717 -12.251  20.406  0.00  0.00    +0.165 A 
ATOM     27  C   UNL     1     -12.034 -13.828  21.847  0.00  0.00    +0.222 C 
ATOM     33  H   UNL     1     -12.368 -11.807  21.468  0.00  0.00    +0.157 HD
ENDROOT
BRANCH  27  24
ATOM     24  C   UNL     1     -13.246 -13.832  22.725  0.00  0.00    +0.075 C 
ATOM     25  C   UNL     1     -13.635 -12.572  23.439  0.00  0.00    +0.013 C 
ATOM     26  C   UNL     1     -13.071 -13.728  24.212  0.00  0.00    +0.013 C 
ENDBRANCH  27  24
BRANCH  10   2
ATOM      2  O   UNL     1      -5.819 -13.679  16.246  0.00  0.00    -0.391 OA
ATOM     32  H   UNL     1      -6.750 -13.807  15.997  0.00  0.00    +0.210 HD
ENDBRANCH  10   2
BRANCH  11  17
ATOM     17  C   UNL     1      -3.677 -11.841  15.443  0.00  0.00    +0.078 C 
ATOM     21  C   UNL     1      -2.675 -10.831  16.003  0.00  0.00    +0.017 C 
BRANCH  17  22
ATOM      3  O   UNL     1      -3.976 -10.975  13.231  0.00  0.00    -0.275 OA
ATOM      6  N   UNL     1      -3.060 -13.096  13.360  0.00  0.00    -0.301 N 
ATOM     22  C   UNL     1      -3.580 -11.924  13.917  0.00  0.00    +0.219 C 
ATOM     29  C   UNL     1      -2.974 -13.216  11.908  0.00  0.00    +0.132 C 
BRANCH   6  28
ATOM     28  C   UNL     1      -2.539 -14.245  14.098  0.00  0.00    +0.134 C 
BRANCH  28  30
ATOM     30  C   UNL     1      -1.242 -14.669  13.492  0.00  0.00    -0.016 C 
ATOM     31  C   UNL     1      -0.728 -15.898  13.615  0.00  0.00    +0.005 C 
ENDBRANCH  28  30
ENDBRANCH   6  28
ENDBRANCH  17  22
ENDBRANCH  11  17
TORSDOF 6
ENDMDL
MODEL 8
REMARK VINA RESULT:      -5.8     23.696     25.664
REMARK  Name = 45361325
REMARK  10 active torsions:
REMARK  status: ('A' for Active; 'I' for Inactive)
REMARK    1  A    between atoms: O_2  and  C_10
REMARK    2  A    between atoms: N_6  and  C_28
REMARK    3  A    between atoms: N_6  and  C_29
REMARK    4  A    between atoms: C_8  and  C_16
REMARK    5  A    between atoms: C_11  and  C_17
REMARK    6  A    between atoms: C_13  and  C_20
REMARK    7  A    between atoms: C_17  and  C_21
REMARK    8  A    between atoms: C_17  and  C_22
REMARK    9  A    between atoms: C_24  and  C_27
REMARK   10  A    between atoms: C_28  and  C_30
REMARK                            x       y       z     vdW  Elec       q    Type
REMARK                         _______ _______ _______ _____ _____    ______ ____
ROOT
ATOM      1  S   UNL     1      14.709   5.373  -0.878  0.00  0.00    -0.057 S 
ATOM      4  O   UNL     1      11.173   2.790  -2.561  0.00  0.00    -0.275 OA
ATOM      5  N   UNL     1      12.350   4.469  -0.329  0.00  0.00    -0.229 NA
ATOM      7  N   UNL     1      13.271   3.869  -2.473  0.00  0.00    -0.264 N 
ATOM      8  C   UNL     1      13.646   7.223   2.638  0.00  0.00    -0.022 C 
ATOM      9  C   UNL     1      12.709   6.062   3.156  0.00  0.00    +0.033 C 
ATOM     10  C   UNL     1      11.810   6.540   4.332  0.00  0.00    +0.123 C 
ATOM     11  C   UNL     1      12.616   7.214   5.465  0.00  0.00    +0.029 C 
ATOM     12  C   UNL     1      14.431   7.828   3.825  0.00  0.00    +0.008 C 
ATOM     13  C   UNL     1      11.897   5.384   1.978  0.00  0.00    +0.042 C 
ATOM     14  C   UNL     1      13.531   8.324   4.948  0.00  0.00    +0.007 C 
ATOM     15  C   UNL     1      14.690   6.648   1.631  0.00  0.00    +0.051 C 
ATOM     16  C   UNL     1      12.842   8.350   1.939  0.00  0.00    +0.012 C 
ATOM     18  C   UNL     1      12.778   5.200   0.766  0.00  0.00    +0.057 A 
ATOM     19  C   UNL     1      14.021   5.781   0.625  0.00  0.00    +0.015 A 
ATOM     20  C   UNL     1      11.261   4.043   2.371  0.00  0.00    +0.014 C 
ATOM     23  C   UNL     1      13.290   4.480  -1.249  0.00  0.00    +0.165 A 
ATOM     27  C   UNL     1      12.253   3.080  -3.055  0.00  0.00    +0.222 C 
ATOM     33  H   UNL     1      14.112   4.019  -3.027  0.00  0.00    +0.157 HD
ENDROOT
BRANCH  27  24
ATOM     24  C   UNL     1      12.569   2.564  -4.424  0.00  0.00    +0.075 C 
ATOM     25  C   UNL     1      13.194   3.488  -5.427  0.00  0.00    +0.013 C 
ATOM     26  C   UNL     1      11.767   3.057  -5.594  0.00  0.00    +0.013 C 
ENDBRANCH  27  24
BRANCH  10   2
ATOM      2  O   UNL     1      11.137   5.418   4.901  0.00  0.00    -0.391 OA
ATOM     32  H   UNL     1      10.461   5.120   4.269  0.00  0.00    +0.210 HD
ENDBRANCH  10   2
BRANCH  11  17
ATOM     17  C   UNL     1      11.700   7.771   6.561  0.00  0.00    +0.078 C 
ATOM     21  C   UNL     1      12.422   8.896   7.305  0.00  0.00    +0.017 C 
BRANCH  17  22
ATOM      3  O   UNL     1      12.160   5.864   7.933  0.00  0.00    -0.275 OA
ATOM      6  N   UNL     1       9.950   6.544   7.875  0.00  0.00    -0.301 N 
ATOM     22  C   UNL     1      11.298   6.648   7.520  0.00  0.00    +0.219 C 
ATOM     29  C   UNL     1       9.530   5.472   8.770  0.00  0.00    +0.132 C 
BRANCH   6  28
ATOM     28  C   UNL     1       8.878   7.448   7.462  0.00  0.00    +0.134 C 
BRANCH  28  30
ATOM     30  C   UNL     1       8.181   6.870   6.276  0.00  0.00    -0.016 C 
ATOM     31  C   UNL     1       8.263   7.379   5.041  0.00  0.00    +0.005 C 
ENDBRANCH  28  30
ENDBRANCH   6  28
ENDBRANCH  17  22
ENDBRANCH  11  17
TORSDOF 6
ENDMDL
MODEL 9
REMARK VINA RESULT:      -5.8      6.242      7.398
REMARK  Name = 45361325
REMARK  10 active torsions:
REMARK  status: ('A' for Active; 'I' for Inactive)
REMARK    1  A    between atoms: O_2  and  C_10
REMARK    2  A    between atoms: N_6  and  C_28
REMARK    3  A    between atoms: N_6  and  C_29
REMARK    4  A    between atoms: C_8  and  C_16
REMARK    5  A    between atoms: C_11  and  C_17
REMARK    6  A    between atoms: C_13  and  C_20
REMARK    7  A    between atoms: C_17  and  C_21
REMARK    8  A    between atoms: C_17  and  C_22
REMARK    9  A    between atoms: C_24  and  C_27
REMARK   10  A    between atoms: C_28  and  C_30
REMARK                            x       y       z     vdW  Elec       q    Type
REMARK                         _______ _______ _______ _____ _____    ______ ____
ROOT
ATOM      1  S   UNL     1     -13.660  -7.789  12.480  0.00  0.00    -0.057 S 
ATOM      4  O   UNL     1     -13.444  -3.114  12.816  0.00  0.00    -0.275 OA
ATOM      5  N   UNL     1     -12.481  -5.844  13.711  0.00  0.00    -0.229 NA
ATOM      7  N   UNL     1     -14.140  -5.244  12.070  0.00  0.00    -0.264 N 
ATOM      8  C   UNL     1     -10.668  -9.568  14.671  0.00  0.00    -0.022 C 
ATOM      9  C   UNL     1     -10.647  -8.488  15.824  0.00  0.00    +0.033 C 
ATOM     10  C   UNL     1      -9.367  -8.617  16.698  0.00  0.00    +0.123 C 
ATOM     11  C   UNL     1      -9.140 -10.055  17.216  0.00  0.00    +0.029 C 
ATOM     12  C   UNL     1     -10.458 -10.976  15.273  0.00  0.00    +0.008 C 
ATOM     13  C   UNL     1     -10.886  -7.024  15.269  0.00  0.00    +0.042 C 
ATOM     14  C   UNL     1      -9.181 -11.092  16.094  0.00  0.00    +0.007 C 
ATOM     15  C   UNL     1     -12.063  -9.563  13.970  0.00  0.00    +0.051 C 
ATOM     16  C   UNL     1      -9.571  -9.305  13.608  0.00  0.00    +0.012 C 
ATOM     18  C   UNL     1     -11.968  -7.027  14.217  0.00  0.00    +0.057 A 
ATOM     19  C   UNL     1     -12.476  -8.173  13.641  0.00  0.00    +0.015 A 
ATOM     20  C   UNL     1     -11.227  -6.007  16.367  0.00  0.00    +0.014 C 
ATOM     23  C   UNL     1     -13.388  -6.124  12.801  0.00  0.00    +0.165 A 
ATOM     27  C   UNL     1     -14.138  -3.831  12.108  0.00  0.00    +0.222 C 
ATOM     33  H   UNL     1     -14.780  -5.687  11.414  0.00  0.00    +0.157 HD
ENDROOT
BRANCH  27  24
ATOM     24  C   UNL     1     -15.099  -3.179  11.163  0.00  0.00    +0.075 C 
ATOM     25  C   UNL     1     -15.661  -3.980  10.026  0.00  0.00    +0.013 C 
ATOM     26  C   UNL     1     -14.660  -2.896   9.755  0.00  0.00    +0.013 C 
ENDBRANCH  27  24
BRANCH  10   2
ATOM      2  O   UNL     1      -9.485  -7.770  17.840  0.00  0.00    -0.391 OA
ATOM     32  H   UNL     1      -8.609  -7.390  18.024  0.00  0.00    +0.210 HD
ENDBRANCH  10   2
BRANCH  11  17
ATOM     17  C   UNL     1      -7.819 -10.181  17.985  0.00  0.00    +0.078 C 
ATOM     21  C   UNL     1      -6.650  -9.914  17.036  0.00  0.00    +0.017 C 
BRANCH  17  22
ATOM      3  O   UNL     1      -6.794 -12.326  18.266  0.00  0.00    -0.275 OA
ATOM      6  N   UNL     1      -8.691 -11.950  19.536  0.00  0.00    -0.301 N 
ATOM     22  C   UNL     1      -7.714 -11.575  18.608  0.00  0.00    +0.219 C 
ATOM     29  C   UNL     1      -8.633 -13.280  20.132  0.00  0.00    +0.132 C 
BRANCH   6  28
ATOM     28  C   UNL     1      -9.787 -11.113  20.020  0.00  0.00    +0.134 C 
BRANCH  28  30
ATOM     30  C   UNL     1     -11.067 -11.873  19.914  0.00  0.00    -0.016 C 
ATOM     31  C   UNL     1     -11.874 -11.829  18.847  0.00  0.00    +0.005 C 
ENDBRANCH  28  30
ENDBRANCH   6  28
ENDBRANCH  17  22
ENDBRANCH  11  17
TORSDOF 6
ENDMDL
MODEL 10
REMARK VINA RESULT:      -5.6     29.533     32.811
REMARK  Name = 45361325
REMARK  10 active torsions:
REMARK  status: ('A' for Active; 'I' for Inactive)
REMARK    1  A    between atoms: O_2  and  C_10
REMARK    2  A    between atoms: N_6  and  C_28
REMARK    3  A    between atoms: N_6  and  C_29
REMARK    4  A    between atoms: C_8  and  C_16
REMARK    5  A    between atoms: C_11  and  C_17
REMARK    6  A    between atoms: C_13  and  C_20
REMARK    7  A    between atoms: C_17  and  C_21
REMARK    8  A    between atoms: C_17  and  C_22
REMARK    9  A    between atoms: C_24  and  C_27
REMARK   10  A    between atoms: C_28  and  C_30
REMARK                            x       y       z     vdW  Elec       q    Type
REMARK                         _______ _______ _______ _____ _____    ______ ____
ROOT
ATOM      1  S   UNL     1      21.678   7.153  23.349  0.00  0.00    -0.057 S 
ATOM      4  O   UNL     1      21.310   3.206  20.839  0.00  0.00    -0.275 OA
ATOM      5  N   UNL     1      20.252   5.954  21.556  0.00  0.00    -0.229 NA
ATOM      7  N   UNL     1      22.170   4.760  22.395  0.00  0.00    -0.264 N 
ATOM      8  C   UNL     1      18.974   9.976  22.070  0.00  0.00    -0.022 C 
ATOM      9  C   UNL     1      17.838   8.949  21.683  0.00  0.00    +0.033 C 
ATOM     10  C   UNL     1      16.743   9.619  20.805  0.00  0.00    +0.123 C 
ATOM     11  C   UNL     1      16.192  10.921  21.426  0.00  0.00    +0.029 C 
ATOM     12  C   UNL     1      18.343  11.237  22.704  0.00  0.00    +0.008 C 
ATOM     13  C   UNL     1      18.427   7.622  21.053  0.00  0.00    +0.042 C 
ATOM     14  C   UNL     1      17.302  11.899  21.812  0.00  0.00    +0.007 C 
ATOM     15  C   UNL     1      19.919   9.340  23.137  0.00  0.00    +0.051 C 
ATOM     16  C   UNL     1      19.818  10.398  20.840  0.00  0.00    +0.012 C 
ATOM     18  C   UNL     1      19.661   7.181  21.804  0.00  0.00    +0.057 A 
ATOM     19  C   UNL     1      20.319   7.967  22.726  0.00  0.00    +0.015 A 
ATOM     20  C   UNL     1      17.410   6.473  20.997  0.00  0.00    +0.014 C 
ATOM     23  C   UNL     1      21.313   5.826  22.322  0.00  0.00    +0.165 A 
ATOM     27  C   UNL     1      22.133   3.542  21.679  0.00  0.00    +0.222 C 
ATOM     33  H   UNL     1      22.932   4.883  23.058  0.00  0.00    +0.157 HD
ENDROOT
BRANCH  27  24
ATOM     24  C   UNL     1      23.238   2.589  22.012  0.00  0.00    +0.075 C 
ATOM     25  C   UNL     1      24.656   2.988  21.726  0.00  0.00    +0.013 C 
ATOM     26  C   UNL     1      23.993   1.929  20.895  0.00  0.00    +0.013 C 
ENDBRANCH  27  24
BRANCH  10   2
ATOM      2  O   UNL     1      15.643   8.724  20.653  0.00  0.00    -0.391 OA
ATOM     32  H   UNL     1      15.730   8.283  19.791  0.00  0.00    +0.210 HD
ENDBRANCH  10   2
BRANCH  11  17
ATOM     17  C   UNL     1      15.193  11.619  20.494  0.00  0.00    +0.078 C 
ATOM     21  C   UNL     1      15.863  12.832  19.846  0.00  0.00    +0.017 C 
BRANCH  17  22
ATOM      3  O   UNL     1      14.044  12.917  22.146  0.00  0.00    -0.275 OA
ATOM      6  N   UNL     1      12.750  11.372  21.010  0.00  0.00    -0.301 N 
ATOM     22  C   UNL     1      13.950  12.034  21.285  0.00  0.00    +0.219 C 
ATOM     29  C   UNL     1      11.552  11.728  21.761  0.00  0.00    +0.132 C 
BRANCH   6  28
ATOM     28  C   UNL     1      12.546  10.346  19.988  0.00  0.00    +0.134 C 
BRANCH  28  30
ATOM     30  C   UNL     1      11.933   9.141  20.620  0.00  0.00    -0.016 C 
ATOM     31  C   UNL     1      10.918   8.454  20.084  0.00  0.00    +0.005 C 
ENDBRANCH  28  30
ENDBRANCH   6  28
ENDBRANCH  17  22
ENDBRANCH  11  17
TORSDOF 6
ENDMDL
