MODEL 1
REMARK VINA RESULT:      -6.4      0.000      0.000
REMARK  Name = 75367185
REMARK  6 active torsions:
REMARK  status: ('A' for Active; 'I' for Inactive)
REMARK    1  A    between atoms: O_3  and  C_21
REMARK    2  A    between atoms: O_3  and  C_27
REMARK    3  A    between atoms: N_4  and  C_10
REMARK    4  A    between atoms: C_7  and  C_12
REMARK    5  A    between atoms: C_10  and  C_13
REMARK    6  A    between atoms: C_14  and  C_18
REMARK                            x       y       z     vdW  Elec       q    Type
REMARK                         _______ _______ _______ _____ _____    ______ ____
ROOT
ATOM      2  O   UNL     1       8.517  11.697   3.359  0.00  0.00    -0.377 OA
ATOM      4  N   UNL     1       8.444   9.125   4.612  0.00  0.00    -0.285 NA
ATOM      7  C   UNL     1       9.331   9.394   3.451  0.00  0.00    +0.149 C 
ATOM      8  C   UNL     1       7.280  10.027   4.585  0.00  0.00    +0.113 C 
ATOM      9  C   UNL     1       9.694  10.891   3.400  0.00  0.00    +0.186 C 
ATOM     11  C   UNL     1       7.725  11.482   4.524  0.00  0.00    +0.175 C 
ENDROOT
BRANCH   7  12
ATOM      5  N   UNL     1      10.701   7.380   2.805  0.00  0.00    -0.341 N 
ATOM      6  N   UNL     1      11.740   8.884   4.065  0.00  0.00    -0.238 NA
ATOM     12  C   UNL     1      10.614   8.575   3.462  0.00  0.00    +0.127 A 
ATOM     14  C   UNL     1      11.963   6.894   3.002  0.00  0.00    +0.066 A 
ATOM     15  C   UNL     1      12.585   7.839   3.783  0.00  0.00    +0.139 A 
ATOM     28  H   UNL     1       9.958   6.939   2.277  0.00  0.00    +0.167 HD
BRANCH  14  18
ATOM      1 CL   UNL     1      15.652   4.269   0.535  0.00  0.00    -0.084 Cl
ATOM     18  C   UNL     1      12.424   5.644   2.458  0.00  0.00    +0.001 A 
ATOM     22  C   UNL     1      13.670   5.572   1.833  0.00  0.00    +0.030 A 
ATOM     23  C   UNL     1      11.625   4.505   2.555  0.00  0.00    +0.010 A 
ATOM     24  C   UNL     1      14.116   4.360   1.307  0.00  0.00    +0.042 A 
ATOM     25  C   UNL     1      12.072   3.293   2.027  0.00  0.00    +0.002 A 
ATOM     26  C   UNL     1      13.317   3.221   1.403  0.00  0.00    +0.020 A 
ENDBRANCH  14  18
ENDBRANCH   7  12
BRANCH   4  10
ATOM     10  C   UNL     1       7.974   7.735   4.638  0.00  0.00    +0.120 C 
BRANCH  10  13
ATOM     13  C   UNL     1       8.566   6.963   5.786  0.00  0.00    -0.033 A 
ATOM     16  C   UNL     1       8.497   7.477   7.082  0.00  0.00    +0.008 A 
ATOM     17  C   UNL     1       9.184   5.734   5.557  0.00  0.00    +0.008 A 
ATOM     19  C   UNL     1       9.045   6.761   8.147  0.00  0.00    +0.046 A 
ATOM     20  C   UNL     1       9.733   5.019   6.621  0.00  0.00    +0.046 A 
ATOM     21  C   UNL     1       9.663   5.533   7.916  0.00  0.00    +0.120 A 
BRANCH  21   3
ATOM      3  O   UNL     1      10.198   4.834   8.955  0.00  0.00    -0.495 OA
ATOM     27  C   UNL     1       9.357   4.610  10.086  0.00  0.00    +0.277 C 
ENDBRANCH  21   3
ENDBRANCH  10  13
ENDBRANCH   4  10
TORSDOF 5
ENDMDL
MODEL 2
REMARK VINA RESULT:      -6.3     25.826     29.300
REMARK  Name = 75367185
REMARK  6 active torsions:
REMARK  status: ('A' for Active; 'I' for Inactive)
REMARK    1  A    between atoms: O_3  and  C_21
REMARK    2  A    between atoms: O_3  and  C_27
REMARK    3  A    between atoms: N_4  and  C_10
REMARK    4  A    between atoms: C_7  and  C_12
REMARK    5  A    between atoms: C_10  and  C_13
REMARK    6  A    between atoms: C_14  and  C_18
REMARK                            x       y       z     vdW  Elec       q    Type
REMARK                         _______ _______ _______ _____ _____    ______ ____
ROOT
ATOM      2  O   UNL     1     -10.003 -14.512  19.950  0.00  0.00    -0.377 OA
ATOM      4  N   UNL     1     -10.166 -11.761  19.173  0.00  0.00    -0.285 NA
ATOM      7  C   UNL     1      -8.950 -12.309  19.828  0.00  0.00    +0.149 C 
ATOM      8  C   UNL     1     -11.351 -12.548  19.557  0.00  0.00    +0.113 C 
ATOM      9  C   UNL     1      -8.827 -13.817  19.537  0.00  0.00    +0.186 C 
ATOM     11  C   UNL     1     -11.143 -14.025  19.245  0.00  0.00    +0.175 C 
ENDROOT
BRANCH   7  12
ATOM      5  N   UNL     1      -7.189 -11.721  18.124  0.00  0.00    -0.341 N 
ATOM      6  N   UNL     1      -6.883 -10.873  20.153  0.00  0.00    -0.238 NA
ATOM     12  C   UNL     1      -7.664 -11.617  19.401  0.00  0.00    +0.127 A 
ATOM     14  C   UNL     1      -6.031 -10.998  18.056  0.00  0.00    +0.066 A 
ATOM     15  C   UNL     1      -5.863 -10.485  19.320  0.00  0.00    +0.139 A 
ATOM     28  H   UNL     1      -7.620 -12.245  17.373  0.00  0.00    +0.167 HD
BRANCH  14  18
ATOM      1 CL   UNL     1      -1.370 -10.880  15.855  0.00  0.00    -0.084 Cl
ATOM     18  C   UNL     1      -5.243 -10.876  16.858  0.00  0.00    +0.001 A 
ATOM     22  C   UNL     1      -3.851 -10.931  16.930  0.00  0.00    +0.030 A 
ATOM     23  C   UNL     1      -5.872 -10.704  15.625  0.00  0.00    +0.010 A 
ATOM     24  C   UNL     1      -3.088 -10.814  15.769  0.00  0.00    +0.042 A 
ATOM     25  C   UNL     1      -5.108 -10.586  14.463  0.00  0.00    +0.002 A 
ATOM     26  C   UNL     1      -3.716 -10.641  14.535  0.00  0.00    +0.020 A 
ENDBRANCH  14  18
ENDBRANCH   7  12
BRANCH   4  10
ATOM     10  C   UNL     1     -10.393 -10.353  19.518  0.00  0.00    +0.120 C 
BRANCH  10  13
ATOM     13  C   UNL     1     -10.614  -9.504  18.295  0.00  0.00    -0.033 A 
ATOM     16  C   UNL     1     -11.912  -9.222  17.866  0.00  0.00    +0.008 A 
ATOM     17  C   UNL     1      -9.522  -8.997  17.590  0.00  0.00    +0.008 A 
ATOM     19  C   UNL     1     -12.117  -8.435  16.733  0.00  0.00    +0.046 A 
ATOM     20  C   UNL     1      -9.727  -8.211  16.457  0.00  0.00    +0.046 A 
ATOM     21  C   UNL     1     -11.024  -7.930  16.029  0.00  0.00    +0.120 A 
BRANCH  21   3
ATOM      3  O   UNL     1     -11.224  -7.161  14.923  0.00  0.00    -0.495 OA
ATOM     27  C   UNL     1     -11.588  -5.798  15.138  0.00  0.00    +0.277 C 
ENDBRANCH  21   3
ENDBRANCH  10  13
ENDBRANCH   4  10
TORSDOF 5
ENDMDL
MODEL 3
REMARK VINA RESULT:      -6.2     23.045     26.080
REMARK  Name = 75367185
REMARK  6 active torsions:
REMARK  status: ('A' for Active; 'I' for Inactive)
REMARK    1  A    between atoms: O_3  and  C_21
REMARK    2  A    between atoms: O_3  and  C_27
REMARK    3  A    between atoms: N_4  and  C_10
REMARK    4  A    between atoms: C_7  and  C_12
REMARK    5  A    between atoms: C_10  and  C_13
REMARK    6  A    between atoms: C_14  and  C_18
REMARK                            x       y       z     vdW  Elec       q    Type
REMARK                         _______ _______ _______ _____ _____    ______ ____
ROOT
ATOM      2  O   UNL     1     -10.462  -8.219  16.101  0.00  0.00    -0.377 OA
ATOM      4  N   UNL     1      -8.169  -9.906  16.400  0.00  0.00    -0.285 NA
ATOM      7  C   UNL     1      -9.034  -9.983  15.194  0.00  0.00    +0.149 C 
ATOM      8  C   UNL     1      -8.941  -9.406  17.551  0.00  0.00    +0.113 C 
ATOM      9  C   UNL     1      -9.723  -8.627  14.951  0.00  0.00    +0.186 C 
ATOM     11  C   UNL     1      -9.596  -8.071  17.224  0.00  0.00    +0.175 C 
ENDROOT
BRANCH   7  12
ATOM      5  N   UNL     1      -7.136  -9.760  13.551  0.00  0.00    -0.341 N 
ATOM      6  N   UNL     1      -8.623 -11.343  13.092  0.00  0.00    -0.238 NA
ATOM     12  C   UNL     1      -8.287 -10.391  13.933  0.00  0.00    +0.127 A 
ATOM     14  C   UNL     1      -6.711 -10.347  12.393  0.00  0.00    +0.066 A 
ATOM     15  C   UNL     1      -7.645 -11.320  12.129  0.00  0.00    +0.139 A 
ATOM     28  H   UNL     1      -6.691  -8.994  14.041  0.00  0.00    +0.167 HD
BRANCH  14  18
ATOM      1 CL   UNL     1      -1.576 -10.530  11.970  0.00  0.00    -0.084 Cl
ATOM     18  C   UNL     1      -5.523  -9.941  11.689  0.00  0.00    +0.001 A 
ATOM     22  C   UNL     1      -4.272 -10.382  12.121  0.00  0.00    +0.030 A 
ATOM     23  C   UNL     1      -5.623  -9.107  10.575  0.00  0.00    +0.010 A 
ATOM     24  C   UNL     1      -3.121  -9.988  11.438  0.00  0.00    +0.042 A 
ATOM     25  C   UNL     1      -4.472  -8.714   9.893  0.00  0.00    +0.002 A 
ATOM     26  C   UNL     1      -3.221  -9.154  10.325  0.00  0.00    +0.020 A 
ENDBRANCH  14  18
ENDBRANCH   7  12
BRANCH   4  10
ATOM     10  C   UNL     1      -7.583 -11.207  16.743  0.00  0.00    +0.120 C 
BRANCH  10  13
ATOM     13  C   UNL     1      -6.132 -11.290  16.350  0.00  0.00    -0.033 A 
ATOM     16  C   UNL     1      -5.251 -10.271  16.715  0.00  0.00    +0.008 A 
ATOM     17  C   UNL     1      -5.668 -12.385  15.623  0.00  0.00    +0.008 A 
ATOM     19  C   UNL     1      -3.907 -10.349  16.351  0.00  0.00    +0.046 A 
ATOM     20  C   UNL     1      -4.324 -12.462  15.258  0.00  0.00    +0.046 A 
ATOM     21  C   UNL     1      -3.443 -11.444  15.623  0.00  0.00    +0.120 A 
BRANCH  21   3
ATOM      3  O   UNL     1      -2.131 -11.520  15.269  0.00  0.00    -0.495 OA
ATOM     27  C   UNL     1      -1.240 -10.587  15.879  0.00  0.00    +0.277 C 
ENDBRANCH  21   3
ENDBRANCH  10  13
ENDBRANCH   4  10
TORSDOF 5
ENDMDL
MODEL 4
REMARK VINA RESULT:      -6.1     30.531     34.377
REMARK  Name = 75367185
REMARK  6 active torsions:
REMARK  status: ('A' for Active; 'I' for Inactive)
REMARK    1  A    between atoms: O_3  and  C_21
REMARK    2  A    between atoms: O_3  and  C_27
REMARK    3  A    between atoms: N_4  and  C_10
REMARK    4  A    between atoms: C_7  and  C_12
REMARK    5  A    between atoms: C_10  and  C_13
REMARK    6  A    between atoms: C_14  and  C_18
REMARK                            x       y       z     vdW  Elec       q    Type
REMARK                         _______ _______ _______ _____ _____    ______ ____
ROOT
ATOM      2  O   UNL     1     -18.849   1.424  23.512  0.00  0.00    -0.377 OA
ATOM      4  N   UNL     1     -17.011   3.609  23.719  0.00  0.00    -0.285 NA
ATOM      7  C   UNL     1     -17.886   3.224  24.856  0.00  0.00    +0.149 C 
ATOM      8  C   UNL     1     -17.630   3.211  22.442  0.00  0.00    +0.113 C 
ATOM      9  C   UNL     1     -18.241   1.728  24.767  0.00  0.00    +0.186 C 
ATOM     11  C   UNL     1     -17.957   1.724  22.441  0.00  0.00    +0.175 C 
ENDROOT
BRANCH   7  12
ATOM      5  N   UNL     1     -16.565   2.549  26.894  0.00  0.00    -0.341 N 
ATOM      6  N   UNL     1     -17.331   4.633  26.893  0.00  0.00    -0.238 NA
ATOM     12  C   UNL     1     -17.271   3.505  26.219  0.00  0.00    +0.127 A 
ATOM     14  C   UNL     1     -16.148   3.101  28.073  0.00  0.00    +0.066 A 
ATOM     15  C   UNL     1     -16.633   4.387  28.049  0.00  0.00    +0.139 A 
ATOM     28  H   UNL     1     -16.393   1.604  26.573  0.00  0.00    +0.167 HD
BRANCH  14  18
ATOM      1 CL   UNL     1     -12.856   3.251  32.038  0.00  0.00    -0.084 Cl
ATOM     18  C   UNL     1     -15.373   2.385  29.052  0.00  0.00    +0.001 A 
ATOM     22  C   UNL     1     -14.583   3.085  29.964  0.00  0.00    +0.030 A 
ATOM     23  C   UNL     1     -15.412   0.991  29.087  0.00  0.00    +0.010 A 
ATOM     24  C   UNL     1     -13.832   2.390  30.912  0.00  0.00    +0.042 A 
ATOM     25  C   UNL     1     -14.660   0.296  30.036  0.00  0.00    +0.002 A 
ATOM     26  C   UNL     1     -13.871   0.996  30.948  0.00  0.00    +0.020 A 
ENDBRANCH  14  18
ENDBRANCH   7  12
BRANCH   4  10
ATOM     10  C   UNL     1     -16.740   5.051  23.692  0.00  0.00    +0.120 C 
BRANCH  10  13
ATOM     13  C   UNL     1     -15.468   5.370  22.955  0.00  0.00    -0.033 A 
ATOM     16  C   UNL     1     -15.489   6.255  21.876  0.00  0.00    +0.008 A 
ATOM     17  C   UNL     1     -14.266   4.783  23.350  0.00  0.00    +0.008 A 
ATOM     19  C   UNL     1     -14.310   6.551  21.193  0.00  0.00    +0.046 A 
ATOM     20  C   UNL     1     -13.087   5.078  22.667  0.00  0.00    +0.046 A 
ATOM     21  C   UNL     1     -13.109   5.963  21.589  0.00  0.00    +0.120 A 
BRANCH  21   3
ATOM      3  O   UNL     1     -11.957   6.252  20.922  0.00  0.00    -0.495 OA
ATOM     27  C   UNL     1     -11.727   7.621  20.590  0.00  0.00    +0.277 C 
ENDBRANCH  21   3
ENDBRANCH  10  13
ENDBRANCH   4  10
TORSDOF 5
ENDMDL
MODEL 5
REMARK VINA RESULT:      -6.0     23.049     25.418
REMARK  Name = 75367185
REMARK  6 active torsions:
REMARK  status: ('A' for Active; 'I' for Inactive)
REMARK    1  A    between atoms: O_3  and  C_21
REMARK    2  A    between atoms: O_3  and  C_27
REMARK    3  A    between atoms: N_4  and  C_10
REMARK    4  A    between atoms: C_7  and  C_12
REMARK    5  A    between atoms: C_10  and  C_13
REMARK    6  A    between atoms: C_14  and  C_18
REMARK                            x       y       z     vdW  Elec       q    Type
REMARK                         _______ _______ _______ _____ _____    ______ ____
ROOT
ATOM      2  O   UNL     1      -2.566 -15.380  12.568  0.00  0.00    -0.377 OA
ATOM      4  N   UNL     1      -3.139 -12.972  14.006  0.00  0.00    -0.285 NA
ATOM      7  C   UNL     1      -2.429 -12.943  12.702  0.00  0.00    +0.149 C 
ATOM      8  C   UNL     1      -2.919 -14.264  14.679  0.00  0.00    +0.113 C 
ATOM      9  C   UNL     1      -2.824 -14.170  11.858  0.00  0.00    +0.186 C 
ATOM     11  C   UNL     1      -3.324 -15.421  13.775  0.00  0.00    +0.175 C 
ENDROOT
BRANCH   7  12
ATOM      5  N   UNL     1      -3.839 -11.526  11.167  0.00  0.00    -0.341 N 
ATOM      6  N   UNL     1      -1.903 -10.635  11.788  0.00  0.00    -0.238 NA
ATOM     12  C   UNL     1      -2.692 -11.681  11.893  0.00  0.00    +0.127 A 
ATOM     14  C   UNL     1      -3.778 -10.303  10.559  0.00  0.00    +0.066 A 
ATOM     15  C   UNL     1      -2.574  -9.773  10.957  0.00  0.00    +0.139 A 
ATOM     28  H   UNL     1      -4.589 -12.202  11.094  0.00  0.00    +0.167 HD
BRANCH  14  18
ATOM      1 CL   UNL     1      -5.990 -10.207   5.903  0.00  0.00    -0.084 Cl
ATOM     18  C   UNL     1      -4.817  -9.791   9.705  0.00  0.00    +0.001 A 
ATOM     22  C   UNL     1      -4.891 -10.201   8.373  0.00  0.00    +0.030 A 
ATOM     23  C   UNL     1      -5.751  -8.886  10.210  0.00  0.00    +0.010 A 
ATOM     24  C   UNL     1      -5.898  -9.704   7.546  0.00  0.00    +0.042 A 
ATOM     25  C   UNL     1      -6.758  -8.389   9.382  0.00  0.00    +0.002 A 
ATOM     26  C   UNL     1      -6.832  -8.798   8.051  0.00  0.00    +0.020 A 
ENDBRANCH  14  18
ENDBRANCH   7  12
BRANCH   4  10
ATOM     10  C   UNL     1      -2.707 -11.888  14.896  0.00  0.00    +0.120 C 
BRANCH  10  13
ATOM     13  C   UNL     1      -3.876 -11.164  15.508  0.00  0.00    -0.033 A 
ATOM     16  C   UNL     1      -4.850 -10.593  14.689  0.00  0.00    +0.008 A 
ATOM     17  C   UNL     1      -3.987 -11.066  16.895  0.00  0.00    +0.008 A 
ATOM     19  C   UNL     1      -5.934  -9.923  15.256  0.00  0.00    +0.046 A 
ATOM     20  C   UNL     1      -5.071 -10.396  17.462  0.00  0.00    +0.046 A 
ATOM     21  C   UNL     1      -6.044  -9.825  16.643  0.00  0.00    +0.120 A 
BRANCH  21   3
ATOM      3  O   UNL     1      -7.103  -9.171  17.197  0.00  0.00    -0.495 OA
ATOM     27  C   UNL     1      -8.325  -9.176  16.460  0.00  0.00    +0.277 C 
ENDBRANCH  21   3
ENDBRANCH  10  13
ENDBRANCH   4  10
TORSDOF 5
ENDMDL
MODEL 6
REMARK VINA RESULT:      -6.0      4.619      8.476
REMARK  Name = 75367185
REMARK  6 active torsions:
REMARK  status: ('A' for Active; 'I' for Inactive)
REMARK    1  A    between atoms: O_3  and  C_21
REMARK    2  A    between atoms: O_3  and  C_27
REMARK    3  A    between atoms: N_4  and  C_10
REMARK    4  A    between atoms: C_7  and  C_12
REMARK    5  A    between atoms: C_10  and  C_13
REMARK    6  A    between atoms: C_14  and  C_18
REMARK                            x       y       z     vdW  Elec       q    Type
REMARK                         _______ _______ _______ _____ _____    ______ ____
ROOT
ATOM      2  O   UNL     1      15.750   6.465   1.049  0.00  0.00    -0.377 OA
ATOM      4  N   UNL     1      13.808   4.743  -0.159  0.00  0.00    -0.285 NA
ATOM      7  C   UNL     1      13.982   4.798   1.315  0.00  0.00    +0.149 C 
ATOM      8  C   UNL     1      15.060   5.124  -0.836  0.00  0.00    +0.113 C 
ATOM      9  C   UNL     1      14.531   6.176   1.732  0.00  0.00    +0.186 C 
ATOM     11  C   UNL     1      15.537   6.490  -0.360  0.00  0.00    +0.175 C 
ENDROOT
BRANCH   7  12
ATOM      5  N   UNL     1      12.133   5.471   2.890  0.00  0.00    -0.341 N 
ATOM      6  N   UNL     1      12.015   3.400   2.099  0.00  0.00    -0.238 NA
ATOM     12  C   UNL     1      12.703   4.520   2.091  0.00  0.00    +0.127 A 
ATOM     14  C   UNL     1      11.010   4.923   3.444  0.00  0.00    +0.066 A 
ATOM     15  C   UNL     1      10.959   3.644   2.941  0.00  0.00    +0.139 A 
ATOM     28  H   UNL     1      12.489   6.406   3.043  0.00  0.00    +0.167 HD
BRANCH  14  18
ATOM      1 CL   UNL     1       9.319   5.628   8.263  0.00  0.00    -0.084 Cl
ATOM     18  C   UNL     1      10.146   5.634   4.350  0.00  0.00    +0.001 A 
ATOM     22  C   UNL     1      10.152   5.321   5.709  0.00  0.00    +0.030 A 
ATOM     23  C   UNL     1       9.304   6.635   3.866  0.00  0.00    +0.010 A 
ATOM     24  C   UNL     1       9.315   6.012   6.586  0.00  0.00    +0.042 A 
ATOM     25  C   UNL     1       8.466   7.325   4.744  0.00  0.00    +0.002 A 
ATOM     26  C   UNL     1       8.472   7.013   6.103  0.00  0.00    +0.020 A 
ENDBRANCH  14  18
ENDBRANCH   7  12
BRANCH   4  10
ATOM     10  C   UNL     1      13.399   3.411  -0.619  0.00  0.00    +0.120 C 
BRANCH  10  13
ATOM     13  C   UNL     1      12.193   3.472  -1.517  0.00  0.00    -0.033 A 
ATOM     16  C   UNL     1      11.340   4.575  -1.465  0.00  0.00    +0.008 A 
ATOM     17  C   UNL     1      11.928   2.428  -2.402  0.00  0.00    +0.008 A 
ATOM     19  C   UNL     1      10.222   4.633  -2.298  0.00  0.00    +0.046 A 
ATOM     20  C   UNL     1      10.810   2.485  -3.234  0.00  0.00    +0.046 A 
ATOM     21  C   UNL     1       9.957   3.587  -3.182  0.00  0.00    +0.120 A 
BRANCH  21   3
ATOM      3  O   UNL     1       8.867   3.644  -3.995  0.00  0.00    -0.495 OA
ATOM     27  C   UNL     1       8.980   4.434  -5.177  0.00  0.00    +0.277 C 
ENDBRANCH  21   3
ENDBRANCH  10  13
ENDBRANCH   4  10
TORSDOF 5
ENDMDL
MODEL 7
REMARK VINA RESULT:      -6.0     23.292     26.619
REMARK  Name = 75367185
REMARK  6 active torsions:
REMARK  status: ('A' for Active; 'I' for Inactive)
REMARK    1  A    between atoms: O_3  and  C_21
REMARK    2  A    between atoms: O_3  and  C_27
REMARK    3  A    between atoms: N_4  and  C_10
REMARK    4  A    between atoms: C_7  and  C_12
REMARK    5  A    between atoms: C_10  and  C_13
REMARK    6  A    between atoms: C_14  and  C_18
REMARK                            x       y       z     vdW  Elec       q    Type
REMARK                         _______ _______ _______ _____ _____    ______ ____
ROOT
ATOM      2  O   UNL     1      -5.106 -15.010  16.592  0.00  0.00    -0.377 OA
ATOM      4  N   UNL     1      -5.919 -12.269  16.447  0.00  0.00    -0.285 NA
ATOM      7  C   UNL     1      -4.532 -12.683  16.111  0.00  0.00    +0.149 C 
ATOM      8  C   UNL     1      -6.523 -13.227  17.389  0.00  0.00    +0.113 C 
ATOM      9  C   UNL     1      -4.521 -14.143  15.621  0.00  0.00    +0.186 C 
ATOM     11  C   UNL     1      -6.462 -14.643  16.834  0.00  0.00    +0.175 C 
ENDROOT
BRANCH   7  12
ATOM      5  N   UNL     1      -4.544 -11.407  13.938  0.00  0.00    -0.341 N 
ATOM      6  N   UNL     1      -2.643 -11.335  15.083  0.00  0.00    -0.238 NA
ATOM     12  C   UNL     1      -3.872 -11.803  15.060  0.00  0.00    +0.127 A 
ATOM     14  C   UNL     1      -3.691 -10.637  13.198  0.00  0.00    +0.066 A 
ATOM     15  C   UNL     1      -2.524 -10.608  13.925  0.00  0.00    +0.139 A 
ATOM     28  H   UNL     1      -5.498 -11.650  13.703  0.00  0.00    +0.167 HD
BRANCH  14  18
ATOM      1 CL   UNL     1      -7.369  -8.704  10.146  0.00  0.00    -0.084 Cl
ATOM     18  C   UNL     1      -4.052 -10.040  11.940  0.00  0.00    +0.001 A 
ATOM     22  C   UNL     1      -5.381  -9.701  11.684  0.00  0.00    +0.030 A 
ATOM     23  C   UNL     1      -3.072  -9.800  10.975  0.00  0.00    +0.010 A 
ATOM     24  C   UNL     1      -5.730  -9.122  10.464  0.00  0.00    +0.042 A 
ATOM     25  C   UNL     1      -3.422  -9.222   9.755  0.00  0.00    +0.002 A 
ATOM     26  C   UNL     1      -4.751  -8.883   9.499  0.00  0.00    +0.020 A 
ENDBRANCH  14  18
ENDBRANCH   7  12
BRANCH   4  10
ATOM     10  C   UNL     1      -5.968 -10.924  17.032  0.00  0.00    +0.120 C 
BRANCH  10  13
ATOM     13  C   UNL     1      -7.169 -10.150  16.558  0.00  0.00    -0.033 A 
ATOM     16  C   UNL     1      -7.622 -10.298  15.247  0.00  0.00    +0.008 A 
ATOM     17  C   UNL     1      -7.831  -9.286  17.430  0.00  0.00    +0.008 A 
ATOM     19  C   UNL     1      -8.736  -9.581  14.808  0.00  0.00    +0.046 A 
ATOM     20  C   UNL     1      -8.943  -8.569  16.992  0.00  0.00    +0.046 A 
ATOM     21  C   UNL     1      -9.396  -8.717  15.681  0.00  0.00    +0.120 A 
BRANCH  21   3
ATOM      3  O   UNL     1     -10.484  -8.018  15.253  0.00  0.00    -0.495 OA
ATOM     27  C   UNL     1     -10.570  -6.649  15.645  0.00  0.00    +0.277 C 
ENDBRANCH  21   3
ENDBRANCH  10  13
ENDBRANCH   4  10
TORSDOF 5
ENDMDL
MODEL 8
REMARK VINA RESULT:      -6.0     24.582     27.937
REMARK  Name = 75367185
REMARK  6 active torsions:
REMARK  status: ('A' for Active; 'I' for Inactive)
REMARK    1  A    between atoms: O_3  and  C_21
REMARK    2  A    between atoms: O_3  and  C_27
REMARK    3  A    between atoms: N_4  and  C_10
REMARK    4  A    between atoms: C_7  and  C_12
REMARK    5  A    between atoms: C_10  and  C_13
REMARK    6  A    between atoms: C_14  and  C_18
REMARK                            x       y       z     vdW  Elec       q    Type
REMARK                         _______ _______ _______ _____ _____    ______ ____
ROOT
ATOM      2  O   UNL     1      -9.304 -12.537  20.106  0.00  0.00    -0.377 OA
ATOM      4  N   UNL     1      -8.374 -10.708  18.111  0.00  0.00    -0.285 NA
ATOM      7  C   UNL     1      -7.469 -11.220  19.172  0.00  0.00    +0.149 C 
ATOM      8  C   UNL     1      -9.771 -10.730  18.577  0.00  0.00    +0.113 C 
ATOM      9  C   UNL     1      -7.951 -12.600  19.657  0.00  0.00    +0.186 C 
ATOM     11  C   UNL     1     -10.163 -12.125  19.046  0.00  0.00    +0.175 C 
ENDROOT
BRANCH   7  12
ATOM      5  N   UNL     1      -5.619 -10.952  17.481  0.00  0.00    -0.341 N 
ATOM      6  N   UNL     1      -5.008 -11.773  19.452  0.00  0.00    -0.238 NA
ATOM     12  C   UNL     1      -6.016 -11.329  18.734  0.00  0.00    +0.127 A 
ATOM     14  C   UNL     1      -4.273 -11.170  17.394  0.00  0.00    +0.066 A 
ATOM     15  C   UNL     1      -3.919 -11.677  18.622  0.00  0.00    +0.139 A 
ATOM     28  H   UNL     1      -6.222 -10.586  16.755  0.00  0.00    +0.167 HD
BRANCH  14  18
ATOM      1 CL   UNL     1      -4.125 -10.606  12.271  0.00  0.00    -0.084 Cl
ATOM     18  C   UNL     1      -3.501 -10.890  16.212  0.00  0.00    +0.001 A 
ATOM     22  C   UNL     1      -4.117 -10.884  14.961  0.00  0.00    +0.030 A 
ATOM     23  C   UNL     1      -2.135 -10.623  16.320  0.00  0.00    +0.010 A 
ATOM     24  C   UNL     1      -3.367 -10.612  13.816  0.00  0.00    +0.042 A 
ATOM     25  C   UNL     1      -1.386 -10.351  15.175  0.00  0.00    +0.002 A 
ATOM     26  C   UNL     1      -2.002 -10.346  13.923  0.00  0.00    +0.020 A 
ENDBRANCH  14  18
ENDBRANCH   7  12
BRANCH   4  10
ATOM     10  C   UNL     1      -8.026  -9.343  17.699  0.00  0.00    +0.120 C 
BRANCH  10  13
ATOM     13  C   UNL     1      -9.068  -8.749  16.788  0.00  0.00    -0.033 A 
ATOM     16  C   UNL     1      -9.845  -7.675  17.224  0.00  0.00    +0.008 A 
ATOM     17  C   UNL     1      -9.256  -9.271  15.509  0.00  0.00    +0.008 A 
ATOM     19  C   UNL     1     -10.809  -7.124  16.380  0.00  0.00    +0.046 A 
ATOM     20  C   UNL     1     -10.221  -8.722  14.666  0.00  0.00    +0.046 A 
ATOM     21  C   UNL     1     -10.997  -7.648  15.101  0.00  0.00    +0.120 A 
BRANCH  21   3
ATOM      3  O   UNL     1     -11.938  -7.110  14.277  0.00  0.00    -0.495 OA
ATOM     27  C   UNL     1     -12.657  -5.978  14.765  0.00  0.00    +0.277 C 
ENDBRANCH  21   3
ENDBRANCH  10  13
ENDBRANCH   4  10
TORSDOF 5
ENDMDL
MODEL 9
REMARK VINA RESULT:      -5.9     26.204     29.454
REMARK  Name = 75367185
REMARK  6 active torsions:
REMARK  status: ('A' for Active; 'I' for Inactive)
REMARK    1  A    between atoms: O_3  and  C_21
REMARK    2  A    between atoms: O_3  and  C_27
REMARK    3  A    between atoms: N_4  and  C_10
REMARK    4  A    between atoms: C_7  and  C_12
REMARK    5  A    between atoms: C_10  and  C_13
REMARK    6  A    between atoms: C_14  and  C_18
REMARK                            x       y       z     vdW  Elec       q    Type
REMARK                         _______ _______ _______ _____ _____    ______ ____
ROOT
ATOM      2  O   UNL     1     -10.636   9.815  16.705  0.00  0.00    -0.377 OA
ATOM      4  N   UNL     1     -11.584   8.425  19.020  0.00  0.00    -0.285 NA
ATOM      7  C   UNL     1     -11.211   9.861  19.080  0.00  0.00    +0.149 C 
ATOM      8  C   UNL     1     -10.848   7.751  17.937  0.00  0.00    +0.113 C 
ATOM      9  C   UNL     1     -11.391  10.512  17.695  0.00  0.00    +0.186 C 
ATOM     11  C   UNL     1     -11.071   8.461  16.608  0.00  0.00    +0.175 C 
ENDROOT
BRANCH   7  12
ATOM      5  N   UNL     1     -11.700  10.607  21.437  0.00  0.00    -0.341 N 
ATOM      6  N   UNL     1     -13.031  11.444  19.869  0.00  0.00    -0.238 NA
ATOM     12  C   UNL     1     -12.006  10.655  20.106  0.00  0.00    +0.127 A 
ATOM     14  C   UNL     1     -12.586  11.417  22.092  0.00  0.00    +0.066 A 
ATOM     15  C   UNL     1     -13.397  11.921  21.103  0.00  0.00    +0.139 A 
ATOM     28  H   UNL     1     -10.955  10.063  21.854  0.00  0.00    +0.167 HD
BRANCH  14  18
ATOM      1 CL   UNL     1     -10.462  10.329  26.662  0.00  0.00    -0.084 Cl
ATOM     18  C   UNL     1     -12.572  11.616  23.517  0.00  0.00    +0.001 A 
ATOM     22  C   UNL     1     -11.632  10.952  24.306  0.00  0.00    +0.030 A 
ATOM     23  C   UNL     1     -13.500  12.473  24.109  0.00  0.00    +0.010 A 
ATOM     24  C   UNL     1     -11.620  11.147  25.687  0.00  0.00    +0.042 A 
ATOM     25  C   UNL     1     -13.488  12.667  25.491  0.00  0.00    +0.002 A 
ATOM     26  C   UNL     1     -12.548  12.004  26.279  0.00  0.00    +0.020 A 
ENDBRANCH  14  18
ENDBRANCH   7  12
BRANCH   4  10
ATOM     10  C   UNL     1     -11.318   7.731  20.286  0.00  0.00    +0.120 C 
BRANCH  10  13
ATOM     13  C   UNL     1     -12.510   6.941  20.755  0.00  0.00    -0.033 A 
ATOM     16  C   UNL     1     -13.795   7.313  20.356  0.00  0.00    +0.008 A 
ATOM     17  C   UNL     1     -12.332   5.837  21.587  0.00  0.00    +0.008 A 
ATOM     19  C   UNL     1     -14.900   6.581  20.789  0.00  0.00    +0.046 A 
ATOM     20  C   UNL     1     -13.437   5.105  22.021  0.00  0.00    +0.046 A 
ATOM     21  C   UNL     1     -14.721   5.476  21.622  0.00  0.00    +0.120 A 
BRANCH  21   3
ATOM      3  O   UNL     1     -15.799   4.761  22.045  0.00  0.00    -0.495 OA
ATOM     27  C   UNL     1     -15.877   4.468  23.439  0.00  0.00    +0.277 C 
ENDBRANCH  21   3
ENDBRANCH  10  13
ENDBRANCH   4  10
TORSDOF 5
ENDMDL
MODEL 10
REMARK VINA RESULT:      -5.8     23.319     26.466
REMARK  Name = 75367185
REMARK  6 active torsions:
REMARK  status: ('A' for Active; 'I' for Inactive)
REMARK    1  A    between atoms: O_3  and  C_21
REMARK    2  A    between atoms: O_3  and  C_27
REMARK    3  A    between atoms: N_4  and  C_10
REMARK    4  A    between atoms: C_7  and  C_12
REMARK    5  A    between atoms: C_10  and  C_13
REMARK    6  A    between atoms: C_14  and  C_18
REMARK                            x       y       z     vdW  Elec       q    Type
REMARK                         _______ _______ _______ _____ _____    ______ ____
ROOT
ATOM      2  O   UNL     1      -3.531 -15.384  15.225  0.00  0.00    -0.377 OA
ATOM      4  N   UNL     1      -4.403 -12.685  15.613  0.00  0.00    -0.285 NA
ATOM      7  C   UNL     1      -3.166 -12.996  14.852  0.00  0.00    +0.149 C 
ATOM      8  C   UNL     1      -4.690 -13.758  16.581  0.00  0.00    +0.113 C 
ATOM      9  C   UNL     1      -3.270 -14.400  14.226  0.00  0.00    +0.186 C 
ATOM     11  C   UNL     1      -4.766 -15.109  15.883  0.00  0.00    +0.175 C 
ENDROOT
BRANCH   7  12
ATOM      5  N   UNL     1      -3.638 -11.885  12.639  0.00  0.00    -0.341 N 
ATOM      6  N   UNL     1      -1.857 -11.133  13.731  0.00  0.00    -0.238 NA
ATOM     12  C   UNL     1      -2.856 -11.988  13.755  0.00  0.00    +0.127 A 
ATOM     14  C   UNL     1      -3.105 -10.903  11.853  0.00  0.00    +0.066 A 
ATOM     15  C   UNL     1      -2.006 -10.454  12.548  0.00  0.00    +0.139 A 
ATOM     28  H   UNL     1      -4.458 -12.444  12.438  0.00  0.00    +0.167 HD
BRANCH  14  18
ATOM      1 CL   UNL     1      -5.100 -12.304   7.310  0.00  0.00    -0.084 Cl
ATOM     18  C   UNL     1      -3.664 -10.512  10.586  0.00  0.00    +0.001 A 
ATOM     22  C   UNL     1      -4.064 -11.485   9.670  0.00  0.00    +0.030 A 
ATOM     23  C   UNL     1      -3.805  -9.159  10.274  0.00  0.00    +0.010 A 
ATOM     24  C   UNL     1      -4.607 -11.105   8.442  0.00  0.00    +0.042 A 
ATOM     25  C   UNL     1      -4.348  -8.780   9.046  0.00  0.00    +0.002 A 
ATOM     26  C   UNL     1      -4.748  -9.753   8.130  0.00  0.00    +0.020 A 
ENDBRANCH  14  18
ENDBRANCH   7  12
BRANCH   4  10
ATOM     10  C   UNL     1      -4.306 -11.406  16.327  0.00  0.00    +0.120 C 
BRANCH  10  13
ATOM     13  C   UNL     1      -5.411 -11.242  17.336  0.00  0.00    -0.033 A 
ATOM     16  C   UNL     1      -6.742 -11.218  16.916  0.00  0.00    +0.008 A 
ATOM     17  C   UNL     1      -5.107 -11.115  18.691  0.00  0.00    +0.008 A 
ATOM     19  C   UNL     1      -7.766 -11.067  17.850  0.00  0.00    +0.046 A 
ATOM     20  C   UNL     1      -6.131 -10.962  19.625  0.00  0.00    +0.046 A 
ATOM     21  C   UNL     1      -7.460 -10.939  19.205  0.00  0.00    +0.120 A 
BRANCH  21   3
ATOM      3  O   UNL     1      -8.460 -10.792  20.117  0.00  0.00    -0.495 OA
ATOM     27  C   UNL     1      -9.799 -10.895  19.634  0.00  0.00    +0.277 C 
ENDBRANCH  21   3
ENDBRANCH  10  13
ENDBRANCH   4  10
TORSDOF 5
ENDMDL
