MODEL 1
REMARK VINA RESULT:      -6.7      0.000      0.000
REMARK  Name = 51137905
REMARK  3 active torsions:
REMARK  status: ('A' for Active; 'I' for Inactive)
REMARK    1  A    between atoms: N_4  and  C_14
REMARK    2  A    between atoms: C_6  and  C_10
REMARK    3  A    between atoms: C_11  and  C_15
REMARK                            x       y       z     vdW  Elec       q    Type
REMARK                         _______ _______ _______ _____ _____    ______ ____
ROOT
ATOM      2  O   UNL     1      -1.701 -10.618  16.568  0.00  0.00    -0.270 OA
ATOM      3  N   UNL     1      -2.807 -12.000  15.063  0.00  0.00    -0.297 N 
ATOM      6  C   UNL     1      -3.622 -13.038  13.084  0.00  0.00    +0.074 C 
ATOM      7  C   UNL     1      -2.117 -13.312  13.229  0.00  0.00    +0.032 C 
ATOM      8  C   UNL     1      -4.009 -12.625  14.511  0.00  0.00    +0.119 C 
ATOM      9  C   UNL     1      -1.648 -12.261  14.225  0.00  0.00    +0.109 C 
ATOM     11  C   UNL     1      -2.722 -11.185  16.182  0.00  0.00    +0.247 C 
ENDROOT
BRANCH   6  10
ATOM      4  N   UNL     1      -4.100 -12.399  10.684  0.00  0.00    -0.330 N 
ATOM      5  N   UNL     1      -3.988 -10.724  12.141  0.00  0.00    -0.232 NA
ATOM     10  C   UNL     1      -3.903 -12.026  11.985  0.00  0.00    +0.115 A 
ATOM     12  C   UNL     1      -4.327 -11.262   9.953  0.00  0.00    +0.069 A 
ATOM     13  C   UNL     1      -4.252 -10.230  10.884  0.00  0.00    +0.089 A 
ATOM     14  C   UNL     1      -4.073 -13.750  10.169  0.00  0.00    +0.150 C 
ATOM     16  C   UNL     1      -4.584 -11.054   8.597  0.00  0.00    +0.028 A 
ATOM     17  C   UNL     1      -4.442  -8.905  10.456  0.00  0.00    +0.030 A 
ATOM     18  C   UNL     1      -4.770  -9.730   8.188  0.00  0.00    +0.002 A 
ATOM     19  C   UNL     1      -4.701  -8.673   9.099  0.00  0.00    +0.002 A 
ENDBRANCH   6  10
BRANCH  11  15
ATOM      1  F   UNL     1      -7.406 -10.356  19.137  0.00  0.00    -0.205 F 
ATOM     15  C   UNL     1      -3.952 -10.966  16.958  0.00  0.00    +0.037 A 
ATOM     20  C   UNL     1      -4.935 -10.101  16.479  0.00  0.00    +0.016 A 
ATOM     21  C   UNL     1      -4.136 -11.626  18.174  0.00  0.00    +0.016 A 
ATOM     22  C   UNL     1      -6.102  -9.894  17.214  0.00  0.00    +0.039 A 
ATOM     23  C   UNL     1      -5.303 -11.419  18.909  0.00  0.00    +0.039 A 
ATOM     24  C   UNL     1      -6.285 -10.553  18.430  0.00  0.00    +0.123 A 
ENDBRANCH  11  15
TORSDOF 2
ENDMDL
MODEL 2
REMARK VINA RESULT:      -6.6     23.175     25.305
REMARK  Name = 51137905
REMARK  3 active torsions:
REMARK  status: ('A' for Active; 'I' for Inactive)
REMARK    1  A    between atoms: N_4  and  C_14
REMARK    2  A    between atoms: C_6  and  C_10
REMARK    3  A    between atoms: C_11  and  C_15
REMARK                            x       y       z     vdW  Elec       q    Type
REMARK                         _______ _______ _______ _____ _____    ______ ____
ROOT
ATOM      2  O   UNL     1       7.925   7.226   5.133  0.00  0.00    -0.270 OA
ATOM      3  N   UNL     1      10.217   7.578   4.994  0.00  0.00    -0.297 N 
ATOM      6  C   UNL     1      12.461   7.762   4.224  0.00  0.00    +0.074 C 
ATOM      7  C   UNL     1      11.598   8.850   3.566  0.00  0.00    +0.032 C 
ATOM      8  C   UNL     1      11.598   7.356   5.427  0.00  0.00    +0.119 C 
ATOM      9  C   UNL     1      10.172   8.357   3.766  0.00  0.00    +0.109 C 
ATOM     11  C   UNL     1       9.063   7.075   5.574  0.00  0.00    +0.247 C 
ENDROOT
BRANCH   6  10
ATOM      4  N   UNL     1      14.026   6.616   2.603  0.00  0.00    -0.330 N 
ATOM      5  N   UNL     1      12.045   5.654   2.899  0.00  0.00    -0.232 NA
ATOM     10  C   UNL     1      12.818   6.660   3.242  0.00  0.00    +0.115 A 
ATOM     12  C   UNL     1      14.032   5.510   1.794  0.00  0.00    +0.069 A 
ATOM     13  C   UNL     1      12.785   4.925   1.996  0.00  0.00    +0.089 A 
ATOM     14  C   UNL     1      15.106   7.566   2.751  0.00  0.00    +0.150 C 
ATOM     16  C   UNL     1      14.994   4.985   0.929  0.00  0.00    +0.028 A 
ATOM     17  C   UNL     1      12.459   3.747   1.303  0.00  0.00    +0.030 A 
ATOM     18  C   UNL     1      14.653   3.812   0.247  0.00  0.00    +0.002 A 
ATOM     19  C   UNL     1      13.409   3.203   0.429  0.00  0.00    +0.002 A 
ENDBRANCH   6  10
BRANCH  11  15
ATOM      1  F   UNL     1       9.629   4.069  10.265  0.00  0.00    -0.205 F 
ATOM     15  C   UNL     1       9.211   6.285   6.807  0.00  0.00    +0.037 A 
ATOM     20  C   UNL     1       9.651   4.963   6.739  0.00  0.00    +0.016 A 
ATOM     21  C   UNL     1       8.912   6.858   8.043  0.00  0.00    +0.016 A 
ATOM     22  C   UNL     1       9.792   4.214   7.907  0.00  0.00    +0.039 A 
ATOM     23  C   UNL     1       9.053   6.110   9.210  0.00  0.00    +0.039 A 
ATOM     24  C   UNL     1       9.492   4.788   9.142  0.00  0.00    +0.123 A 
ENDBRANCH  11  15
TORSDOF 2
ENDMDL
MODEL 3
REMARK VINA RESULT:      -6.3     24.748     27.259
REMARK  Name = 51137905
REMARK  3 active torsions:
REMARK  status: ('A' for Active; 'I' for Inactive)
REMARK    1  A    between atoms: N_4  and  C_14
REMARK    2  A    between atoms: C_6  and  C_10
REMARK    3  A    between atoms: C_11  and  C_15
REMARK                            x       y       z     vdW  Elec       q    Type
REMARK                         _______ _______ _______ _____ _____    ______ ____
ROOT
ATOM      2  O   UNL     1      19.270  -5.168  25.426  0.00  0.00    -0.270 OA
ATOM      3  N   UNL     1      18.728  -3.815  27.235  0.00  0.00    -0.297 N 
ATOM      6  C   UNL     1      18.021  -3.011  29.360  0.00  0.00    +0.074 C 
ATOM      7  C   UNL     1      19.323  -3.811  29.517  0.00  0.00    +0.032 C 
ATOM      8  C   UNL     1      18.022  -2.694  27.858  0.00  0.00    +0.119 C 
ATOM      9  C   UNL     1      19.412  -4.622  28.233  0.00  0.00    +0.109 C 
ATOM     11  C   UNL     1      18.721  -4.172  25.895  0.00  0.00    +0.247 C 
ENDROOT
BRANCH   6  10
ATOM      4  N   UNL     1      16.066  -3.322  30.932  0.00  0.00    -0.330 N 
ATOM      5  N   UNL     1      16.386  -4.932  29.434  0.00  0.00    -0.232 NA
ATOM     10  C   UNL     1      16.824  -3.781  29.890  0.00  0.00    +0.115 A 
ATOM     12  C   UNL     1      15.074  -4.239  31.163  0.00  0.00    +0.069 A 
ATOM     13  C   UNL     1      15.294  -5.235  30.215  0.00  0.00    +0.089 A 
ATOM     14  C   UNL     1      16.272  -2.091  31.662  0.00  0.00    +0.150 C 
ATOM     16  C   UNL     1      14.032  -4.281  32.092  0.00  0.00    +0.028 A 
ATOM     17  C   UNL     1      14.435  -6.346  30.177  0.00  0.00    +0.030 A 
ATOM     18  C   UNL     1      13.188  -5.395  32.039  0.00  0.00    +0.002 A 
ATOM     19  C   UNL     1      13.384  -6.410  31.100  0.00  0.00    +0.002 A 
ENDBRANCH   6  10
BRANCH  11  15
ATOM      1  F   UNL     1      15.930  -0.855  22.350  0.00  0.00    -0.205 F 
ATOM     15  C   UNL     1      17.988  -3.301  24.963  0.00  0.00    +0.037 A 
ATOM     20  C   UNL     1      16.664  -3.590  24.634  0.00  0.00    +0.016 A 
ATOM     21  C   UNL     1      18.617  -2.186  24.409  0.00  0.00    +0.016 A 
ATOM     22  C   UNL     1      15.968  -2.764  23.751  0.00  0.00    +0.039 A 
ATOM     23  C   UNL     1      17.922  -1.361  23.527  0.00  0.00    +0.039 A 
ATOM     24  C   UNL     1      16.598  -1.650  23.197  0.00  0.00    +0.123 A 
ENDBRANCH  11  15
TORSDOF 2
ENDMDL
MODEL 4
REMARK VINA RESULT:      -6.2      3.527      5.481
REMARK  Name = 51137905
REMARK  3 active torsions:
REMARK  status: ('A' for Active; 'I' for Inactive)
REMARK    1  A    between atoms: N_4  and  C_14
REMARK    2  A    between atoms: C_6  and  C_10
REMARK    3  A    between atoms: C_11  and  C_15
REMARK                            x       y       z     vdW  Elec       q    Type
REMARK                         _______ _______ _______ _____ _____    ______ ____
ROOT
ATOM      2  O   UNL     1      -7.962 -11.047  20.000  0.00  0.00    -0.270 OA
ATOM      3  N   UNL     1      -7.487 -11.931  17.905  0.00  0.00    -0.297 N 
ATOM      6  C   UNL     1      -6.382 -12.803  15.986  0.00  0.00    +0.074 C 
ATOM      7  C   UNL     1      -6.253 -13.795  17.151  0.00  0.00    +0.032 C 
ATOM      8  C   UNL     1      -7.558 -11.927  16.443  0.00  0.00    +0.119 C 
ATOM      9  C   UNL     1      -6.575 -12.959  18.382  0.00  0.00    +0.109 C 
ATOM     11  C   UNL     1      -8.109 -11.053  18.779  0.00  0.00    +0.247 C 
ENDROOT
BRANCH   6  10
ATOM      4  N   UNL     1      -4.730 -11.643  14.463  0.00  0.00    -0.330 N 
ATOM      5  N   UNL     1      -4.139 -11.820  16.599  0.00  0.00    -0.232 NA
ATOM     10  C   UNL     1      -5.070 -12.088  15.711  0.00  0.00    +0.115 A 
ATOM     12  C   UNL     1      -3.498 -11.048  14.553  0.00  0.00    +0.069 A 
ATOM     13  C   UNL     1      -3.150 -11.171  15.895  0.00  0.00    +0.089 A 
ATOM     14  C   UNL     1      -5.525 -11.774  13.263  0.00  0.00    +0.150 C 
ATOM     16  C   UNL     1      -2.683 -10.431  13.603  0.00  0.00    +0.028 A 
ATOM     17  C   UNL     1      -1.919 -10.654  16.334  0.00  0.00    +0.030 A 
ATOM     18  C   UNL     1      -1.461  -9.923  14.057  0.00  0.00    +0.002 A 
ATOM     19  C   UNL     1      -1.085 -10.032  15.397  0.00  0.00    +0.002 A 
ENDBRANCH   6  10
BRANCH  11  15
ATOM      1  F   UNL     1     -11.508  -7.184  16.579  0.00  0.00    -0.205 F 
ATOM     15  C   UNL     1      -9.002 -10.037  18.200  0.00  0.00    +0.037 A 
ATOM     20  C   UNL     1     -10.378 -10.117  18.411  0.00  0.00    +0.016 A 
ATOM     21  C   UNL     1      -8.472  -8.993  17.442  0.00  0.00    +0.016 A 
ATOM     22  C   UNL     1     -11.225  -9.154  17.864  0.00  0.00    +0.039 A 
ATOM     23  C   UNL     1      -9.319  -8.030  16.894  0.00  0.00    +0.039 A 
ATOM     24  C   UNL     1     -10.695  -8.111  17.105  0.00  0.00    +0.123 A 
ENDBRANCH  11  15
TORSDOF 2
ENDMDL
MODEL 5
REMARK VINA RESULT:      -6.1      3.480      7.144
REMARK  Name = 51137905
REMARK  3 active torsions:
REMARK  status: ('A' for Active; 'I' for Inactive)
REMARK    1  A    between atoms: N_4  and  C_14
REMARK    2  A    between atoms: C_6  and  C_10
REMARK    3  A    between atoms: C_11  and  C_15
REMARK                            x       y       z     vdW  Elec       q    Type
REMARK                         _______ _______ _______ _____ _____    ______ ____
ROOT
ATOM      2  O   UNL     1      -3.998 -13.547  13.877  0.00  0.00    -0.270 OA
ATOM      3  N   UNL     1      -4.119 -11.823  15.430  0.00  0.00    -0.297 N 
ATOM      6  C   UNL     1      -4.817 -10.350  17.163  0.00  0.00    +0.074 C 
ATOM      7  C   UNL     1      -4.507 -11.733  17.754  0.00  0.00    +0.032 C 
ATOM      8  C   UNL     1      -4.088 -10.411  15.813  0.00  0.00    +0.119 C 
ATOM      9  C   UNL     1      -4.525 -12.661  16.547  0.00  0.00    +0.109 C 
ATOM     11  C   UNL     1      -3.888 -12.358  14.171  0.00  0.00    +0.247 C 
ENDROOT
BRANCH   6  10
ATOM      4  N   UNL     1      -7.116 -10.244  18.210  0.00  0.00    -0.330 N 
ATOM      5  N   UNL     1      -6.989  -9.683  16.063  0.00  0.00    -0.232 NA
ATOM     10  C   UNL     1      -6.311 -10.083  17.115  0.00  0.00    +0.115 A 
ATOM     12  C   UNL     1      -8.396  -9.926  17.839  0.00  0.00    +0.069 A 
ATOM     13  C   UNL     1      -8.292  -9.579  16.494  0.00  0.00    +0.089 A 
ATOM     14  C   UNL     1      -6.694 -10.672  19.525  0.00  0.00    +0.150 C 
ATOM     16  C   UNL     1      -9.601  -9.911  18.543  0.00  0.00    +0.028 A 
ATOM     17  C   UNL     1      -9.447  -9.193  15.794  0.00  0.00    +0.030 A 
ATOM     18  C   UNL     1     -10.741  -9.525  17.830  0.00  0.00    +0.002 A 
ATOM     19  C   UNL     1     -10.668  -9.172  16.481  0.00  0.00    +0.002 A 
ENDBRANCH   6  10
BRANCH  11  15
ATOM      1  F   UNL     1      -2.397  -8.824  10.091  0.00  0.00    -0.205 F 
ATOM     15  C   UNL     1      -3.496 -11.429  13.100  0.00  0.00    +0.037 A 
ATOM     20  C   UNL     1      -2.146 -11.177  12.855  0.00  0.00    +0.016 A 
ATOM     21  C   UNL     1      -4.474 -10.802  12.328  0.00  0.00    +0.016 A 
ATOM     22  C   UNL     1      -1.775 -10.297  11.839  0.00  0.00    +0.039 A 
ATOM     23  C   UNL     1      -4.103  -9.922  11.312  0.00  0.00    +0.039 A 
ATOM     24  C   UNL     1      -2.753  -9.669  11.068  0.00  0.00    +0.123 A 
ENDBRANCH  11  15
TORSDOF 2
ENDMDL
MODEL 6
REMARK VINA RESULT:      -6.1     23.613     26.377
REMARK  Name = 51137905
REMARK  3 active torsions:
REMARK  status: ('A' for Active; 'I' for Inactive)
REMARK    1  A    between atoms: N_4  and  C_14
REMARK    2  A    between atoms: C_6  and  C_10
REMARK    3  A    between atoms: C_11  and  C_15
REMARK                            x       y       z     vdW  Elec       q    Type
REMARK                         _______ _______ _______ _____ _____    ______ ____
ROOT
ATOM      2  O   UNL     1      15.105   6.525   2.580  0.00  0.00    -0.270 OA
ATOM      3  N   UNL     1      12.886   7.170   2.818  0.00  0.00    -0.297 N 
ATOM      6  C   UNL     1      10.772   7.811   3.702  0.00  0.00    +0.074 C 
ATOM      7  C   UNL     1      11.800   8.921   3.966  0.00  0.00    +0.032 C 
ATOM      8  C   UNL     1      11.451   7.009   2.583  0.00  0.00    +0.119 C 
ATOM      9  C   UNL     1      13.143   8.229   3.782  0.00  0.00    +0.109 C 
ATOM     11  C   UNL     1      13.915   6.401   2.296  0.00  0.00    +0.247 C 
ENDROOT
BRANCH   6  10
ATOM      4  N   UNL     1       9.794   7.641   6.027  0.00  0.00    -0.330 N 
ATOM      5  N   UNL     1      10.697   5.784   5.205  0.00  0.00    -0.232 NA
ATOM     10  C   UNL     1      10.432   7.050   4.972  0.00  0.00    +0.115 A 
ATOM     12  C   UNL     1       9.637   6.694   7.005  0.00  0.00    +0.069 A 
ATOM     13  C   UNL     1      10.208   5.543   6.469  0.00  0.00    +0.089 A 
ATOM     14  C   UNL     1       9.361   9.018   6.101  0.00  0.00    +0.150 C 
ATOM     16  C   UNL     1       9.060   6.743   8.275  0.00  0.00    +0.028 A 
ATOM     17  C   UNL     1      10.214   4.362   7.230  0.00  0.00    +0.030 A 
ATOM     18  C   UNL     1       9.075   5.558   9.019  0.00  0.00    +0.002 A 
ATOM     19  C   UNL     1       9.642   4.389   8.508  0.00  0.00    +0.002 A 
ENDBRANCH   6  10
BRANCH  11  15
ATOM      1  F   UNL     1      12.547   2.373  -1.346  0.00  0.00    -0.205 F 
ATOM     15  C   UNL     1      13.555   5.343   1.340  0.00  0.00    +0.037 A 
ATOM     20  C   UNL     1      13.441   5.640  -0.019  0.00  0.00    +0.016 A 
ATOM     21  C   UNL     1      13.329   4.043   1.790  0.00  0.00    +0.016 A 
ATOM     22  C   UNL     1      13.100   4.638  -0.926  0.00  0.00    +0.039 A 
ATOM     23  C   UNL     1      12.988   3.040   0.883  0.00  0.00    +0.039 A 
ATOM     24  C   UNL     1      12.873   3.338  -0.475  0.00  0.00    +0.123 A 
ENDBRANCH  11  15
TORSDOF 2
ENDMDL
MODEL 7
REMARK VINA RESULT:      -6.1      3.163      7.206
REMARK  Name = 51137905
REMARK  3 active torsions:
REMARK  status: ('A' for Active; 'I' for Inactive)
REMARK    1  A    between atoms: N_4  and  C_14
REMARK    2  A    between atoms: C_6  and  C_10
REMARK    3  A    between atoms: C_11  and  C_15
REMARK                            x       y       z     vdW  Elec       q    Type
REMARK                         _______ _______ _______ _____ _____    ______ ____
ROOT
ATOM      2  O   UNL     1      -4.406 -13.361  10.017  0.00  0.00    -0.270 OA
ATOM      3  N   UNL     1      -3.446 -11.773  11.414  0.00  0.00    -0.297 N 
ATOM      6  C   UNL     1      -2.632 -10.585  13.308  0.00  0.00    +0.074 C 
ATOM      7  C   UNL     1      -1.788 -11.849  13.090  0.00  0.00    +0.032 C 
ATOM      8  C   UNL     1      -3.308 -10.414  11.940  0.00  0.00    +0.119 C 
ATOM      9  C   UNL     1      -2.654 -12.717  12.187  0.00  0.00    +0.109 C 
ATOM     11  C   UNL     1      -4.266 -12.194  10.378  0.00  0.00    +0.247 C 
ENDROOT
BRANCH   6  10
ATOM      4  N   UNL     1      -3.080 -10.761  15.790  0.00  0.00    -0.330 N 
ATOM      5  N   UNL     1      -4.863 -10.828  14.465  0.00  0.00    -0.232 NA
ATOM     10  C   UNL     1      -3.554 -10.726  14.507  0.00  0.00    +0.115 A 
ATOM     12  C   UNL     1      -4.155 -10.894  16.630  0.00  0.00    +0.069 A 
ATOM     13  C   UNL     1      -5.257 -10.933  15.779  0.00  0.00    +0.089 A 
ATOM     14  C   UNL     1      -1.694 -10.673  16.192  0.00  0.00    +0.150 C 
ATOM     16  C   UNL     1      -4.256 -10.980  18.019  0.00  0.00    +0.028 A 
ATOM     17  C   UNL     1      -6.543 -11.066  16.329  0.00  0.00    +0.030 A 
ATOM     18  C   UNL     1      -5.544 -11.113  18.549  0.00  0.00    +0.002 A 
ATOM     19  C   UNL     1      -6.668 -11.156  17.721  0.00  0.00    +0.002 A 
ENDBRANCH   6  10
BRANCH  11  15
ATOM      1  F   UNL     1      -7.215  -8.283   7.664  0.00  0.00    -0.205 F 
ATOM     15  C   UNL     1      -5.041 -11.167   9.665  0.00  0.00    +0.037 A 
ATOM     20  C   UNL     1      -6.302 -10.795  10.131  0.00  0.00    +0.016 A 
ATOM     21  C   UNL     1      -4.514 -10.564   8.523  0.00  0.00    +0.016 A 
ATOM     22  C   UNL     1      -7.037  -9.822   9.456  0.00  0.00    +0.039 A 
ATOM     23  C   UNL     1      -5.249  -9.590   7.847  0.00  0.00    +0.039 A 
ATOM     24  C   UNL     1      -6.510  -9.219   8.313  0.00  0.00    +0.123 A 
ENDBRANCH  11  15
TORSDOF 2
ENDMDL
MODEL 8
REMARK VINA RESULT:      -6.0     23.660     27.244
REMARK  Name = 51137905
REMARK  3 active torsions:
REMARK  status: ('A' for Active; 'I' for Inactive)
REMARK    1  A    between atoms: N_4  and  C_14
REMARK    2  A    between atoms: C_6  and  C_10
REMARK    3  A    between atoms: C_11  and  C_15
REMARK                            x       y       z     vdW  Elec       q    Type
REMARK                         _______ _______ _______ _____ _____    ______ ____
ROOT
ATOM      2  O   UNL     1     -13.513   7.495  34.752  0.00  0.00    -0.270 OA
ATOM      3  N   UNL     1     -15.096   6.956  33.140  0.00  0.00    -0.297 N 
ATOM      6  C   UNL     1     -16.588   5.791  31.698  0.00  0.00    +0.074 C 
ATOM      7  C   UNL     1     -17.079   5.677  33.149  0.00  0.00    +0.032 C 
ATOM      8  C   UNL     1     -15.633   6.990  31.778  0.00  0.00    +0.119 C 
ATOM      9  C   UNL     1     -15.855   6.041  33.979  0.00  0.00    +0.109 C 
ATOM     11  C   UNL     1     -13.972   7.611  33.617  0.00  0.00    +0.247 C 
ENDROOT
BRANCH   6  10
ATOM      4  N   UNL     1     -16.744   3.550  30.538  0.00  0.00    -0.330 N 
ATOM      5  N   UNL     1     -14.747   4.101  31.344  0.00  0.00    -0.232 NA
ATOM     10  C   UNL     1     -15.996   4.483  31.202  0.00  0.00    +0.115 A 
ATOM     12  C   UNL     1     -15.922   2.497  30.232  0.00  0.00    +0.069 A 
ATOM     13  C   UNL     1     -14.680   2.864  30.744  0.00  0.00    +0.089 A 
ATOM     14  C   UNL     1     -18.149   3.652  30.217  0.00  0.00    +0.150 C 
ATOM     16  C   UNL     1     -16.150   1.290  29.568  0.00  0.00    +0.028 A 
ATOM     17  C   UNL     1     -13.591   1.989  30.596  0.00  0.00    +0.030 A 
ATOM     18  C   UNL     1     -15.055   0.431  29.430  0.00  0.00    +0.002 A 
ATOM     19  C   UNL     1     -13.798   0.772  29.935  0.00  0.00    +0.002 A 
ENDBRANCH   6  10
BRANCH  11  15
ATOM      1  F   UNL     1     -11.265  11.008  30.081  0.00  0.00    -0.205 F 
ATOM     15  C   UNL     1     -13.260   8.504  32.689  0.00  0.00    +0.037 A 
ATOM     20  C   UNL     1     -11.976   8.177  32.253  0.00  0.00    +0.016 A 
ATOM     21  C   UNL     1     -13.871   9.676  32.243  0.00  0.00    +0.016 A 
ATOM     22  C   UNL     1     -11.301   9.023  31.373  0.00  0.00    +0.039 A 
ATOM     23  C   UNL     1     -13.196  10.521  31.362  0.00  0.00    +0.039 A 
ATOM     24  C   UNL     1     -11.912  10.195  30.928  0.00  0.00    +0.123 A 
ENDBRANCH  11  15
TORSDOF 2
ENDMDL
MODEL 9
REMARK VINA RESULT:      -6.0      3.930      7.199
REMARK  Name = 51137905
REMARK  3 active torsions:
REMARK  status: ('A' for Active; 'I' for Inactive)
REMARK    1  A    between atoms: N_4  and  C_14
REMARK    2  A    between atoms: C_6  and  C_10
REMARK    3  A    between atoms: C_11  and  C_15
REMARK                            x       y       z     vdW  Elec       q    Type
REMARK                         _______ _______ _______ _____ _____    ______ ____
ROOT
ATOM      2  O   UNL     1      -4.670 -13.631  15.406  0.00  0.00    -0.270 OA
ATOM      3  N   UNL     1      -5.197 -12.196  17.154  0.00  0.00    -0.297 N 
ATOM      6  C   UNL     1      -6.353 -10.860  18.748  0.00  0.00    +0.074 C 
ATOM      7  C   UNL     1      -6.621 -12.346  19.028  0.00  0.00    +0.032 C 
ATOM      8  C   UNL     1      -5.094 -10.924  17.871  0.00  0.00    +0.119 C 
ATOM      9  C   UNL     1      -6.232 -13.040  17.730  0.00  0.00    +0.109 C 
ATOM     11  C   UNL     1      -4.498 -12.580  16.020  0.00  0.00    +0.247 C 
ENDROOT
BRANCH   6  10
ATOM      4  N   UNL     1      -8.826 -10.345  18.649  0.00  0.00    -0.330 N 
ATOM      5  N   UNL     1      -7.560  -9.371  17.104  0.00  0.00    -0.232 NA
ATOM     10  C   UNL     1      -7.567 -10.175  18.143  0.00  0.00    +0.115 A 
ATOM     12  C   UNL     1      -9.688  -9.600  17.886  0.00  0.00    +0.069 A 
ATOM     13  C   UNL     1      -8.874  -9.001  16.928  0.00  0.00    +0.089 A 
ATOM     14  C   UNL     1      -9.188 -11.162  19.786  0.00  0.00    +0.150 C 
ATOM     16  C   UNL     1     -11.068  -9.404  17.950  0.00  0.00    +0.028 A 
ATOM     17  C   UNL     1      -9.454  -8.154  15.969  0.00  0.00    +0.030 A 
ATOM     18  C   UNL     1     -11.629  -8.559  16.987  0.00  0.00    +0.002 A 
ATOM     19  C   UNL     1     -10.837  -7.944  16.014  0.00  0.00    +0.002 A 
ENDBRANCH   6  10
BRANCH  11  15
ATOM      1  F   UNL     1      -0.624  -9.050  14.047  0.00  0.00    -0.205 F 
ATOM     15  C   UNL     1      -3.480 -11.652  15.502  0.00  0.00    +0.037 A 
ATOM     20  C   UNL     1      -2.466 -11.189  16.341  0.00  0.00    +0.016 A 
ATOM     21  C   UNL     1      -3.529 -11.236  14.171  0.00  0.00    +0.016 A 
ATOM     22  C   UNL     1      -1.502 -10.310  15.850  0.00  0.00    +0.039 A 
ATOM     23  C   UNL     1      -2.564 -10.357  13.680  0.00  0.00    +0.039 A 
ATOM     24  C   UNL     1      -1.551  -9.894  14.520  0.00  0.00    +0.123 A 
ENDBRANCH  11  15
TORSDOF 2
ENDMDL
MODEL 10
REMARK VINA RESULT:      -6.0     27.872     28.976
REMARK  Name = 51137905
REMARK  3 active torsions:
REMARK  status: ('A' for Active; 'I' for Inactive)
REMARK    1  A    between atoms: N_4  and  C_14
REMARK    2  A    between atoms: C_6  and  C_10
REMARK    3  A    between atoms: C_11  and  C_15
REMARK                            x       y       z     vdW  Elec       q    Type
REMARK                         _______ _______ _______ _____ _____    ______ ____
ROOT
ATOM      2  O   UNL     1      14.262  13.378  23.406  0.00  0.00    -0.270 OA
ATOM      3  N   UNL     1      13.438  11.314  22.730  0.00  0.00    -0.297 N 
ATOM      6  C   UNL     1      13.098   9.241  21.612  0.00  0.00    +0.074 C 
ATOM      7  C   UNL     1      14.403   9.184  22.419  0.00  0.00    +0.032 C 
ATOM      8  C   UNL     1      12.372  10.426  22.265  0.00  0.00    +0.119 C 
ATOM      9  C   UNL     1      14.730  10.646  22.692  0.00  0.00    +0.109 C 
ATOM     11  C   UNL     1      13.324  12.647  23.092  0.00  0.00    +0.247 C 
ENDROOT
BRANCH   6  10
ATOM      4  N   UNL     1      13.539   8.246  19.330  0.00  0.00    -0.330 N 
ATOM      5  N   UNL     1      13.461  10.465  19.434  0.00  0.00    -0.232 NA
ATOM     10  C   UNL     1      13.366   9.349  20.121  0.00  0.00    +0.115 A 
ATOM     12  C   UNL     1      13.760   8.680  18.049  0.00  0.00    +0.069 A 
ATOM     13  C   UNL     1      13.706  10.069  18.139  0.00  0.00    +0.089 A 
ATOM     14  C   UNL     1      13.497   6.868  19.765  0.00  0.00    +0.150 C 
ATOM     16  C   UNL     1      13.995   7.998  16.854  0.00  0.00    +0.028 A 
ATOM     17  C   UNL     1      13.896  10.838  16.979  0.00  0.00    +0.030 A 
ATOM     18  C   UNL     1      14.182   8.780  15.709  0.00  0.00    +0.002 A 
ATOM     19  C   UNL     1      14.134  10.174  15.769  0.00  0.00    +0.002 A 
ENDBRANCH   6  10
BRANCH  11  15
ATOM      1  F   UNL     1       8.197  14.902  23.064  0.00  0.00    -0.205 F 
ATOM     15  C   UNL     1      11.978  13.240  23.085  0.00  0.00    +0.037 A 
ATOM     20  C   UNL     1      11.432  13.717  21.893  0.00  0.00    +0.016 A 
ATOM     21  C   UNL     1      11.246  13.324  24.269  0.00  0.00    +0.016 A 
ATOM     22  C   UNL     1      10.155  14.279  21.886  0.00  0.00    +0.039 A 
ATOM     23  C   UNL     1       9.970  13.886  24.262  0.00  0.00    +0.039 A 
ATOM     24  C   UNL     1       9.425  14.363  23.070  0.00  0.00    +0.123 A 
ENDBRANCH  11  15
TORSDOF 2
ENDMDL
