MODEL 1
REMARK VINA RESULT:      -7.7      0.000      0.000
REMARK  Name = 51136907
REMARK  5 active torsions:
REMARK  status: ('A' for Active; 'I' for Inactive)
REMARK    1  A    between atoms: N_2  and  C_9
REMARK    2  A    between atoms: C_8  and  C_9
REMARK    3  A    between atoms: C_10  and  C_19
REMARK    4  A    between atoms: C_20  and  C_21
REMARK    5  A    between atoms: C_25  and  C_26
REMARK                            x       y       z     vdW  Elec       q    Type
REMARK                         _______ _______ _______ _____ _____    ______ ____
ROOT
ATOM      1  O   UNL     1      21.071   5.944  23.024  0.00  0.00    -0.336 OA
ATOM      3  N   UNL     1      20.674   5.582  20.849  0.00  0.00    -0.190 NA
ATOM      4  N   UNL     1      19.736   6.309  22.806  0.00  0.00    -0.056 NA
ATOM     19  C   UNL     1      21.550   5.528  21.822  0.00  0.00    +0.245 A 
ATOM     20  C   UNL     1      19.578   6.067  21.501  0.00  0.00    +0.204 A 
ENDROOT
BRANCH  20  21
ATOM      5  N   UNL     1      16.165   7.358  20.787  0.00  0.00    -0.254 NA
ATOM     21  C   UNL     1      18.338   6.300  20.818  0.00  0.00    +0.041 A 
ATOM     22  C   UNL     1      18.086   5.729  19.576  0.00  0.00    +0.015 A 
ATOM     23  C   UNL     1      17.353   7.100  21.376  0.00  0.00    +0.123 A 
ATOM     24  C   UNL     1      16.875   5.972  18.938  0.00  0.00    +0.029 A 
ATOM     25  C   UNL     1      15.956   6.786  19.580  0.00  0.00    +0.074 A 
BRANCH  25  26
ATOM      6  N   UNL     1      12.278   7.174  19.124  0.00  0.00    -0.243 NA
ATOM      7  N   UNL     1      13.387   7.842  17.092  0.00  0.00    -0.243 NA
ATOM     26  C   UNL     1      14.677   7.084  18.977  0.00  0.00    +0.037 A 
ATOM     27  C   UNL     1      13.489   6.909  19.656  0.00  0.00    +0.124 A 
ATOM     28  C   UNL     1      14.565   7.557  17.686  0.00  0.00    +0.124 A 
ATOM     29  C   UNL     1      12.300   7.631  17.857  0.00  0.00    +0.221 A 
ENDBRANCH  25  26
ENDBRANCH  20  21
BRANCH  19  10
ATOM      2  N   UNL     1      23.256   4.093  20.717  0.00  0.00    -0.291 NA
ATOM     10  C   UNL     1      22.993   5.074  21.790  0.00  0.00    +0.146 C 
ATOM     13  C   UNL     1      24.656   4.270  20.329  0.00  0.00    +0.085 C 
ATOM     14  C   UNL     1      23.974   6.228  21.514  0.00  0.00    +0.030 C 
ATOM     15  C   UNL     1      24.786   5.780  20.307  0.00  0.00    +0.017 C 
BRANCH   2   9
ATOM      9  C   UNL     1      22.966   2.720  21.110  0.00  0.00    +0.088 C 
BRANCH   9   8
ATOM      8  C   UNL     1      24.052   2.177  22.035  0.00  0.00    +0.003 C 
ATOM     11  C   UNL     1      24.618   0.859  21.491  0.00  0.00    +0.005 C 
ATOM     12  C   UNL     1      23.508   1.991  23.459  0.00  0.00    +0.005 C 
ATOM     16  C   UNL     1      25.670   0.267  22.427  0.00  0.00    +0.000 C 
ATOM     17  C   UNL     1      24.562   1.398  24.391  0.00  0.00    +0.000 C 
ATOM     18  C   UNL     1      25.129   0.092  23.842  0.00  0.00    +0.000 C 
ENDBRANCH   9   8
ENDBRANCH   2   9
ENDBRANCH  19  10
TORSDOF 5
ENDMDL
MODEL 2
REMARK VINA RESULT:      -7.4      1.169      2.040
REMARK  Name = 51136907
REMARK  5 active torsions:
REMARK  status: ('A' for Active; 'I' for Inactive)
REMARK    1  A    between atoms: N_2  and  C_9
REMARK    2  A    between atoms: C_8  and  C_9
REMARK    3  A    between atoms: C_10  and  C_19
REMARK    4  A    between atoms: C_20  and  C_21
REMARK    5  A    between atoms: C_25  and  C_26
REMARK                            x       y       z     vdW  Elec       q    Type
REMARK                         _______ _______ _______ _____ _____    ______ ____
ROOT
ATOM      1  O   UNL     1      21.251   4.741  20.882  0.00  0.00    -0.336 OA
ATOM      3  N   UNL     1      20.174   6.613  21.477  0.00  0.00    -0.190 NA
ATOM      4  N   UNL     1      20.027   4.720  20.200  0.00  0.00    -0.056 NA
ATOM     19  C   UNL     1      21.257   5.888  21.611  0.00  0.00    +0.245 A 
ATOM     20  C   UNL     1      19.450   5.856  20.603  0.00  0.00    +0.204 A 
ENDROOT
BRANCH  20  21
ATOM      5  N   UNL     1      16.322   5.980  18.597  0.00  0.00    -0.254 NA
ATOM     21  C   UNL     1      18.151   6.264  20.152  0.00  0.00    +0.041 A 
ATOM     22  C   UNL     1      17.463   7.294  20.785  0.00  0.00    +0.015 A 
ATOM     23  C   UNL     1      17.542   5.645  19.072  0.00  0.00    +0.123 A 
ATOM     24  C   UNL     1      16.205   7.667  20.324  0.00  0.00    +0.029 A 
ATOM     25  C   UNL     1      15.684   6.986  19.237  0.00  0.00    +0.074 A 
BRANCH  25  26
ATOM      6  N   UNL     1      13.000   7.984  16.853  0.00  0.00    -0.243 NA
ATOM      7  N   UNL     1      12.017   7.621  19.023  0.00  0.00    -0.243 NA
ATOM     26  C   UNL     1      14.383   7.318  18.706  0.00  0.00    +0.037 A 
ATOM     27  C   UNL     1      14.199   7.666  17.383  0.00  0.00    +0.124 A 
ATOM     28  C   UNL     1      13.245   7.313  19.487  0.00  0.00    +0.124 A 
ATOM     29  C   UNL     1      11.967   7.942  17.716  0.00  0.00    +0.221 A 
ENDBRANCH  25  26
ENDBRANCH  20  21
BRANCH  19  10
ATOM      2  N   UNL     1      23.399   4.986  22.500  0.00  0.00    -0.291 NA
ATOM     10  C   UNL     1      22.490   6.149  22.450  0.00  0.00    +0.146 C 
ATOM     13  C   UNL     1      24.749   5.523  22.676  0.00  0.00    +0.085 C 
ATOM     14  C   UNL     1      23.354   7.296  21.895  0.00  0.00    +0.030 C 
ATOM     15  C   UNL     1      24.744   6.701  21.722  0.00  0.00    +0.017 C 
BRANCH   2   9
ATOM      9  C   UNL     1      23.050   4.028  23.541  0.00  0.00    +0.088 C 
BRANCH   9   8
ATOM      8  C   UNL     1      23.358   2.601  23.094  0.00  0.00    +0.003 C 
ATOM     11  C   UNL     1      24.423   1.967  23.998  0.00  0.00    +0.005 C 
ATOM     12  C   UNL     1      23.804   2.578  21.625  0.00  0.00    +0.005 C 
ATOM     16  C   UNL     1      24.788   0.557  23.538  0.00  0.00    +0.000 C 
ATOM     17  C   UNL     1      24.169   1.167  21.169  0.00  0.00    +0.000 C 
ATOM     18  C   UNL     1      25.223   0.537  22.076  0.00  0.00    +0.000 C 
ENDBRANCH   9   8
ENDBRANCH   2   9
ENDBRANCH  19  10
TORSDOF 5
ENDMDL
MODEL 3
REMARK VINA RESULT:      -7.3      2.714     10.706
REMARK  Name = 51136907
REMARK  5 active torsions:
REMARK  status: ('A' for Active; 'I' for Inactive)
REMARK    1  A    between atoms: N_2  and  C_9
REMARK    2  A    between atoms: C_8  and  C_9
REMARK    3  A    between atoms: C_10  and  C_19
REMARK    4  A    between atoms: C_20  and  C_21
REMARK    5  A    between atoms: C_25  and  C_26
REMARK                            x       y       z     vdW  Elec       q    Type
REMARK                         _______ _______ _______ _____ _____    ______ ____
ROOT
ATOM      1  O   UNL     1      15.194   8.517  19.915  0.00  0.00    -0.336 OA
ATOM      3  N   UNL     1      15.998   6.618  19.040  0.00  0.00    -0.190 NA
ATOM      4  N   UNL     1      16.441   8.307  20.519  0.00  0.00    -0.056 NA
ATOM     19  C   UNL     1      15.010   7.477  19.059  0.00  0.00    +0.245 A 
ATOM     20  C   UNL     1      16.851   7.169  19.951  0.00  0.00    +0.204 A 
ENDROOT
BRANCH  20  21
ATOM      5  N   UNL     1      19.642   4.712  19.972  0.00  0.00    -0.254 NA
ATOM     21  C   UNL     1      18.107   6.555  20.272  0.00  0.00    +0.041 A 
ATOM     22  C   UNL     1      18.994   7.159  21.156  0.00  0.00    +0.015 A 
ATOM     23  C   UNL     1      18.476   5.342  19.712  0.00  0.00    +0.123 A 
ATOM     24  C   UNL     1      20.205   6.540  21.449  0.00  0.00    +0.029 A 
ATOM     25  C   UNL     1      20.479   5.329  20.836  0.00  0.00    +0.074 A 
BRANCH  25  26
ATOM      6  N   UNL     1      22.932   2.902  22.243  0.00  0.00    -0.243 NA
ATOM      7  N   UNL     1      24.071   4.343  20.683  0.00  0.00    -0.243 NA
ATOM     26  C   UNL     1      21.716   4.629  21.091  0.00  0.00    +0.037 A 
ATOM     27  C   UNL     1      21.794   3.576  21.979  0.00  0.00    +0.124 A 
ATOM     28  C   UNL     1      22.898   4.973  20.466  0.00  0.00    +0.124 A 
ATOM     29  C   UNL     1      24.017   3.331  21.571  0.00  0.00    +0.221 A 
ENDBRANCH  25  26
ENDBRANCH  20  21
BRANCH  19  10
ATOM      2  N   UNL     1      12.722   8.424  18.807  0.00  0.00    -0.291 NA
ATOM     10  C   UNL     1      13.717   7.472  18.272  0.00  0.00    +0.146 C 
ATOM     13  C   UNL     1      11.902   8.847  17.671  0.00  0.00    +0.085 C 
ATOM     14  C   UNL     1      13.913   7.895  16.805  0.00  0.00    +0.030 C 
ATOM     15  C   UNL     1      12.945   9.049  16.590  0.00  0.00    +0.017 C 
BRANCH   2   9
ATOM      9  C   UNL     1      11.918   7.868  19.887  0.00  0.00    +0.088 C 
BRANCH   9   8
ATOM      8  C   UNL     1      11.319   8.979  20.747  0.00  0.00    +0.003 C 
ATOM     11  C   UNL     1      12.219  10.222  20.731  0.00  0.00    +0.005 C 
ATOM     12  C   UNL     1      11.091   8.490  22.184  0.00  0.00    +0.005 C 
ATOM     16  C   UNL     1      11.670  11.330  21.627  0.00  0.00    +0.000 C 
ATOM     17  C   UNL     1      10.543   9.600  23.077  0.00  0.00    +0.000 C 
ATOM     18  C   UNL     1      11.436  10.837  23.051  0.00  0.00    +0.000 C 
ENDBRANCH   9   8
ENDBRANCH   2   9
ENDBRANCH  19  10
TORSDOF 5
ENDMDL
MODEL 4
REMARK VINA RESULT:      -7.2      2.491     10.495
REMARK  Name = 51136907
REMARK  5 active torsions:
REMARK  status: ('A' for Active; 'I' for Inactive)
REMARK    1  A    between atoms: N_2  and  C_9
REMARK    2  A    between atoms: C_8  and  C_9
REMARK    3  A    between atoms: C_10  and  C_19
REMARK    4  A    between atoms: C_20  and  C_21
REMARK    5  A    between atoms: C_25  and  C_26
REMARK                            x       y       z     vdW  Elec       q    Type
REMARK                         _______ _______ _______ _____ _____    ______ ____
ROOT
ATOM      1  O   UNL     1      15.397   9.536  21.692  0.00  0.00    -0.336 OA
ATOM      3  N   UNL     1      15.553   7.535  20.696  0.00  0.00    -0.190 NA
ATOM      4  N   UNL     1      16.738   9.147  21.807  0.00  0.00    -0.056 NA
ATOM     19  C   UNL     1      14.768   8.531  21.026  0.00  0.00    +0.245 A 
ATOM     20  C   UNL     1      16.750   7.958  21.196  0.00  0.00    +0.204 A 
ENDROOT
BRANCH  20  21
ATOM      5  N   UNL     1      20.191   6.691  21.808  0.00  0.00    -0.254 NA
ATOM     21  C   UNL     1      17.940   7.168  21.068  0.00  0.00    +0.041 A 
ATOM     22  C   UNL     1      18.024   6.146  20.129  0.00  0.00    +0.015 A 
ATOM     23  C   UNL     1      19.041   7.397  21.877  0.00  0.00    +0.123 A 
ATOM     24  C   UNL     1      19.192   5.397  20.028  0.00  0.00    +0.029 A 
ATOM     25  C   UNL     1      20.237   5.706  20.883  0.00  0.00    +0.074 A 
BRANCH  25  26
ATOM      6  N   UNL     1      22.693   2.917  21.147  0.00  0.00    -0.243 NA
ATOM      7  N   UNL     1      23.844   4.899  20.403  0.00  0.00    -0.243 NA
ATOM     26  C   UNL     1      21.478   4.970  20.836  0.00  0.00    +0.037 A 
ATOM     27  C   UNL     1      21.552   3.635  21.177  0.00  0.00    +0.124 A 
ATOM     28  C   UNL     1      22.667   5.556  20.454  0.00  0.00    +0.124 A 
ATOM     29  C   UNL     1      23.786   3.601  20.757  0.00  0.00    +0.221 A 
ENDBRANCH  25  26
ENDBRANCH  20  21
BRANCH  19  10
ATOM      2  N   UNL     1      12.590   7.432  20.537  0.00  0.00    -0.291 NA
ATOM     10  C   UNL     1      13.287   8.713  20.771  0.00  0.00    +0.146 C 
ATOM     13  C   UNL     1      11.215   7.619  21.001  0.00  0.00    +0.085 C 
ATOM     14  C   UNL     1      12.552   9.346  21.967  0.00  0.00    +0.030 C 
ATOM     15  C   UNL     1      11.422   8.381  22.295  0.00  0.00    +0.017 C 
BRANCH   2   9
ATOM      9  C   UNL     1      12.645   6.993  19.148  0.00  0.00    +0.088 C 
BRANCH   9   8
ATOM      8  C   UNL     1      12.635   8.189  18.199  0.00  0.00    +0.003 C 
ATOM     11  C   UNL     1      11.390   8.159  17.303  0.00  0.00    +0.005 C 
ATOM     12  C   UNL     1      13.916   8.220  17.353  0.00  0.00    +0.005 C 
ATOM     16  C   UNL     1      11.383   9.316  16.306  0.00  0.00    +0.000 C 
ATOM     17  C   UNL     1      13.905   9.378  16.357  0.00  0.00    +0.000 C 
ATOM     18  C   UNL     1      12.661   9.349  15.474  0.00  0.00    +0.000 C 
ENDBRANCH   9   8
ENDBRANCH   2   9
ENDBRANCH  19  10
TORSDOF 5
ENDMDL
MODEL 5
REMARK VINA RESULT:      -7.1      2.944     10.616
REMARK  Name = 51136907
REMARK  5 active torsions:
REMARK  status: ('A' for Active; 'I' for Inactive)
REMARK    1  A    between atoms: N_2  and  C_9
REMARK    2  A    between atoms: C_8  and  C_9
REMARK    3  A    between atoms: C_10  and  C_19
REMARK    4  A    between atoms: C_20  and  C_21
REMARK    5  A    between atoms: C_25  and  C_26
REMARK                            x       y       z     vdW  Elec       q    Type
REMARK                         _______ _______ _______ _____ _____    ______ ____
ROOT
ATOM      1  O   UNL     1      14.364   6.729  19.657  0.00  0.00    -0.336 OA
ATOM      3  N   UNL     1      15.657   7.581  21.277  0.00  0.00    -0.190 NA
ATOM      4  N   UNL     1      15.646   6.204  19.449  0.00  0.00    -0.056 NA
ATOM     19  C   UNL     1      14.458   7.529  20.752  0.00  0.00    +0.245 A 
ATOM     20  C   UNL     1      16.351   6.753  20.443  0.00  0.00    +0.204 A 
ENDROOT
BRANCH  20  21
ATOM      5  N   UNL     1      19.807   7.014  21.789  0.00  0.00    -0.254 NA
ATOM     21  C   UNL     1      17.750   6.495  20.631  0.00  0.00    +0.041 A 
ATOM     22  C   UNL     1      18.406   5.524  19.884  0.00  0.00    +0.015 A 
ATOM     23  C   UNL     1      18.489   7.207  21.563  0.00  0.00    +0.123 A 
ATOM     24  C   UNL     1      19.763   5.297  20.089  0.00  0.00    +0.029 A 
ATOM     25  C   UNL     1      20.411   6.062  21.044  0.00  0.00    +0.074 A 
BRANCH  25  26
ATOM      6  N   UNL     1      23.741   6.275  22.705  0.00  0.00    -0.243 NA
ATOM      7  N   UNL     1      23.959   4.974  20.689  0.00  0.00    -0.243 NA
ATOM     26  C   UNL     1      21.819   5.880  21.312  0.00  0.00    +0.037 A 
ATOM     27  C   UNL     1      22.429   6.422  22.425  0.00  0.00    +0.124 A 
ATOM     28  C   UNL     1      22.641   5.159  20.470  0.00  0.00    +0.124 A 
ATOM     29  C   UNL     1      24.436   5.550  21.808  0.00  0.00    +0.221 A 
ENDBRANCH  25  26
ENDBRANCH  20  21
BRANCH  19  10
ATOM      2  N   UNL     1      12.387   8.718  20.052  0.00  0.00    -0.291 NA
ATOM     10  C   UNL     1      13.187   8.224  21.191  0.00  0.00    +0.146 C 
ATOM     13  C   UNL     1      10.990   8.697  20.487  0.00  0.00    +0.085 C 
ATOM     14  C   UNL     1      12.235   7.290  21.961  0.00  0.00    +0.030 C 
ATOM     15  C   UNL     1      10.910   7.371  21.218  0.00  0.00    +0.017 C 
BRANCH   2   9
ATOM      9  C   UNL     1      12.797  10.038  19.591  0.00  0.00    +0.088 C 
BRANCH   9   8
ATOM      8  C   UNL     1      13.689   9.930  18.356  0.00  0.00    +0.003 C 
ATOM     11  C   UNL     1      13.926  11.313  17.736  0.00  0.00    +0.005 C 
ATOM     12  C   UNL     1      13.077   8.969  17.328  0.00  0.00    +0.005 C 
ATOM     16  C   UNL     1      14.772  11.227  16.468  0.00  0.00    +0.000 C 
ATOM     17  C   UNL     1      13.925   8.885  16.060  0.00  0.00    +0.000 C 
ATOM     18  C   UNL     1      14.165  10.264  15.452  0.00  0.00    +0.000 C 
ENDBRANCH   9   8
ENDBRANCH   2   9
ENDBRANCH  19  10
TORSDOF 5
ENDMDL
MODEL 6
REMARK VINA RESULT:      -7.0      4.069     11.350
REMARK  Name = 51136907
REMARK  5 active torsions:
REMARK  status: ('A' for Active; 'I' for Inactive)
REMARK    1  A    between atoms: N_2  and  C_9
REMARK    2  A    between atoms: C_8  and  C_9
REMARK    3  A    between atoms: C_10  and  C_19
REMARK    4  A    between atoms: C_20  and  C_21
REMARK    5  A    between atoms: C_25  and  C_26
REMARK                            x       y       z     vdW  Elec       q    Type
REMARK                         _______ _______ _______ _____ _____    ______ ____
ROOT
ATOM      1  O   UNL     1      14.004   7.182  19.951  0.00  0.00    -0.336 OA
ATOM      3  N   UNL     1      15.351   7.543  21.704  0.00  0.00    -0.190 NA
ATOM      4  N   UNL     1      15.301   6.884  19.514  0.00  0.00    -0.056 NA
ATOM     19  C   UNL     1      14.122   7.562  21.250  0.00  0.00    +0.245 A 
ATOM     20  C   UNL     1      16.038   7.121  20.603  0.00  0.00    +0.204 A 
ENDROOT
BRANCH  20  21
ATOM      5  N   UNL     1      19.386   5.604  20.048  0.00  0.00    -0.254 NA
ATOM     21  C   UNL     1      17.461   6.947  20.625  0.00  0.00    +0.041 A 
ATOM     22  C   UNL     1      18.290   7.895  21.214  0.00  0.00    +0.015 A 
ATOM     23  C   UNL     1      18.054   5.828  20.061  0.00  0.00    +0.123 A 
ATOM     24  C   UNL     1      19.667   7.699  21.220  0.00  0.00    +0.029 A 
ATOM     25  C   UNL     1      20.161   6.547  20.629  0.00  0.00    +0.074 A 
BRANCH  25  26
ATOM      6  N   UNL     1      23.849   7.073  20.583  0.00  0.00    -0.243 NA
ATOM      7  N   UNL     1      23.400   4.707  20.508  0.00  0.00    -0.243 NA
ATOM     26  C   UNL     1      21.579   6.277  20.597  0.00  0.00    +0.037 A 
ATOM     27  C   UNL     1      22.518   7.288  20.614  0.00  0.00    +0.124 A 
ATOM     28  C   UNL     1      22.082   4.993  20.542  0.00  0.00    +0.124 A 
ATOM     29  C   UNL     1      24.216   5.778  20.531  0.00  0.00    +0.221 A 
ENDBRANCH  25  26
ENDBRANCH  20  21
BRANCH  19  10
ATOM      2  N   UNL     1      12.267   9.207  21.463  0.00  0.00    -0.291 NA
ATOM     10  C   UNL     1      12.842   7.942  21.963  0.00  0.00    +0.146 C 
ATOM     13  C   UNL     1      10.820   9.108  21.654  0.00  0.00    +0.085 C 
ATOM     14  C   UNL     1      11.724   6.901  21.768  0.00  0.00    +0.030 C 
ATOM     15  C   UNL     1      10.543   7.685  21.214  0.00  0.00    +0.017 C 
BRANCH   2   9
ATOM      9  C   UNL     1      12.826  10.387  22.111  0.00  0.00    +0.088 C 
BRANCH   9   8
ATOM      8  C   UNL     1      11.723  11.241  22.731  0.00  0.00    +0.003 C 
ATOM     11  C   UNL     1      11.604  12.586  22.002  0.00  0.00    +0.005 C 
ATOM     12  C   UNL     1      11.981  11.454  24.230  0.00  0.00    +0.005 C 
ATOM     16  C   UNL     1      10.543  13.481  22.638  0.00  0.00    +0.000 C 
ATOM     17  C   UNL     1      10.918  12.350  24.862  0.00  0.00    +0.000 C 
ATOM     18  C   UNL     1      10.797  13.682  24.129  0.00  0.00    +0.000 C 
ENDBRANCH   9   8
ENDBRANCH   2   9
ENDBRANCH  19  10
TORSDOF 5
ENDMDL
MODEL 7
REMARK VINA RESULT:      -7.0     17.438     22.144
REMARK  Name = 51136907
REMARK  5 active torsions:
REMARK  status: ('A' for Active; 'I' for Inactive)
REMARK    1  A    between atoms: N_2  and  C_9
REMARK    2  A    between atoms: C_8  and  C_9
REMARK    3  A    between atoms: C_10  and  C_19
REMARK    4  A    between atoms: C_20  and  C_21
REMARK    5  A    between atoms: C_25  and  C_26
REMARK                            x       y       z     vdW  Elec       q    Type
REMARK                         _______ _______ _______ _____ _____    ______ ____
ROOT
ATOM      1  O   UNL     1      10.190   6.909  -1.522  0.00  0.00    -0.336 OA
ATOM      3  N   UNL     1      10.359   5.166  -0.124  0.00  0.00    -0.190 NA
ATOM      4  N   UNL     1       9.921   7.409  -0.241  0.00  0.00    -0.056 NA
ATOM     19  C   UNL     1      10.436   5.582  -1.364  0.00  0.00    +0.245 A 
ATOM     20  C   UNL     1      10.040   6.322   0.527  0.00  0.00    +0.204 A 
ENDROOT
BRANCH  20  21
ATOM      5  N   UNL     1      10.215   5.334   4.108  0.00  0.00    -0.254 NA
ATOM     21  C   UNL     1       9.846   6.356   1.948  0.00  0.00    +0.041 A 
ATOM     22  C   UNL     1       9.135   7.388   2.550  0.00  0.00    +0.015 A 
ATOM     23  C   UNL     1      10.362   5.362   2.765  0.00  0.00    +0.123 A 
ATOM     24  C   UNL     1       8.963   7.394   3.930  0.00  0.00    +0.029 A 
ATOM     25  C   UNL     1       9.518   6.354   4.657  0.00  0.00    +0.074 A 
BRANCH  25  26
ATOM      6  N   UNL     1       8.638   7.285   8.156  0.00  0.00    -0.243 NA
ATOM      7  N   UNL     1       9.737   5.142   8.176  0.00  0.00    -0.243 NA
ATOM     26  C   UNL     1       9.381   6.294   6.094  0.00  0.00    +0.037 A 
ATOM     27  C   UNL     1       8.780   7.306   6.815  0.00  0.00    +0.124 A 
ATOM     28  C   UNL     1       9.846   5.227   6.833  0.00  0.00    +0.124 A 
ATOM     29  C   UNL     1       9.131   6.190   8.764  0.00  0.00    +0.221 A 
ENDBRANCH  25  26
ENDBRANCH  20  21
BRANCH  19  10
ATOM      2  N   UNL     1      11.645   3.649  -2.361  0.00  0.00    -0.291 NA
ATOM     10  C   UNL     1      10.759   4.801  -2.620  0.00  0.00    +0.146 C 
ATOM     13  C   UNL     1      11.322   2.642  -3.372  0.00  0.00    +0.085 C 
ATOM     14  C   UNL     1       9.508   4.192  -3.279  0.00  0.00    +0.030 C 
ATOM     15  C   UNL     1       9.808   2.705  -3.404  0.00  0.00    +0.017 C 
BRANCH   2   9
ATOM      9  C   UNL     1      13.060   3.998  -2.368  0.00  0.00    +0.088 C 
BRANCH   9   8
ATOM      8  C   UNL     1      13.561   4.269  -0.951  0.00  0.00    +0.003 C 
ATOM     11  C   UNL     1      15.093   4.352  -0.924  0.00  0.00    +0.005 C 
ATOM     12  C   UNL     1      13.056   3.191   0.018  0.00  0.00    +0.005 C 
ATOM     16  C   UNL     1      15.623   4.569   0.491  0.00  0.00    +0.000 C 
ATOM     17  C   UNL     1      13.588   3.411   1.432  0.00  0.00    +0.000 C 
ATOM     18  C   UNL     1      15.111   3.501   1.453  0.00  0.00    +0.000 C 
ENDBRANCH   9   8
ENDBRANCH   2   9
ENDBRANCH  19  10
TORSDOF 5
ENDMDL
MODEL 8
REMARK VINA RESULT:      -6.9      1.713      4.233
REMARK  Name = 51136907
REMARK  5 active torsions:
REMARK  status: ('A' for Active; 'I' for Inactive)
REMARK    1  A    between atoms: N_2  and  C_9
REMARK    2  A    between atoms: C_8  and  C_9
REMARK    3  A    between atoms: C_10  and  C_19
REMARK    4  A    between atoms: C_20  and  C_21
REMARK    5  A    between atoms: C_25  and  C_26
REMARK                            x       y       z     vdW  Elec       q    Type
REMARK                         _______ _______ _______ _____ _____    ______ ____
ROOT
ATOM      1  O   UNL     1      20.720   6.016  22.413  0.00  0.00    -0.336 OA
ATOM      3  N   UNL     1      19.948   5.366  20.413  0.00  0.00    -0.190 NA
ATOM      4  N   UNL     1      19.470   6.629  22.259  0.00  0.00    -0.056 NA
ATOM     19  C   UNL     1      20.926   5.291  21.282  0.00  0.00    +0.245 A 
ATOM     20  C   UNL     1      19.079   6.198  21.057  0.00  0.00    +0.204 A 
ENDROOT
BRANCH  20  21
ATOM      5  N   UNL     1      16.135   6.197  18.787  0.00  0.00    -0.254 NA
ATOM     21  C   UNL     1      17.828   6.580  20.469  0.00  0.00    +0.041 A 
ATOM     22  C   UNL     1      17.100   7.654  20.968  0.00  0.00    +0.015 A 
ATOM     23  C   UNL     1      17.306   5.890  19.386  0.00  0.00    +0.123 A 
ATOM     24  C   UNL     1      15.889   8.000  20.377  0.00  0.00    +0.029 A 
ATOM     25  C   UNL     1      15.455   7.247  19.299  0.00  0.00    +0.074 A 
BRANCH  25  26
ATOM      6  N   UNL     1      13.014   8.285  16.681  0.00  0.00    -0.243 NA
ATOM      7  N   UNL     1      11.805   7.688  18.679  0.00  0.00    -0.243 NA
ATOM     26  C   UNL     1      14.207   7.548  18.636  0.00  0.00    +0.037 A 
ATOM     27  C   UNL     1      14.160   7.993  17.330  0.00  0.00    +0.124 A 
ATOM     28  C   UNL     1      12.988   7.413  19.267  0.00  0.00    +0.124 A 
ATOM     29  C   UNL     1      11.890   8.113  17.404  0.00  0.00    +0.221 A 
ENDBRANCH  25  26
ENDBRANCH  20  21
BRANCH  19  10
ATOM      2  N   UNL     1      23.388   5.321  21.635  0.00  0.00    -0.291 NA
ATOM     10  C   UNL     1      22.226   4.521  21.201  0.00  0.00    +0.146 C 
ATOM     13  C   UNL     1      24.363   4.375  22.179  0.00  0.00    +0.085 C 
ATOM     14  C   UNL     1      22.241   3.282  22.115  0.00  0.00    +0.030 C 
ATOM     15  C   UNL     1      23.480   3.445  22.985  0.00  0.00    +0.017 C 
BRANCH   2   9
ATOM      9  C   UNL     1      23.954   6.139  20.568  0.00  0.00    +0.088 C 
BRANCH   9   8
ATOM      8  C   UNL     1      23.739   7.624  20.849  0.00  0.00    +0.003 C 
ATOM     11  C   UNL     1      23.562   7.872  22.353  0.00  0.00    +0.005 C 
ATOM     12  C   UNL     1      22.533   8.156  20.062  0.00  0.00    +0.005 C 
ATOM     16  C   UNL     1      23.292   9.344  22.656  0.00  0.00    +0.000 C 
ATOM     17  C   UNL     1      22.266   9.628  20.368  0.00  0.00    +0.000 C 
ATOM     18  C   UNL     1      22.099   9.871  21.865  0.00  0.00    +0.000 C 
ENDBRANCH   9   8
ENDBRANCH   2   9
ENDBRANCH  19  10
TORSDOF 5
ENDMDL
MODEL 9
REMARK VINA RESULT:      -6.7     28.597     32.162
REMARK  Name = 51136907
REMARK  5 active torsions:
REMARK  status: ('A' for Active; 'I' for Inactive)
REMARK    1  A    between atoms: N_2  and  C_9
REMARK    2  A    between atoms: C_8  and  C_9
REMARK    3  A    between atoms: C_10  and  C_19
REMARK    4  A    between atoms: C_20  and  C_21
REMARK    5  A    between atoms: C_25  and  C_26
REMARK                            x       y       z     vdW  Elec       q    Type
REMARK                         _______ _______ _______ _____ _____    ______ ____
ROOT
ATOM      1  O   UNL     1      -9.161 -10.391  18.576  0.00  0.00    -0.336 OA
ATOM      3  N   UNL     1      -8.573  -9.502  16.606  0.00  0.00    -0.190 NA
ATOM      4  N   UNL     1     -10.193  -9.513  18.221  0.00  0.00    -0.056 NA
ATOM     19  C   UNL     1      -8.247 -10.324  17.572  0.00  0.00    +0.245 A 
ATOM     20  C   UNL     1      -9.773  -9.028  17.049  0.00  0.00    +0.204 A 
ENDROOT
BRANCH  20  21
ATOM      5  N   UNL     1     -11.657  -7.484  14.239  0.00  0.00    -0.254 NA
ATOM     21  C   UNL     1     -10.528  -8.069  16.296  0.00  0.00    +0.041 A 
ATOM     22  C   UNL     1     -10.866  -6.835  16.840  0.00  0.00    +0.015 A 
ATOM     23  C   UNL     1     -10.945  -8.342  15.002  0.00  0.00    +0.123 A 
ATOM     24  C   UNL     1     -11.599  -5.925  16.085  0.00  0.00    +0.029 A 
ATOM     25  C   UNL     1     -11.966  -6.294  14.802  0.00  0.00    +0.074 A 
BRANCH  25  26
ATOM      6  N   UNL     1     -12.817  -3.521  12.464  0.00  0.00    -0.243 NA
ATOM      7  N   UNL     1     -14.838  -4.700  13.039  0.00  0.00    -0.243 NA
ATOM     26  C   UNL     1     -12.729  -5.402  13.961  0.00  0.00    +0.037 A 
ATOM     27  C   UNL     1     -12.136  -4.374  13.256  0.00  0.00    +0.124 A 
ATOM     28  C   UNL     1     -14.096  -5.518  13.813  0.00  0.00    +0.124 A 
ATOM     29  C   UNL     1     -14.144  -3.738  12.401  0.00  0.00    +0.221 A 
ENDBRANCH  25  26
ENDBRANCH  20  21
BRANCH  19  10
ATOM      2  N   UNL     1      -5.774 -10.406  17.831  0.00  0.00    -0.291 NA
ATOM     10  C   UNL     1      -7.018 -11.194  17.719  0.00  0.00    +0.146 C 
ATOM     13  C   UNL     1      -4.848 -11.205  18.634  0.00  0.00    +0.085 C 
ATOM     14  C   UNL     1      -7.049 -12.057  18.994  0.00  0.00    +0.030 C 
ATOM     15  C   UNL     1      -5.756 -11.732  19.727  0.00  0.00    +0.017 C 
BRANCH   2   9
ATOM      9  C   UNL     1      -5.206 -10.043  16.539  0.00  0.00    +0.088 C 
BRANCH   9   8
ATOM      8  C   UNL     1      -4.052 -10.972  16.170  0.00  0.00    +0.003 C 
ATOM     11  C   UNL     1      -2.749 -10.180  16.003  0.00  0.00    +0.005 C 
ATOM     12  C   UNL     1      -4.378 -11.762  14.895  0.00  0.00    +0.005 C 
ATOM     16  C   UNL     1      -1.590 -11.080  15.582  0.00  0.00    +0.000 C 
ATOM     17  C   UNL     1      -3.217 -12.660  14.476  0.00  0.00    +0.000 C 
ATOM     18  C   UNL     1      -1.921 -11.869  14.320  0.00  0.00    +0.000 C 
ENDBRANCH   9   8
ENDBRANCH   2   9
ENDBRANCH  19  10
TORSDOF 5
ENDMDL
MODEL 10
REMARK VINA RESULT:      -6.7     17.383     22.279
REMARK  Name = 51136907
REMARK  5 active torsions:
REMARK  status: ('A' for Active; 'I' for Inactive)
REMARK    1  A    between atoms: N_2  and  C_9
REMARK    2  A    between atoms: C_8  and  C_9
REMARK    3  A    between atoms: C_10  and  C_19
REMARK    4  A    between atoms: C_20  and  C_21
REMARK    5  A    between atoms: C_25  and  C_26
REMARK                            x       y       z     vdW  Elec       q    Type
REMARK                         _______ _______ _______ _____ _____    ______ ____
ROOT
ATOM      1  O   UNL     1      10.142   4.452   5.567  0.00  0.00    -0.336 OA
ATOM      3  N   UNL     1      10.931   5.916   4.067  0.00  0.00    -0.190 NA
ATOM      4  N   UNL     1      10.319   3.734   4.378  0.00  0.00    -0.056 NA
ATOM     19  C   UNL     1      10.525   5.728   5.298  0.00  0.00    +0.245 A 
ATOM     20  C   UNL     1      10.786   4.665   3.541  0.00  0.00    +0.204 A 
ENDROOT
BRANCH  20  21
ATOM      5  N   UNL     1      10.451   4.346  -0.148  0.00  0.00    -0.254 NA
ATOM     21  C   UNL     1      11.118   4.380   2.175  0.00  0.00    +0.041 A 
ATOM     22  C   UNL     1      12.369   3.880   1.831  0.00  0.00    +0.015 A 
ATOM     23  C   UNL     1      10.203   4.594   1.157  0.00  0.00    +0.123 A 
ATOM     24  C   UNL     1      12.662   3.613   0.498  0.00  0.00    +0.029 A 
ATOM     25  C   UNL     1      11.677   3.861  -0.444  0.00  0.00    +0.074 A 
BRANCH  25  26
ATOM      6  N   UNL     1      13.359   3.700  -3.766  0.00  0.00    -0.243 NA
ATOM      7  N   UNL     1      11.134   2.799  -3.976  0.00  0.00    -0.243 NA
ATOM     26  C   UNL     1      11.910   3.608  -1.847  0.00  0.00    +0.037 A 
ATOM     27  C   UNL     1      13.108   3.920  -2.459  0.00  0.00    +0.124 A 
ATOM     28  C   UNL     1      10.950   3.045  -2.662  0.00  0.00    +0.124 A 
ATOM     29  C   UNL     1      12.344   3.146  -4.456  0.00  0.00    +0.221 A 
ENDBRANCH  25  26
ENDBRANCH  20  21
BRANCH  19  10
ATOM      2  N   UNL     1       9.195   7.530   6.383  0.00  0.00    -0.291 NA
ATOM     10  C   UNL     1      10.427   6.717   6.439  0.00  0.00    +0.146 C 
ATOM     13  C   UNL     1       8.863   7.875   7.765  0.00  0.00    +0.085 C 
ATOM     14  C   UNL     1      10.380   6.032   7.817  0.00  0.00    +0.030 C 
ATOM     15  C   UNL     1       9.122   6.567   8.485  0.00  0.00    +0.017 C 
BRANCH   2   9
ATOM      9  C   UNL     1       9.324   8.711   5.538  0.00  0.00    +0.088 C 
BRANCH   9   8
ATOM      8  C   UNL     1       8.281   8.699   4.423  0.00  0.00    +0.003 C 
ATOM     11  C   UNL     1       8.955   8.823   3.050  0.00  0.00    +0.005 C 
ATOM     12  C   UNL     1       7.253   9.819   4.629  0.00  0.00    +0.005 C 
ATOM     16  C   UNL     1       7.929   8.867   1.919  0.00  0.00    +0.000 C 
ATOM     17  C   UNL     1       6.230   9.861   3.496  0.00  0.00    +0.000 C 
ATOM     18  C   UNL     1       6.904   9.976   2.133  0.00  0.00    +0.000 C 
ENDBRANCH   9   8
ENDBRANCH   2   9
ENDBRANCH  19  10
TORSDOF 5
ENDMDL
