MODEL 1
REMARK VINA RESULT:      -7.0      0.000      0.000
REMARK  Name = 45783349
REMARK  11 active torsions:
REMARK  status: ('A' for Active; 'I' for Inactive)
REMARK    1  A    between atoms: O_3  and  C_22
REMARK    2  A    between atoms: O_4  and  C_25
REMARK    3  A    between atoms: O_4  and  C_27
REMARK    4  A    between atoms: O_5  and  C_28
REMARK    5  A    between atoms: O_5  and  C_29
REMARK    6  A    between atoms: N_6  and  C_14
REMARK    7  A    between atoms: C_10  and  C_15
REMARK    8  A    between atoms: C_14  and  C_16
REMARK    9  A    between atoms: C_18  and  C_21
REMARK   10  A    between atoms: C_19  and  C_22
REMARK   11  A    between atoms: C_27  and  C_28
REMARK                            x       y       z     vdW  Elec       q    Type
REMARK                         _______ _______ _______ _____ _____    ______ ____
ROOT
ATOM      1  O   UNL     1      16.200   5.888  18.278  0.00  0.00    -0.336 OA
ATOM      7  N   UNL     1      16.748   7.109  20.074  0.00  0.00    -0.190 NA
ATOM      8  N   UNL     1      17.455   5.427  18.694  0.00  0.00    -0.056 NA
ATOM     15  C   UNL     1      15.856   6.878  19.144  0.00  0.00    +0.245 A 
ATOM     18  C   UNL     1      17.710   6.195  19.757  0.00  0.00    +0.202 A 
ENDROOT
BRANCH  18  21
ATOM      9  N   UNL     1      21.271   5.847  22.013  0.00  0.00    -0.221 NA
ATOM     21  C   UNL     1      18.918   6.076  20.522  0.00  0.00    +0.029 A 
ATOM     23  C   UNL     1      19.835   5.074  20.229  0.00  0.00    +0.079 A 
ATOM     24  C   UNL     1      19.176   6.965  21.561  0.00  0.00    +0.031 A 
ATOM     25  C   UNL     1      20.986   5.002  20.997  0.00  0.00    +0.215 A 
ATOM     26  C   UNL     1      20.356   6.809  22.269  0.00  0.00    +0.115 A 
BRANCH  25   4
ATOM      4  O   UNL     1      21.905   4.023  20.727  0.00  0.00    -0.474 OA
BRANCH   4  27
ATOM     27  C   UNL     1      23.111   4.051  21.482  0.00  0.00    +0.258 C 
BRANCH  27  28
ATOM     28  C   UNL     1      23.349   2.681  22.087  0.00  0.00    +0.200 C 
BRANCH  28   5
ATOM      5  O   UNL     1      23.869   1.815  21.086  0.00  0.00    -0.380 OA
ATOM     29  C   UNL     1      24.652   0.773  21.653  0.00  0.00    +0.194 C 
ENDBRANCH  28   5
ENDBRANCH  27  28
ENDBRANCH   4  27
ENDBRANCH  25   4
ENDBRANCH  18  21
BRANCH  15  10
ATOM      6  N   UNL     1      14.442   8.890  19.519  0.00  0.00    -0.284 NA
ATOM     10  C   UNL     1      14.520   7.549  18.906  0.00  0.00    +0.146 C 
ATOM     11  C   UNL     1      14.231   7.783  17.412  0.00  0.00    +0.030 C 
ATOM     12  C   UNL     1      13.941   9.273  17.292  0.00  0.00    +0.017 C 
ATOM     13  C   UNL     1      13.518   9.668  18.693  0.00  0.00    +0.085 C 
BRANCH   6  14
ATOM     14  C   UNL     1      14.034   8.860  20.917  0.00  0.00    +0.159 C 
BRANCH  14  16
ATOM      2  O   UNL     1      12.628   6.933  21.397  0.00  0.00    -0.461 OA
ATOM     16  C   UNL     1      12.666   8.256  21.091  0.00  0.00    +0.119 A 
ATOM     17  C   UNL     1      11.393   8.769  21.003  0.00  0.00    +0.046 A 
ATOM     19  C   UNL     1      11.315   6.597  21.506  0.00  0.00    +0.131 A 
ATOM     20  C   UNL     1      10.516   7.691  21.273  0.00  0.00    +0.047 A 
BRANCH  19  22
ATOM     22  C   UNL     1      11.028   5.193  21.838  0.00  0.00    +0.230 C 
BRANCH  22   3
ATOM      3  O   UNL     1      10.704   4.463  20.653  0.00  0.00    -0.387 OA
ATOM     30  H   UNL     1      11.004   5.001  19.899  0.00  0.00    +0.210 HD
ENDBRANCH  22   3
ENDBRANCH  19  22
ENDBRANCH  14  16
ENDBRANCH   6  14
ENDBRANCH  15  10
TORSDOF 10
ENDMDL
MODEL 2
REMARK VINA RESULT:      -6.8      2.068      4.132
REMARK  Name = 45783349
REMARK  11 active torsions:
REMARK  status: ('A' for Active; 'I' for Inactive)
REMARK    1  A    between atoms: O_3  and  C_22
REMARK    2  A    between atoms: O_4  and  C_25
REMARK    3  A    between atoms: O_4  and  C_27
REMARK    4  A    between atoms: O_5  and  C_28
REMARK    5  A    between atoms: O_5  and  C_29
REMARK    6  A    between atoms: N_6  and  C_14
REMARK    7  A    between atoms: C_10  and  C_15
REMARK    8  A    between atoms: C_14  and  C_16
REMARK    9  A    between atoms: C_18  and  C_21
REMARK   10  A    between atoms: C_19  and  C_22
REMARK   11  A    between atoms: C_27  and  C_28
REMARK                            x       y       z     vdW  Elec       q    Type
REMARK                         _______ _______ _______ _____ _____    ______ ____
ROOT
ATOM      1  O   UNL     1      14.626   6.946  19.623  0.00  0.00    -0.336 OA
ATOM      7  N   UNL     1      15.756   8.011  21.236  0.00  0.00    -0.190 NA
ATOM      8  N   UNL     1      15.957   6.525  19.508  0.00  0.00    -0.056 NA
ATOM     15  C   UNL     1      14.595   7.819  20.663  0.00  0.00    +0.245 A 
ATOM     18  C   UNL     1      16.561   7.196  20.494  0.00  0.00    +0.202 A 
ENDROOT
BRANCH  18  21
ATOM      9  N   UNL     1      20.702   6.847  21.281  0.00  0.00    -0.221 NA
ATOM     21  C   UNL     1      17.965   7.077  20.761  0.00  0.00    +0.029 A 
ATOM     23  C   UNL     1      18.653   5.931  20.382  0.00  0.00    +0.079 A 
ATOM     24  C   UNL     1      18.644   8.110  21.399  0.00  0.00    +0.031 A 
ATOM     25  C   UNL     1      20.009   5.864  20.663  0.00  0.00    +0.215 A 
ATOM     26  C   UNL     1      20.000   7.947  21.633  0.00  0.00    +0.115 A 
BRANCH  25   4
ATOM      4  O   UNL     1      20.709   4.744  20.300  0.00  0.00    -0.474 OA
BRANCH   4  27
ATOM     27  C   UNL     1      22.057   4.659  20.746  0.00  0.00    +0.258 C 
BRANCH  27  28
ATOM     28  C   UNL     1      22.251   3.353  21.491  0.00  0.00    +0.200 C 
BRANCH  28   5
ATOM      5  O   UNL     1      21.917   3.545  22.860  0.00  0.00    -0.380 OA
ATOM     29  C   UNL     1      22.610   4.654  23.415  0.00  0.00    +0.194 C 
ENDBRANCH  28   5
ENDBRANCH  27  28
ENDBRANCH   4  27
ENDBRANCH  25   4
ENDBRANCH  18  21
BRANCH  15  10
ATOM      6  N   UNL     1      12.429   8.681  19.795  0.00  0.00    -0.284 NA
ATOM     10  C   UNL     1      13.248   8.425  20.996  0.00  0.00    +0.146 C 
ATOM     11  C   UNL     1      12.382   7.501  21.872  0.00  0.00    +0.030 C 
ATOM     12  C   UNL     1      11.073   7.344  21.110  0.00  0.00    +0.017 C 
ATOM     13  C   UNL     1      11.032   8.567  20.216  0.00  0.00    +0.085 C 
BRANCH   6  14
ATOM     14  C   UNL     1      12.710   9.967  19.171  0.00  0.00    +0.159 C 
BRANCH  14  16
ATOM      2  O   UNL     1      14.058  10.387  17.189  0.00  0.00    -0.461 OA
ATOM     16  C   UNL     1      12.920   9.836  17.685  0.00  0.00    +0.119 A 
ATOM     17  C   UNL     1      12.183   9.258  16.678  0.00  0.00    +0.046 A 
ATOM     19  C   UNL     1      14.047  10.159  15.849  0.00  0.00    +0.131 A 
ATOM     20  C   UNL     1      12.915   9.467  15.485  0.00  0.00    +0.047 A 
BRANCH  19  22
ATOM     22  C   UNL     1      15.199  10.672  15.092  0.00  0.00    +0.230 C 
BRANCH  22   3
ATOM      3  O   UNL     1      15.502   9.797  14.003  0.00  0.00    -0.387 OA
ATOM     30  H   UNL     1      16.471   9.706  13.976  0.00  0.00    +0.210 HD
ENDBRANCH  22   3
ENDBRANCH  19  22
ENDBRANCH  14  16
ENDBRANCH   6  14
ENDBRANCH  15  10
TORSDOF 10
ENDMDL
MODEL 3
REMARK VINA RESULT:      -6.7      1.763      2.441
REMARK  Name = 45783349
REMARK  11 active torsions:
REMARK  status: ('A' for Active; 'I' for Inactive)
REMARK    1  A    between atoms: O_3  and  C_22
REMARK    2  A    between atoms: O_4  and  C_25
REMARK    3  A    between atoms: O_4  and  C_27
REMARK    4  A    between atoms: O_5  and  C_28
REMARK    5  A    between atoms: O_5  and  C_29
REMARK    6  A    between atoms: N_6  and  C_14
REMARK    7  A    between atoms: C_10  and  C_15
REMARK    8  A    between atoms: C_14  and  C_16
REMARK    9  A    between atoms: C_18  and  C_21
REMARK   10  A    between atoms: C_19  and  C_22
REMARK   11  A    between atoms: C_27  and  C_28
REMARK                            x       y       z     vdW  Elec       q    Type
REMARK                         _______ _______ _______ _____ _____    ______ ____
ROOT
ATOM      1  O   UNL     1      16.310   5.804  18.227  0.00  0.00    -0.336 OA
ATOM      7  N   UNL     1      16.522   7.036  20.085  0.00  0.00    -0.190 NA
ATOM      8  N   UNL     1      17.599   5.554  18.714  0.00  0.00    -0.056 NA
ATOM     15  C   UNL     1      15.745   6.686  19.092  0.00  0.00    +0.245 A 
ATOM     18  C   UNL     1      17.649   6.316  19.811  0.00  0.00    +0.202 A 
ENDROOT
BRANCH  18  21
ATOM      9  N   UNL     1      21.069   6.514  22.292  0.00  0.00    -0.221 NA
ATOM     21  C   UNL     1      18.809   6.383  20.652  0.00  0.00    +0.029 A 
ATOM     23  C   UNL     1      19.876   5.519  20.439  0.00  0.00    +0.079 A 
ATOM     24  C   UNL     1      18.870   7.314  21.684  0.00  0.00    +0.031 A 
ATOM     25  C   UNL     1      20.973   5.623  21.280  0.00  0.00    +0.215 A 
ATOM     26  C   UNL     1      20.012   7.339  22.468  0.00  0.00    +0.115 A 
BRANCH  25   4
ATOM      4  O   UNL     1      22.039   4.782  21.090  0.00  0.00    -0.474 OA
BRANCH   4  27
ATOM     27  C   UNL     1      21.919   3.469  21.622  0.00  0.00    +0.258 C 
BRANCH  27  28
ATOM     28  C   UNL     1      22.937   3.290  22.733  0.00  0.00    +0.200 C 
BRANCH  28   5
ATOM      5  O   UNL     1      22.298   3.502  23.986  0.00  0.00    -0.380 OA
ATOM     29  C   UNL     1      22.900   4.572  24.703  0.00  0.00    +0.194 C 
ENDBRANCH  28   5
ENDBRANCH  27  28
ENDBRANCH   4  27
ENDBRANCH  25   4
ENDBRANCH  18  21
BRANCH  15  10
ATOM      6  N   UNL     1      13.762   7.997  19.827  0.00  0.00    -0.284 NA
ATOM     10  C   UNL     1      14.328   7.121  18.782  0.00  0.00    +0.146 C 
ATOM     11  C   UNL     1      14.230   7.946  17.486  0.00  0.00    +0.030 C 
ATOM     12  C   UNL     1      13.541   9.242  17.890  0.00  0.00    +0.017 C 
ATOM     13  C   UNL     1      12.798   8.871  19.157  0.00  0.00    +0.085 C 
BRANCH   6  14
ATOM     14  C   UNL     1      13.159   7.260  20.930  0.00  0.00    +0.159 C 
BRANCH  14  16
ATOM      2  O   UNL     1      12.439   9.186  22.232  0.00  0.00    -0.461 OA
ATOM     16  C   UNL     1      12.061   8.045  21.597  0.00  0.00    +0.119 A 
ATOM     17  C   UNL     1      10.704   7.855  21.712  0.00  0.00    +0.046 A 
ATOM     19  C   UNL     1      11.310   9.730  22.758  0.00  0.00    +0.131 A 
ATOM     20  C   UNL     1      10.216   8.950  22.465  0.00  0.00    +0.047 A 
BRANCH  19  22
ATOM     22  C   UNL     1      11.479  10.989  23.499  0.00  0.00    +0.230 C 
BRANCH  22   3
ATOM      3  O   UNL     1      10.204  11.516  23.871  0.00  0.00    -0.387 OA
ATOM     30  H   UNL     1       9.788  11.851  23.057  0.00  0.00    +0.210 HD
ENDBRANCH  22   3
ENDBRANCH  19  22
ENDBRANCH  14  16
ENDBRANCH   6  14
ENDBRANCH  15  10
TORSDOF 10
ENDMDL
MODEL 4
REMARK VINA RESULT:      -6.6     29.865     33.761
REMARK  Name = 45783349
REMARK  11 active torsions:
REMARK  status: ('A' for Active; 'I' for Inactive)
REMARK    1  A    between atoms: O_3  and  C_22
REMARK    2  A    between atoms: O_4  and  C_25
REMARK    3  A    between atoms: O_4  and  C_27
REMARK    4  A    between atoms: O_5  and  C_28
REMARK    5  A    between atoms: O_5  and  C_29
REMARK    6  A    between atoms: N_6  and  C_14
REMARK    7  A    between atoms: C_10  and  C_15
REMARK    8  A    between atoms: C_14  and  C_16
REMARK    9  A    between atoms: C_18  and  C_21
REMARK   10  A    between atoms: C_19  and  C_22
REMARK   11  A    between atoms: C_27  and  C_28
REMARK                            x       y       z     vdW  Elec       q    Type
REMARK                         _______ _______ _______ _____ _____    ______ ____
ROOT
ATOM      1  O   UNL     1     -16.815   5.206  28.893  0.00  0.00    -0.336 OA
ATOM      7  N   UNL     1     -16.329   3.120  28.236  0.00  0.00    -0.190 NA
ATOM      8  N   UNL     1     -16.902   5.208  27.495  0.00  0.00    -0.056 NA
ATOM     15  C   UNL     1     -16.473   3.939  29.247  0.00  0.00    +0.245 A 
ATOM     18  C   UNL     1     -16.602   3.944  27.182  0.00  0.00    +0.202 A 
ENDROOT
BRANCH  18  21
ATOM      9  N   UNL     1     -16.490   2.552  23.190  0.00  0.00    -0.221 NA
ATOM     21  C   UNL     1     -16.564   3.472  25.828  0.00  0.00    +0.029 A 
ATOM     23  C   UNL     1     -15.990   4.253  24.833  0.00  0.00    +0.079 A 
ATOM     24  C   UNL     1     -17.101   2.230  25.506  0.00  0.00    +0.031 A 
ATOM     25  C   UNL     1     -15.978   3.753  23.540  0.00  0.00    +0.215 A 
ATOM     26  C   UNL     1     -17.039   1.819  24.185  0.00  0.00    +0.115 A 
BRANCH  25   4
ATOM      4  O   UNL     1     -15.418   4.505  22.541  0.00  0.00    -0.474 OA
BRANCH   4  27
ATOM     27  C   UNL     1     -14.080   4.944  22.744  0.00  0.00    +0.258 C 
BRANCH  27  28
ATOM     28  C   UNL     1     -13.710   5.927  21.651  0.00  0.00    +0.200 C 
BRANCH  28   5
ATOM      5  O   UNL     1     -12.299   5.914  21.473  0.00  0.00    -0.380 OA
ATOM     29  C   UNL     1     -11.834   7.132  20.907  0.00  0.00    +0.194 C 
ENDBRANCH  28   5
ENDBRANCH  27  28
ENDBRANCH   4  27
ENDBRANCH  25   4
ENDBRANCH  18  21
BRANCH  15  10
ATOM      6  N   UNL     1     -15.126   4.334  31.301  0.00  0.00    -0.284 NA
ATOM     10  C   UNL     1     -16.315   3.672  30.729  0.00  0.00    +0.146 C 
ATOM     11  C   UNL     1     -17.497   4.207  31.558  0.00  0.00    +0.030 C 
ATOM     12  C   UNL     1     -16.869   5.112  32.608  0.00  0.00    +0.017 C 
ATOM     13  C   UNL     1     -15.442   4.612  32.703  0.00  0.00    +0.085 C 
BRANCH   6  14
ATOM     14  C   UNL     1     -13.907   3.548  31.160  0.00  0.00    +0.159 C 
BRANCH  14  16
ATOM      2  O   UNL     1     -13.647   1.374  30.099  0.00  0.00    -0.461 OA
ATOM     16  C   UNL     1     -14.192   2.070  31.131  0.00  0.00    +0.119 A 
ATOM     17  C   UNL     1     -14.912   1.234  31.952  0.00  0.00    +0.046 A 
ATOM     19  C   UNL     1     -14.025   0.078  30.263  0.00  0.00    +0.131 A 
ATOM     20  C   UNL     1     -14.803  -0.060  31.388  0.00  0.00    +0.047 A 
BRANCH  19  22
ATOM     22  C   UNL     1     -13.543  -0.873  29.250  0.00  0.00    +0.230 C 
BRANCH  22   3
ATOM      3  O   UNL     1     -12.322  -1.477  29.683  0.00  0.00    -0.387 OA
ATOM     30  H   UNL     1     -11.907  -0.857  30.309  0.00  0.00    +0.210 HD
ENDBRANCH  22   3
ENDBRANCH  19  22
ENDBRANCH  14  16
ENDBRANCH   6  14
ENDBRANCH  15  10
TORSDOF 10
ENDMDL
MODEL 5
REMARK VINA RESULT:      -6.5      2.153      3.015
REMARK  Name = 45783349
REMARK  11 active torsions:
REMARK  status: ('A' for Active; 'I' for Inactive)
REMARK    1  A    between atoms: O_3  and  C_22
REMARK    2  A    between atoms: O_4  and  C_25
REMARK    3  A    between atoms: O_4  and  C_27
REMARK    4  A    between atoms: O_5  and  C_28
REMARK    5  A    between atoms: O_5  and  C_29
REMARK    6  A    between atoms: N_6  and  C_14
REMARK    7  A    between atoms: C_10  and  C_15
REMARK    8  A    between atoms: C_14  and  C_16
REMARK    9  A    between atoms: C_18  and  C_21
REMARK   10  A    between atoms: C_19  and  C_22
REMARK   11  A    between atoms: C_27  and  C_28
REMARK                            x       y       z     vdW  Elec       q    Type
REMARK                         _______ _______ _______ _____ _____    ______ ____
ROOT
ATOM      1  O   UNL     1      14.366   6.513  20.466  0.00  0.00    -0.336 OA
ATOM      7  N   UNL     1      15.866   7.935  19.602  0.00  0.00    -0.190 NA
ATOM      8  N   UNL     1      15.502   6.424  21.280  0.00  0.00    -0.056 NA
ATOM     15  C   UNL     1      14.665   7.424  19.503  0.00  0.00    +0.245 A 
ATOM     18  C   UNL     1      16.341   7.291  20.707  0.00  0.00    +0.202 A 
ENDROOT
BRANCH  18  21
ATOM      9  N   UNL     1      20.234   8.013  22.194  0.00  0.00    -0.221 NA
ATOM     21  C   UNL     1      17.661   7.535  21.212  0.00  0.00    +0.029 A 
ATOM     23  C   UNL     1      18.591   6.503  21.265  0.00  0.00    +0.079 A 
ATOM     24  C   UNL     1      18.017   8.807  21.649  0.00  0.00    +0.031 A 
ATOM     25  C   UNL     1      19.853   6.791  21.761  0.00  0.00    +0.215 A 
ATOM     26  C   UNL     1      19.304   8.992  22.126  0.00  0.00    +0.115 A 
BRANCH  25   4
ATOM      4  O   UNL     1      20.787   5.790  21.823  0.00  0.00    -0.474 OA
BRANCH   4  27
ATOM     27  C   UNL     1      20.992   5.031  20.637  0.00  0.00    +0.258 C 
BRANCH  27  28
ATOM     28  C   UNL     1      21.539   3.667  21.011  0.00  0.00    +0.200 C 
BRANCH  28   5
ATOM      5  O   UNL     1      22.883   3.811  21.454  0.00  0.00    -0.380 OA
ATOM     29  C   UNL     1      23.710   4.362  20.438  0.00  0.00    +0.194 C 
ENDBRANCH  28   5
ENDBRANCH  27  28
ENDBRANCH   4  27
ENDBRANCH  25   4
ENDBRANCH  18  21
BRANCH  15  10
ATOM      6  N   UNL     1      12.957   9.029  18.668  0.00  0.00    -0.284 NA
ATOM     10  C   UNL     1      13.583   7.705  18.481  0.00  0.00    +0.146 C 
ATOM     11  C   UNL     1      14.119   7.726  17.038  0.00  0.00    +0.030 C 
ATOM     12  C   UNL     1      13.694   9.075  16.475  0.00  0.00    +0.017 C 
ATOM     13  C   UNL     1      12.516   9.469  17.344  0.00  0.00    +0.085 C 
BRANCH   6  14
ATOM     14  C   UNL     1      11.866   9.019  19.633  0.00  0.00    +0.159 C 
BRANCH  14  16
ATOM      2  O   UNL     1      11.216   9.991  21.767  0.00  0.00    -0.461 OA
ATOM     16  C   UNL     1      12.235   9.732  20.906  0.00  0.00    +0.119 A 
ATOM     17  C   UNL     1      13.425  10.201  21.411  0.00  0.00    +0.046 A 
ATOM     19  C   UNL     1      11.763  10.632  22.834  0.00  0.00    +0.131 A 
ATOM     20  C   UNL     1      13.119  10.785  22.663  0.00  0.00    +0.047 A 
BRANCH  19  22
ATOM     22  C   UNL     1      10.834  11.014  23.909  0.00  0.00    +0.230 C 
BRANCH  22   3
ATOM      3  O   UNL     1      11.374  10.644  25.179  0.00  0.00    -0.387 OA
ATOM     30  H   UNL     1      12.140  11.223  25.340  0.00  0.00    +0.210 HD
ENDBRANCH  22   3
ENDBRANCH  19  22
ENDBRANCH  14  16
ENDBRANCH   6  14
ENDBRANCH  15  10
TORSDOF 10
ENDMDL
MODEL 6
REMARK VINA RESULT:      -6.5     28.556     32.825
REMARK  Name = 45783349
REMARK  11 active torsions:
REMARK  status: ('A' for Active; 'I' for Inactive)
REMARK    1  A    between atoms: O_3  and  C_22
REMARK    2  A    between atoms: O_4  and  C_25
REMARK    3  A    between atoms: O_4  and  C_27
REMARK    4  A    between atoms: O_5  and  C_28
REMARK    5  A    between atoms: O_5  and  C_29
REMARK    6  A    between atoms: N_6  and  C_14
REMARK    7  A    between atoms: C_10  and  C_15
REMARK    8  A    between atoms: C_14  and  C_16
REMARK    9  A    between atoms: C_18  and  C_21
REMARK   10  A    between atoms: C_19  and  C_22
REMARK   11  A    between atoms: C_27  and  C_28
REMARK                            x       y       z     vdW  Elec       q    Type
REMARK                         _______ _______ _______ _____ _____    ______ ____
ROOT
ATOM      1  O   UNL     1     -16.569   2.071  23.999  0.00  0.00    -0.336 OA
ATOM      7  N   UNL     1     -15.590   3.816  25.005  0.00  0.00    -0.190 NA
ATOM      8  N   UNL     1     -16.193   2.949  22.975  0.00  0.00    -0.056 NA
ATOM     15  C   UNL     1     -16.178   2.657  25.160  0.00  0.00    +0.245 A 
ATOM     18  C   UNL     1     -15.622   3.954  23.647  0.00  0.00    +0.202 A 
ENDROOT
BRANCH  18  21
ATOM      9  N   UNL     1     -14.018   7.359  21.719  0.00  0.00    -0.221 NA
ATOM     21  C   UNL     1     -15.078   5.108  22.993  0.00  0.00    +0.029 A 
ATOM     23  C   UNL     1     -13.860   5.025  22.328  0.00  0.00    +0.079 A 
ATOM     24  C   UNL     1     -15.767   6.316  23.022  0.00  0.00    +0.031 A 
ATOM     25  C   UNL     1     -13.377   6.169  21.713  0.00  0.00    +0.215 A 
ATOM     26  C   UNL     1     -15.199   7.402  22.375  0.00  0.00    +0.115 A 
BRANCH  25   4
ATOM      4  O   UNL     1     -12.179   6.112  21.050  0.00  0.00    -0.474 OA
BRANCH   4  27
ATOM     27  C   UNL     1     -11.680   7.336  20.524  0.00  0.00    +0.258 C 
BRANCH  27  28
ATOM     28  C   UNL     1     -11.479   7.186  19.028  0.00  0.00    +0.200 C 
BRANCH  28   5
ATOM      5  O   UNL     1     -10.836   8.352  18.528  0.00  0.00    -0.380 OA
ATOM     29  C   UNL     1     -10.553   8.236  17.140  0.00  0.00    +0.194 C 
ENDBRANCH  28   5
ENDBRANCH  27  28
ENDBRANCH   4  27
ENDBRANCH  25   4
ENDBRANCH  18  21
BRANCH  15  10
ATOM      6  N   UNL     1     -17.052   2.752  27.488  0.00  0.00    -0.284 NA
ATOM     10  C   UNL     1     -16.474   1.894  26.435  0.00  0.00    +0.146 C 
ATOM     11  C   UNL     1     -17.511   0.775  26.228  0.00  0.00    +0.030 C 
ATOM     12  C   UNL     1     -18.604   1.053  27.251  0.00  0.00    +0.017 C 
ATOM     13  C   UNL     1     -17.903   1.887  28.304  0.00  0.00    +0.085 C 
BRANCH   6  14
ATOM     14  C   UNL     1     -16.045   3.440  28.285  0.00  0.00    +0.159 C 
BRANCH  14  16
ATOM      2  O   UNL     1     -14.765   1.564  29.160  0.00  0.00    -0.461 OA
ATOM     16  C   UNL     1     -15.586   2.606  29.452  0.00  0.00    +0.119 A 
ATOM     17  C   UNL     1     -15.826   2.669  30.805  0.00  0.00    +0.046 A 
ATOM     19  C   UNL     1     -14.477   0.954  30.340  0.00  0.00    +0.131 A 
ATOM     20  C   UNL     1     -15.105   1.596  31.382  0.00  0.00    +0.047 A 
BRANCH  19  22
ATOM     22  C   UNL     1     -13.589  -0.216  30.267  0.00  0.00    +0.230 C 
BRANCH  22   3
ATOM      3  O   UNL     1     -14.221  -1.268  29.534  0.00  0.00    -0.387 OA
ATOM     30  H   UNL     1     -15.159  -1.027  29.445  0.00  0.00    +0.210 HD
ENDBRANCH  22   3
ENDBRANCH  19  22
ENDBRANCH  14  16
ENDBRANCH   6  14
ENDBRANCH  15  10
TORSDOF 10
ENDMDL
MODEL 7
REMARK VINA RESULT:      -6.4      4.182      9.777
REMARK  Name = 45783349
REMARK  11 active torsions:
REMARK  status: ('A' for Active; 'I' for Inactive)
REMARK    1  A    between atoms: O_3  and  C_22
REMARK    2  A    between atoms: O_4  and  C_25
REMARK    3  A    between atoms: O_4  and  C_27
REMARK    4  A    between atoms: O_5  and  C_28
REMARK    5  A    between atoms: O_5  and  C_29
REMARK    6  A    between atoms: N_6  and  C_14
REMARK    7  A    between atoms: C_10  and  C_15
REMARK    8  A    between atoms: C_14  and  C_16
REMARK    9  A    between atoms: C_18  and  C_21
REMARK   10  A    between atoms: C_19  and  C_22
REMARK   11  A    between atoms: C_27  and  C_28
REMARK                            x       y       z     vdW  Elec       q    Type
REMARK                         _______ _______ _______ _____ _____    ______ ____
ROOT
ATOM      1  O   UNL     1      12.880   7.463  17.290  0.00  0.00    -0.336 OA
ATOM      7  N   UNL     1      13.056   9.575  18.012  0.00  0.00    -0.190 NA
ATOM      8  N   UNL     1      13.444   8.189  16.234  0.00  0.00    -0.056 NA
ATOM     15  C   UNL     1      12.682   8.354  18.297  0.00  0.00    +0.245 A 
ATOM     18  C   UNL     1      13.517   9.425  16.736  0.00  0.00    +0.202 A 
ENDROOT
BRANCH  18  21
ATOM      9  N   UNL     1      15.064  12.690  14.537  0.00  0.00    -0.221 NA
ATOM     21  C   UNL     1      14.042  10.532  15.990  0.00  0.00    +0.029 A 
ATOM     23  C   UNL     1      13.460  10.898  14.782  0.00  0.00    +0.079 A 
ATOM     24  C   UNL     1      15.134  11.244  16.473  0.00  0.00    +0.031 A 
ATOM     25  C   UNL     1      14.004  11.974  14.099  0.00  0.00    +0.215 A 
ATOM     26  C   UNL     1      15.603  12.305  15.716  0.00  0.00    +0.115 A 
BRANCH  25   4
ATOM      4  O   UNL     1      13.448  12.355  12.906  0.00  0.00    -0.474 OA
BRANCH   4  27
ATOM     27  C   UNL     1      12.029  12.307  12.817  0.00  0.00    +0.258 C 
BRANCH  27  28
ATOM     28  C   UNL     1      11.475  13.708  12.990  0.00  0.00    +0.200 C 
BRANCH  28   5
ATOM      5  O   UNL     1      10.069  13.630  13.193  0.00  0.00    -0.380 OA
ATOM     29  C   UNL     1       9.385  14.673  12.513  0.00  0.00    +0.194 C 
ENDBRANCH  28   5
ENDBRANCH  27  28
ENDBRANCH   4  27
ENDBRANCH  25   4
ENDBRANCH  18  21
BRANCH  15  10
ATOM      6  N   UNL     1      13.005   7.862  20.714  0.00  0.00    -0.284 NA
ATOM     10  C   UNL     1      12.073   7.808  19.571  0.00  0.00    +0.146 C 
ATOM     11  C   UNL     1      10.842   8.610  20.031  0.00  0.00    +0.030 C 
ATOM     12  C   UNL     1      11.149   9.021  21.464  0.00  0.00    +0.017 C 
ATOM     13  C   UNL     1      12.180   8.006  21.914  0.00  0.00    +0.085 C 
BRANCH   6  14
ATOM     14  C   UNL     1      13.888   6.706  20.792  0.00  0.00    +0.159 C 
BRANCH  14  16
ATOM      2  O   UNL     1      16.209   6.165  20.297  0.00  0.00    -0.461 OA
ATOM     16  C   UNL     1      15.340   7.104  20.755  0.00  0.00    +0.119 A 
ATOM     17  C   UNL     1      16.008   8.255  21.098  0.00  0.00    +0.046 A 
ATOM     19  C   UNL     1      17.447   6.724  20.348  0.00  0.00    +0.131 A 
ATOM     20  C   UNL     1      17.377   8.009  20.834  0.00  0.00    +0.047 A 
BRANCH  19  22
ATOM     22  C   UNL     1      18.561   5.880  19.892  0.00  0.00    +0.230 C 
BRANCH  22   3
ATOM      3  O   UNL     1      18.193   5.180  18.702  0.00  0.00    -0.387 OA
ATOM     30  H   UNL     1      18.568   5.677  17.954  0.00  0.00    +0.210 HD
ENDBRANCH  22   3
ENDBRANCH  19  22
ENDBRANCH  14  16
ENDBRANCH   6  14
ENDBRANCH  15  10
TORSDOF 10
ENDMDL
MODEL 8
REMARK VINA RESULT:      -6.4     29.307     33.308
REMARK  Name = 45783349
REMARK  11 active torsions:
REMARK  status: ('A' for Active; 'I' for Inactive)
REMARK    1  A    between atoms: O_3  and  C_22
REMARK    2  A    between atoms: O_4  and  C_25
REMARK    3  A    between atoms: O_4  and  C_27
REMARK    4  A    between atoms: O_5  and  C_28
REMARK    5  A    between atoms: O_5  and  C_29
REMARK    6  A    between atoms: N_6  and  C_14
REMARK    7  A    between atoms: C_10  and  C_15
REMARK    8  A    between atoms: C_14  and  C_16
REMARK    9  A    between atoms: C_18  and  C_21
REMARK   10  A    between atoms: C_19  and  C_22
REMARK   11  A    between atoms: C_27  and  C_28
REMARK                            x       y       z     vdW  Elec       q    Type
REMARK                         _______ _______ _______ _____ _____    ______ ____
ROOT
ATOM      1  O   UNL     1     -16.367   1.686  26.628  0.00  0.00    -0.336 OA
ATOM      7  N   UNL     1     -16.470   3.920  26.504  0.00  0.00    -0.190 NA
ATOM      8  N   UNL     1     -16.120   2.013  25.289  0.00  0.00    -0.056 NA
ATOM     15  C   UNL     1     -16.563   2.866  27.274  0.00  0.00    +0.245 A 
ATOM     18  C   UNL     1     -16.198   3.347  25.295  0.00  0.00    +0.202 A 
ENDROOT
BRANCH  18  21
ATOM      9  N   UNL     1     -15.647   5.674  21.806  0.00  0.00    -0.221 NA
ATOM     21  C   UNL     1     -16.010   4.136  24.112  0.00  0.00    +0.029 A 
ATOM     23  C   UNL     1     -14.729   4.396  23.641  0.00  0.00    +0.079 A 
ATOM     24  C   UNL     1     -17.111   4.644  23.431  0.00  0.00    +0.031 A 
ATOM     25  C   UNL     1     -14.601   5.163  22.495  0.00  0.00    +0.215 A 
ATOM     26  C   UNL     1     -16.878   5.400  22.293  0.00  0.00    +0.115 A 
BRANCH  25   4
ATOM      4  O   UNL     1     -13.348   5.433  22.011  0.00  0.00    -0.474 OA
BRANCH   4  27
ATOM     27  C   UNL     1     -13.200   6.623  21.246  0.00  0.00    +0.258 C 
BRANCH  27  28
ATOM     28  C   UNL     1     -11.730   6.831  20.934  0.00  0.00    +0.200 C 
BRANCH  28   5
ATOM      5  O   UNL     1     -11.578   7.037  19.534  0.00  0.00    -0.380 OA
ATOM     29  C   UNL     1     -11.334   8.403  19.232  0.00  0.00    +0.194 C 
ENDBRANCH  28   5
ENDBRANCH  27  28
ENDBRANCH   4  27
ENDBRANCH  25   4
ENDBRANCH  18  21
BRANCH  15  10
ATOM      6  N   UNL     1     -16.162   3.836  29.530  0.00  0.00    -0.284 NA
ATOM     10  C   UNL     1     -16.851   2.783  28.758  0.00  0.00    +0.146 C 
ATOM     11  C   UNL     1     -18.344   2.973  29.084  0.00  0.00    +0.030 C 
ATOM     12  C   UNL     1     -18.389   4.113  30.092  0.00  0.00    +0.017 C 
ATOM     13  C   UNL     1     -17.000   4.108  30.697  0.00  0.00    +0.085 C 
BRANCH   6  14
ATOM     14  C   UNL     1     -14.800   3.476  29.904  0.00  0.00    +0.159 C 
BRANCH  14  16
ATOM      2  O   UNL     1     -14.071   1.203  29.428  0.00  0.00    -0.461 OA
ATOM     16  C   UNL     1     -14.693   2.030  30.309  0.00  0.00    +0.119 A 
ATOM     17  C   UNL     1     -15.104   1.331  31.420  0.00  0.00    +0.046 A 
ATOM     19  C   UNL     1     -14.085  -0.038  29.983  0.00  0.00    +0.131 A 
ATOM     20  C   UNL     1     -14.709  -0.012  31.208  0.00  0.00    +0.047 A 
BRANCH  19  22
ATOM     22  C   UNL     1     -13.456  -1.109  29.196  0.00  0.00    +0.230 C 
BRANCH  22   3
ATOM      3  O   UNL     1     -12.206  -1.481  29.782  0.00  0.00    -0.387 OA
ATOM     30  H   UNL     1     -12.243  -1.214  30.718  0.00  0.00    +0.210 HD
ENDBRANCH  22   3
ENDBRANCH  19  22
ENDBRANCH  14  16
ENDBRANCH   6  14
ENDBRANCH  15  10
TORSDOF 10
ENDMDL
MODEL 9
REMARK VINA RESULT:      -6.2      2.340      3.136
REMARK  Name = 45783349
REMARK  11 active torsions:
REMARK  status: ('A' for Active; 'I' for Inactive)
REMARK    1  A    between atoms: O_3  and  C_22
REMARK    2  A    between atoms: O_4  and  C_25
REMARK    3  A    between atoms: O_4  and  C_27
REMARK    4  A    between atoms: O_5  and  C_28
REMARK    5  A    between atoms: O_5  and  C_29
REMARK    6  A    between atoms: N_6  and  C_14
REMARK    7  A    between atoms: C_10  and  C_15
REMARK    8  A    between atoms: C_14  and  C_16
REMARK    9  A    between atoms: C_18  and  C_21
REMARK   10  A    between atoms: C_19  and  C_22
REMARK   11  A    between atoms: C_27  and  C_28
REMARK                            x       y       z     vdW  Elec       q    Type
REMARK                         _______ _______ _______ _____ _____    ______ ____
ROOT
ATOM      1  O   UNL     1      15.367   8.616  19.738  0.00  0.00    -0.336 OA
ATOM      7  N   UNL     1      16.240   6.616  19.236  0.00  0.00    -0.190 NA
ATOM      8  N   UNL     1      16.554   8.515  20.473  0.00  0.00    -0.056 NA
ATOM     15  C   UNL     1      15.257   7.457  19.038  0.00  0.00    +0.245 A 
ATOM     18  C   UNL     1      17.011   7.308  20.124  0.00  0.00    +0.202 A 
ENDROOT
BRANCH  18  21
ATOM      9  N   UNL     1      20.611   5.706  21.661  0.00  0.00    -0.221 NA
ATOM     21  C   UNL     1      18.232   6.765  20.645  0.00  0.00    +0.029 A 
ATOM     23  C   UNL     1      18.793   7.293  21.802  0.00  0.00    +0.079 A 
ATOM     24  C   UNL     1      18.859   5.707  19.995  0.00  0.00    +0.031 A 
ATOM     25  C   UNL     1      19.974   6.733  22.265  0.00  0.00    +0.215 A 
ATOM     26  C   UNL     1      20.036   5.218  20.539  0.00  0.00    +0.115 A 
BRANCH  25   4
ATOM      4  O   UNL     1      20.547   7.236  23.404  0.00  0.00    -0.474 OA
BRANCH   4  27
ATOM     27  C   UNL     1      21.946   7.036  23.558  0.00  0.00    +0.258 C 
BRANCH  27  28
ATOM     28  C   UNL     1      22.188   6.109  24.734  0.00  0.00    +0.200 C 
BRANCH  28   5
ATOM      5  O   UNL     1      23.480   5.528  24.609  0.00  0.00    -0.380 OA
ATOM     29  C   UNL     1      23.895   5.466  23.251  0.00  0.00    +0.194 C 
ENDBRANCH  28   5
ENDBRANCH  27  28
ENDBRANCH   4  27
ENDBRANCH  25   4
ENDBRANCH  18  21
BRANCH  15  10
ATOM      6  N   UNL     1      12.823   7.894  18.760  0.00  0.00    -0.284 NA
ATOM     10  C   UNL     1      14.038   7.317  18.150  0.00  0.00    +0.146 C 
ATOM     11  C   UNL     1      14.193   8.058  16.809  0.00  0.00    +0.030 C 
ATOM     12  C   UNL     1      12.987   8.984  16.726  0.00  0.00    +0.017 C 
ATOM     13  C   UNL     1      11.977   8.339  17.653  0.00  0.00    +0.085 C 
BRANCH   6  14
ATOM     14  C   UNL     1      12.128   6.967  19.643  0.00  0.00    +0.159 C 
BRANCH  14  16
ATOM      2  O   UNL     1      12.028   8.915  21.099  0.00  0.00    -0.461 OA
ATOM     16  C   UNL     1      11.562   7.663  20.853  0.00  0.00    +0.119 A 
ATOM     17  C   UNL     1      10.640   7.294  21.805  0.00  0.00    +0.046 A 
ATOM     19  C   UNL     1      11.395   9.351  22.220  0.00  0.00    +0.131 A 
ATOM     20  C   UNL     1      10.532   8.391  22.693  0.00  0.00    +0.047 A 
BRANCH  19  22
ATOM     22  C   UNL     1      11.746  10.703  22.680  0.00  0.00    +0.230 C 
BRANCH  22   3
ATOM      3  O   UNL     1      10.575  11.521  22.742  0.00  0.00    -0.387 OA
ATOM     30  H   UNL     1       9.965  11.192  22.058  0.00  0.00    +0.210 HD
ENDBRANCH  22   3
ENDBRANCH  19  22
ENDBRANCH  14  16
ENDBRANCH   6  14
ENDBRANCH  15  10
TORSDOF 10
ENDMDL
MODEL 10
REMARK VINA RESULT:      -6.2     29.123     32.923
REMARK  Name = 45783349
REMARK  11 active torsions:
REMARK  status: ('A' for Active; 'I' for Inactive)
REMARK    1  A    between atoms: O_3  and  C_22
REMARK    2  A    between atoms: O_4  and  C_25
REMARK    3  A    between atoms: O_4  and  C_27
REMARK    4  A    between atoms: O_5  and  C_28
REMARK    5  A    between atoms: O_5  and  C_29
REMARK    6  A    between atoms: N_6  and  C_14
REMARK    7  A    between atoms: C_10  and  C_15
REMARK    8  A    between atoms: C_14  and  C_16
REMARK    9  A    between atoms: C_18  and  C_21
REMARK   10  A    between atoms: C_19  and  C_22
REMARK   11  A    between atoms: C_27  and  C_28
REMARK                            x       y       z     vdW  Elec       q    Type
REMARK                         _______ _______ _______ _____ _____    ______ ____
ROOT
ATOM      1  O   UNL     1     -16.078   2.929  23.651  0.00  0.00    -0.336 OA
ATOM      7  N   UNL     1     -16.382   4.416  25.298  0.00  0.00    -0.190 NA
ATOM      8  N   UNL     1     -16.213   2.183  24.828  0.00  0.00    -0.056 NA
ATOM     15  C   UNL     1     -16.189   4.233  24.016  0.00  0.00    +0.245 A 
ATOM     18  C   UNL     1     -16.389   3.130  25.755  0.00  0.00    +0.202 A 
ENDROOT
BRANCH  18  21
ATOM      9  N   UNL     1     -16.928   2.233  29.853  0.00  0.00    -0.221 NA
ATOM     21  C   UNL     1     -16.572   2.825  27.144  0.00  0.00    +0.029 A 
ATOM     23  C   UNL     1     -16.242   1.567  27.633  0.00  0.00    +0.079 A 
ATOM     24  C   UNL     1     -17.078   3.790  28.010  0.00  0.00    +0.031 A 
ATOM     25  C   UNL     1     -16.438   1.322  28.983  0.00  0.00    +0.215 A 
ATOM     26  C   UNL     1     -17.236   3.447  29.342  0.00  0.00    +0.115 A 
BRANCH  25   4
ATOM      4  O   UNL     1     -16.120   0.089  29.488  0.00  0.00    -0.474 OA
BRANCH   4  27
ATOM     27  C   UNL     1     -15.357   0.066  30.688  0.00  0.00    +0.258 C 
BRANCH  27  28
ATOM     28  C   UNL     1     -13.930   0.473  30.376  0.00  0.00    +0.200 C 
BRANCH  28   5
ATOM      5  O   UNL     1     -13.537   1.509  31.267  0.00  0.00    -0.380 OA
ATOM     29  C   UNL     1     -13.524   2.775  30.620  0.00  0.00    +0.194 C 
ENDBRANCH  28   5
ENDBRANCH  27  28
ENDBRANCH   4  27
ENDBRANCH  25   4
ENDBRANCH  18  21
BRANCH  15  10
ATOM      6  N   UNL     1     -15.164   4.828  21.829  0.00  0.00    -0.284 NA
ATOM     10  C   UNL     1     -16.078   5.257  22.906  0.00  0.00    +0.146 C 
ATOM     11  C   UNL     1     -17.421   5.514  22.199  0.00  0.00    +0.030 C 
ATOM     12  C   UNL     1     -17.148   5.265  20.722  0.00  0.00    +0.017 C 
ATOM     13  C   UNL     1     -15.650   5.455  20.600  0.00  0.00    +0.085 C 
BRANCH   6  14
ATOM     14  C   UNL     1     -13.769   5.154  22.096  0.00  0.00    +0.159 C 
BRANCH  14  16
ATOM      2  O   UNL     1     -12.421   6.514  20.594  0.00  0.00    -0.461 OA
ATOM     16  C   UNL     1     -13.392   6.503  21.544  0.00  0.00    +0.119 A 
ATOM     17  C   UNL     1     -13.831   7.781  21.802  0.00  0.00    +0.046 A 
ATOM     19  C   UNL     1     -12.238   7.813  20.240  0.00  0.00    +0.131 A 
ATOM     20  C   UNL     1     -13.081   8.632  20.955  0.00  0.00    +0.047 A 
BRANCH  19  22
ATOM     22  C   UNL     1     -11.221   8.070  19.209  0.00  0.00    +0.230 C 
BRANCH  22   3
ATOM      3  O   UNL     1     -11.326   7.101  18.163  0.00  0.00    -0.387 OA
ATOM     30  H   UNL     1     -11.205   7.578  17.324  0.00  0.00    +0.210 HD
ENDBRANCH  22   3
ENDBRANCH  19  22
ENDBRANCH  14  16
ENDBRANCH   6  14
ENDBRANCH  15  10
TORSDOF 10
ENDMDL
