MODEL 1
REMARK VINA RESULT:      -7.6      0.000      0.000
REMARK  Name = 40777990
REMARK  9 active torsions:
REMARK  status: ('A' for Active; 'I' for Inactive)
REMARK    1  A    between atoms: O_2  and  C_10
REMARK    2  A    between atoms: O_3  and  C_11
REMARK    3  A    between atoms: N_7  and  C_20
REMARK    4  A    between atoms: N_8  and  C_14
REMARK    5  A    between atoms: C_9  and  C_13
REMARK    6  A    between atoms: C_12  and  C_14
REMARK    7  A    between atoms: C_13  and  C_15
REMARK    8  A    between atoms: C_21  and  C_24
REMARK    9  A    between atoms: C_32  and  C_33
REMARK                            x       y       z     vdW  Elec       q    Type
REMARK                         _______ _______ _______ _____ _____    ______ ____
ROOT
ATOM      1  O   UNL     1      -4.135 -11.717  18.583  0.00  0.00    -0.366 OA
ATOM      9  C   UNL     1      -5.490 -12.125  18.880  0.00  0.00    +0.159 C 
ATOM     10  C   UNL     1      -6.059 -12.701  17.588  0.00  0.00    +0.175 C 
ATOM     11  C   UNL     1      -5.282 -11.939  16.534  0.00  0.00    +0.176 C 
ATOM     12  C   UNL     1      -3.904 -11.860  17.170  0.00  0.00    +0.167 C 
ENDROOT
BRANCH  10   2
ATOM      2  O   UNL     1      -5.729 -14.089  17.539  0.00  0.00    -0.387 OA
ATOM     34  H   UNL     1      -6.464 -14.577  17.950  0.00  0.00    +0.210 HD
ENDBRANCH  10   2
BRANCH  11   3
ATOM      3  O   UNL     1      -5.252 -12.591  15.282  0.00  0.00    -0.387 OA
ATOM     35  H   UNL     1      -5.798 -13.390  15.356  0.00  0.00    +0.210 HD
ENDBRANCH  11   3
BRANCH   9  13
ATOM     13  C   UNL     1      -6.249 -10.899  19.370  0.00  0.00    +0.130 C 
BRANCH  13  15
ATOM      4  O   UNL     1      -8.153 -12.099  20.126  0.00  0.00    -0.276 OA
ATOM      6  N   UNL     1      -8.536 -10.392  18.598  0.00  0.00    -0.298 N 
ATOM      7  N   UNL     1     -10.322  -8.656  17.124  0.00  0.00    -0.327 N 
ATOM     15  C   UNL     1      -7.729 -11.192  19.408  0.00  0.00    +0.218 C 
ATOM     16  C   UNL     1      -8.030  -9.314  17.744  0.00  0.00    +0.126 C 
ATOM     17  C   UNL     1      -9.981 -10.610  18.582  0.00  0.00    +0.126 C 
ATOM     18  C   UNL     1      -8.987  -8.963  16.604  0.00  0.00    +0.124 C 
ATOM     19  C   UNL     1     -10.750  -9.309  18.363  0.00  0.00    +0.124 C 
BRANCH   7  20
ATOM     20  C   UNL     1     -11.179  -7.795  16.441  0.00  0.00    +0.030 A 
ATOM     22  C   UNL     1     -12.546  -8.065  16.391  0.00  0.00    +0.023 A 
ATOM     23  C   UNL     1     -10.668  -6.663  15.806  0.00  0.00    +0.023 A 
ATOM     25  C   UNL     1     -13.403  -7.203  15.707  0.00  0.00    +0.002 A 
ATOM     26  C   UNL     1     -11.524  -5.801  15.122  0.00  0.00    +0.002 A 
ATOM     27  C   UNL     1     -12.892  -6.071  15.072  0.00  0.00    +0.000 A 
ENDBRANCH   7  20
ENDBRANCH  13  15
ENDBRANCH   9  13
BRANCH  12  14
ATOM     14  C   UNL     1      -3.076 -10.691  16.667  0.00  0.00    +0.138 C 
BRANCH  14   8
ATOM      5  O   UNL     1      -1.569 -11.476  14.351  0.00  0.00    -0.270 OA
ATOM      8  N   UNL     1      -3.385 -10.388  15.300  0.00  0.00    -0.309 N 
ATOM     21  C   UNL     1      -2.595 -10.811  14.235  0.00  0.00    +0.244 C 
ATOM     36  H   UNL     1      -4.250  -9.886  15.128  0.00  0.00    +0.149 HD
BRANCH  21  24
ATOM     24  C   UNL     1      -3.038 -10.392  12.881  0.00  0.00    +0.037 A 
ATOM     28  C   UNL     1      -2.095 -10.043  11.914  0.00  0.00    +0.013 A 
ATOM     29  C   UNL     1      -4.399 -10.346  12.574  0.00  0.00    +0.013 A 
ATOM     30  C   UNL     1      -2.511  -9.647  10.643  0.00  0.00    +0.004 A 
ATOM     31  C   UNL     1      -4.815  -9.951  11.304  0.00  0.00    +0.004 A 
ATOM     32  C   UNL     1      -3.871  -9.602  10.338  0.00  0.00    -0.050 A 
ATOM     33  C   UNL     1      -4.317  -9.180   8.978  0.00  0.00    +0.044 C 
ENDBRANCH  21  24
ENDBRANCH  14   8
ENDBRANCH  12  14
TORSDOF 8
ENDMDL
MODEL 2
REMARK VINA RESULT:      -7.5     18.093     20.304
REMARK  Name = 40777990
REMARK  9 active torsions:
REMARK  status: ('A' for Active; 'I' for Inactive)
REMARK    1  A    between atoms: O_2  and  C_10
REMARK    2  A    between atoms: O_3  and  C_11
REMARK    3  A    between atoms: N_7  and  C_20
REMARK    4  A    between atoms: N_8  and  C_14
REMARK    5  A    between atoms: C_9  and  C_13
REMARK    6  A    between atoms: C_12  and  C_14
REMARK    7  A    between atoms: C_13  and  C_15
REMARK    8  A    between atoms: C_21  and  C_24
REMARK    9  A    between atoms: C_32  and  C_33
REMARK                            x       y       z     vdW  Elec       q    Type
REMARK                         _______ _______ _______ _____ _____    ______ ____
ROOT
ATOM      1  O   UNL     1     -15.701   2.721  24.603  0.00  0.00    -0.366 OA
ATOM      9  C   UNL     1     -16.943   1.982  24.641  0.00  0.00    +0.159 C 
ATOM     10  C   UNL     1     -17.683   2.317  23.350  0.00  0.00    +0.175 C 
ATOM     11  C   UNL     1     -17.172   3.711  23.047  0.00  0.00    +0.176 C 
ATOM     12  C   UNL     1     -15.714   3.596  23.461  0.00  0.00    +0.167 C 
ENDROOT
BRANCH  10   2
ATOM      2  O   UNL     1     -17.254   1.402  22.342  0.00  0.00    -0.387 OA
ATOM     34  H   UNL     1     -16.394   1.044  22.623  0.00  0.00    +0.210 HD
ENDBRANCH  10   2
BRANCH  11   3
ATOM      3  O   UNL     1     -17.311   4.074  21.690  0.00  0.00    -0.387 OA
ATOM     35  H   UNL     1     -18.175   4.507  21.591  0.00  0.00    +0.210 HD
ENDBRANCH  11   3
BRANCH   9  13
ATOM     13  C   UNL     1     -17.702   2.408  25.891  0.00  0.00    +0.130 C 
BRANCH  13  15
ATOM      4  O   UNL     1     -17.428   0.281  26.910  0.00  0.00    -0.276 OA
ATOM      6  N   UNL     1     -16.928   2.135  28.216  0.00  0.00    -0.298 N 
ATOM      7  N   UNL     1     -15.850   3.331  30.622  0.00  0.00    -0.327 N 
ATOM     15  C   UNL     1     -17.342   1.503  27.043  0.00  0.00    +0.218 C 
ATOM     16  C   UNL     1     -16.825   3.589  28.374  0.00  0.00    +0.126 C 
ATOM     17  C   UNL     1     -16.556   1.328  29.377  0.00  0.00    +0.126 C 
ATOM     18  C   UNL     1     -16.871   4.030  29.837  0.00  0.00    +0.124 C 
ATOM     19  C   UNL     1     -15.450   1.987  30.198  0.00  0.00    +0.124 C 
BRANCH   7  20
ATOM     20  C   UNL     1     -15.300   3.910  31.764  0.00  0.00    +0.030 A 
ATOM     22  C   UNL     1     -14.908   5.249  31.747  0.00  0.00    +0.023 A 
ATOM     23  C   UNL     1     -15.139   3.151  32.923  0.00  0.00    +0.023 A 
ATOM     25  C   UNL     1     -14.356   5.829  32.890  0.00  0.00    +0.002 A 
ATOM     26  C   UNL     1     -14.588   3.730  34.065  0.00  0.00    +0.002 A 
ATOM     27  C   UNL     1     -14.196   5.069  34.048  0.00  0.00    +0.000 A 
ENDBRANCH   7  20
ENDBRANCH  13  15
ENDBRANCH   9  13
BRANCH  12  14
ATOM     14  C   UNL     1     -15.088   4.929  23.832  0.00  0.00    +0.138 C 
BRANCH  14   8
ATOM      5  O   UNL     1     -15.638   7.228  22.201  0.00  0.00    -0.270 OA
ATOM      8  N   UNL     1     -14.277   5.435  22.763  0.00  0.00    -0.309 N 
ATOM     21  C   UNL     1     -14.622   6.562  22.022  0.00  0.00    +0.244 C 
ATOM     36  H   UNL     1     -13.394   4.963  22.597  0.00  0.00    +0.149 HD
BRANCH  21  24
ATOM     24  C   UNL     1     -13.688   6.942  20.931  0.00  0.00    +0.037 A 
ATOM     28  C   UNL     1     -14.173   7.567  19.783  0.00  0.00    +0.013 A 
ATOM     29  C   UNL     1     -12.324   6.673  21.055  0.00  0.00    +0.013 A 
ATOM     30  C   UNL     1     -13.296   7.923  18.758  0.00  0.00    +0.004 A 
ATOM     31  C   UNL     1     -11.447   7.028  20.031  0.00  0.00    +0.004 A 
ATOM     32  C   UNL     1     -11.933   7.654  18.882  0.00  0.00    -0.050 A 
ATOM     33  C   UNL     1     -10.995   8.034  17.787  0.00  0.00    +0.044 C 
ENDBRANCH  21  24
ENDBRANCH  14   8
ENDBRANCH  12  14
TORSDOF 8
ENDMDL
MODEL 3
REMARK VINA RESULT:      -7.3      1.620      7.937
REMARK  Name = 40777990
REMARK  9 active torsions:
REMARK  status: ('A' for Active; 'I' for Inactive)
REMARK    1  A    between atoms: O_2  and  C_10
REMARK    2  A    between atoms: O_3  and  C_11
REMARK    3  A    between atoms: N_7  and  C_20
REMARK    4  A    between atoms: N_8  and  C_14
REMARK    5  A    between atoms: C_9  and  C_13
REMARK    6  A    between atoms: C_12  and  C_14
REMARK    7  A    between atoms: C_13  and  C_15
REMARK    8  A    between atoms: C_21  and  C_24
REMARK    9  A    between atoms: C_32  and  C_33
REMARK                            x       y       z     vdW  Elec       q    Type
REMARK                         _______ _______ _______ _____ _____    ______ ____
ROOT
ATOM      1  O   UNL     1      -8.412 -12.254  19.038  0.00  0.00    -0.366 OA
ATOM      9  C   UNL     1      -6.981 -12.052  19.047  0.00  0.00    +0.159 C 
ATOM     10  C   UNL     1      -6.755 -10.561  18.821  0.00  0.00    +0.175 C 
ATOM     11  C   UNL     1      -7.975 -10.177  18.009  0.00  0.00    +0.176 C 
ATOM     12  C   UNL     1      -9.055 -11.022  18.665  0.00  0.00    +0.167 C 
ENDROOT
BRANCH  10   2
ATOM      2  O   UNL     1      -6.782  -9.910  20.091  0.00  0.00    -0.387 OA
ATOM     34  H   UNL     1      -6.002 -10.213  20.588  0.00  0.00    +0.210 HD
ENDBRANCH  10   2
BRANCH  11   3
ATOM      3  O   UNL     1      -8.273  -8.799  18.065  0.00  0.00    -0.387 OA
ATOM     35  H   UNL     1      -9.238  -8.712  18.139  0.00  0.00    +0.210 HD
ENDBRANCH  11   3
BRANCH   9  13
ATOM     13  C   UNL     1      -6.381 -12.919  17.948  0.00  0.00    +0.130 C 
BRANCH  13  15
ATOM      4  O   UNL     1      -4.080 -12.647  18.470  0.00  0.00    -0.276 OA
ATOM      6  N   UNL     1      -4.785 -11.839  16.409  0.00  0.00    -0.298 N 
ATOM      7  N   UNL     1      -4.233 -10.732  13.792  0.00  0.00    -0.327 N 
ATOM     15  C   UNL     1      -4.975 -12.462  17.643  0.00  0.00    +0.218 C 
ATOM     16  C   UNL     1      -5.849 -11.619  15.426  0.00  0.00    +0.126 C 
ATOM     17  C   UNL     1      -3.451 -11.372  16.036  0.00  0.00    +0.126 C 
ATOM     18  C   UNL     1      -5.525 -10.495  14.442  0.00  0.00    +0.124 C 
ATOM     19  C   UNL     1      -3.210 -11.475  14.532  0.00  0.00    +0.124 C 
BRANCH   7  20
ATOM     20  C   UNL     1      -3.968 -10.233  12.518  0.00  0.00    +0.030 A 
ATOM     22  C   UNL     1      -2.661 -10.219  12.032  0.00  0.00    +0.023 A 
ATOM     23  C   UNL     1      -5.011  -9.746  11.730  0.00  0.00    +0.023 A 
ATOM     25  C   UNL     1      -2.396  -9.719  10.758  0.00  0.00    +0.002 A 
ATOM     26  C   UNL     1      -4.746  -9.245  10.455  0.00  0.00    +0.002 A 
ATOM     27  C   UNL     1      -3.438  -9.232   9.969  0.00  0.00    +0.000 A 
ENDBRANCH   7  20
ENDBRANCH  13  15
ENDBRANCH   9  13
BRANCH  12  14
ATOM     14  C   UNL     1     -10.230 -11.315  17.749  0.00  0.00    +0.138 C 
BRANCH  14   8
ATOM      5  O   UNL     1     -12.192  -9.348  18.475  0.00  0.00    -0.270 OA
ATOM      8  N   UNL     1     -10.599 -10.154  16.993  0.00  0.00    -0.309 N 
ATOM     21  C   UNL     1     -11.566  -9.250  17.423  0.00  0.00    +0.244 C 
ATOM     36  H   UNL     1     -10.082  -9.982  16.137  0.00  0.00    +0.149 HD
BRANCH  21  24
ATOM     24  C   UNL     1     -11.852  -8.112  16.513  0.00  0.00    +0.037 A 
ATOM     28  C   UNL     1     -12.945  -8.168  15.648  0.00  0.00    +0.013 A 
ATOM     29  C   UNL     1     -11.027  -6.986  16.520  0.00  0.00    +0.013 A 
ATOM     30  C   UNL     1     -13.213  -7.100  14.792  0.00  0.00    +0.004 A 
ATOM     31  C   UNL     1     -11.295  -5.918  15.665  0.00  0.00    +0.004 A 
ATOM     32  C   UNL     1     -12.389  -5.975  14.801  0.00  0.00    -0.050 A 
ATOM     33  C   UNL     1     -12.675  -4.833  13.885  0.00  0.00    +0.044 C 
ENDBRANCH  21  24
ENDBRANCH  14   8
ENDBRANCH  12  14
TORSDOF 8
ENDMDL
MODEL 4
REMARK VINA RESULT:      -7.1     24.456     27.103
REMARK  Name = 40777990
REMARK  9 active torsions:
REMARK  status: ('A' for Active; 'I' for Inactive)
REMARK    1  A    between atoms: O_2  and  C_10
REMARK    2  A    between atoms: O_3  and  C_11
REMARK    3  A    between atoms: N_7  and  C_20
REMARK    4  A    between atoms: N_8  and  C_14
REMARK    5  A    between atoms: C_9  and  C_13
REMARK    6  A    between atoms: C_12  and  C_14
REMARK    7  A    between atoms: C_13  and  C_15
REMARK    8  A    between atoms: C_21  and  C_24
REMARK    9  A    between atoms: C_32  and  C_33
REMARK                            x       y       z     vdW  Elec       q    Type
REMARK                         _______ _______ _______ _____ _____    ______ ____
ROOT
ATOM      1  O   UNL     1      11.114   6.879   7.363  0.00  0.00    -0.366 OA
ATOM      9  C   UNL     1      10.032   6.334   8.153  0.00  0.00    +0.159 C 
ATOM     10  C   UNL     1       9.671   4.994   7.522  0.00  0.00    +0.175 C 
ATOM     11  C   UNL     1      10.051   5.215   6.072  0.00  0.00    +0.176 C 
ATOM     12  C   UNL     1      11.320   6.039   6.213  0.00  0.00    +0.167 C 
ENDROOT
BRANCH  10   2
ATOM      2  O   UNL     1      10.504   3.991   8.104  0.00  0.00    -0.387 OA
ATOM     34  H   UNL     1      11.263   3.863   7.509  0.00  0.00    +0.210 HD
ENDBRANCH  10   2
BRANCH  11   3
ATOM      3  O   UNL     1      10.274   4.015   5.363  0.00  0.00    -0.387 OA
ATOM     35  H   UNL     1      10.820   4.231   4.589  0.00  0.00    +0.210 HD
ENDBRANCH  11   3
BRANCH   9  13
ATOM     13  C   UNL     1       8.884   7.335   8.124  0.00  0.00    +0.130 C 
BRANCH  13  15
ATOM      4  O   UNL     1      10.066   9.380   8.370  0.00  0.00    -0.276 OA
ATOM      6  N   UNL     1       9.013   9.022   6.330  0.00  0.00    -0.298 N 
ATOM      7  N   UNL     1       8.494   9.752   3.577  0.00  0.00    -0.327 N 
ATOM     15  C   UNL     1       9.380   8.671   7.629  0.00  0.00    +0.218 C 
ATOM     16  C   UNL     1       8.199   8.179   5.450  0.00  0.00    +0.126 C 
ATOM     17  C   UNL     1       9.460  10.298   5.775  0.00  0.00    +0.126 C 
ATOM     18  C   UNL     1       7.514   8.972   4.337  0.00  0.00    +0.124 C 
ATOM     19  C   UNL     1       9.700  10.212   4.270  0.00  0.00    +0.124 C 
BRANCH   7  20
ATOM     20  C   UNL     1       8.270  10.081   2.242  0.00  0.00    +0.030 A 
ATOM     22  C   UNL     1       7.205   9.504   1.550  0.00  0.00    +0.023 A 
ATOM     23  C   UNL     1       9.113  10.986   1.597  0.00  0.00    +0.023 A 
ATOM     25  C   UNL     1       6.982   9.834   0.213  0.00  0.00    +0.002 A 
ATOM     26  C   UNL     1       8.890  11.316   0.260  0.00  0.00    +0.002 A 
ATOM     27  C   UNL     1       7.825  10.739  -0.432  0.00  0.00    +0.000 A 
ENDBRANCH   7  20
ENDBRANCH  13  15
ENDBRANCH   9  13
BRANCH  12  14
ATOM     14  C   UNL     1      11.616   6.901   4.998  0.00  0.00    +0.138 C 
BRANCH  14   8
ATOM      5  O   UNL     1      10.074   6.872   2.575  0.00  0.00    -0.270 OA
ATOM      8  N   UNL     1      11.859   6.094   3.838  0.00  0.00    -0.309 N 
ATOM     21  C   UNL     1      11.056   6.145   2.702  0.00  0.00    +0.244 C 
ATOM     36  H   UNL     1      12.687   5.508   3.853  0.00  0.00    +0.149 HD
BRANCH  21  24
ATOM     24  C   UNL     1      11.426   5.226   1.595  0.00  0.00    +0.037 A 
ATOM     28  C   UNL     1      12.532   4.386   1.724  0.00  0.00    +0.013 A 
ATOM     29  C   UNL     1      10.668   5.203   0.423  0.00  0.00    +0.013 A 
ATOM     30  C   UNL     1      12.880   3.525   0.684  0.00  0.00    +0.004 A 
ATOM     31  C   UNL     1      11.015   4.343  -0.617  0.00  0.00    +0.004 A 
ATOM     32  C   UNL     1      12.121   3.503  -0.486  0.00  0.00    -0.050 A 
ATOM     33  C   UNL     1      12.493   2.581  -1.599  0.00  0.00    +0.044 C 
ENDBRANCH  21  24
ENDBRANCH  14   8
ENDBRANCH  12  14
TORSDOF 8
ENDMDL
MODEL 5
REMARK VINA RESULT:      -7.0      1.806      7.761
REMARK  Name = 40777990
REMARK  9 active torsions:
REMARK  status: ('A' for Active; 'I' for Inactive)
REMARK    1  A    between atoms: O_2  and  C_10
REMARK    2  A    between atoms: O_3  and  C_11
REMARK    3  A    between atoms: N_7  and  C_20
REMARK    4  A    between atoms: N_8  and  C_14
REMARK    5  A    between atoms: C_9  and  C_13
REMARK    6  A    between atoms: C_12  and  C_14
REMARK    7  A    between atoms: C_13  and  C_15
REMARK    8  A    between atoms: C_21  and  C_24
REMARK    9  A    between atoms: C_32  and  C_33
REMARK                            x       y       z     vdW  Elec       q    Type
REMARK                         _______ _______ _______ _____ _____    ______ ____
ROOT
ATOM      1  O   UNL     1      -5.274 -12.743  17.445  0.00  0.00    -0.366 OA
ATOM      9  C   UNL     1      -4.195 -11.793  17.603  0.00  0.00    +0.159 C 
ATOM     10  C   UNL     1      -4.283 -11.277  19.035  0.00  0.00    +0.175 C 
ATOM     11  C   UNL     1      -5.763 -11.408  19.327  0.00  0.00    +0.176 C 
ATOM     12  C   UNL     1      -6.097 -12.714  18.625  0.00  0.00    +0.167 C 
ENDROOT
BRANCH  10   2
ATOM      2  O   UNL     1      -3.533 -12.158  19.871  0.00  0.00    -0.387 OA
ATOM     34  H   UNL     1      -2.805 -12.517  19.335  0.00  0.00    +0.210 HD
ENDBRANCH  10   2
BRANCH  11   3
ATOM      3  O   UNL     1      -6.058 -11.458  20.707  0.00  0.00    -0.387 OA
ATOM     35  H   UNL     1      -5.628 -12.250  21.069  0.00  0.00    +0.210 HD
ENDBRANCH  11   3
BRANCH   9  13
ATOM     13  C   UNL     1      -4.382 -10.698  16.562  0.00  0.00    +0.130 C 
BRANCH  13  15
ATOM      4  O   UNL     1      -2.060 -10.707  16.063  0.00  0.00    -0.276 OA
ATOM      6  N   UNL     1      -3.515 -10.645  14.253  0.00  0.00    -0.298 N 
ATOM      7  N   UNL     1      -4.039 -10.780  11.410  0.00  0.00    -0.327 N 
ATOM     15  C   UNL     1      -3.208 -10.685  15.614  0.00  0.00    +0.218 C 
ATOM     16  C   UNL     1      -4.880 -10.619  13.720  0.00  0.00    +0.126 C 
ATOM     17  C   UNL     1      -2.434 -10.637  13.270  0.00  0.00    +0.126 C 
ATOM     18  C   UNL     1      -4.950 -10.057  12.300  0.00  0.00    +0.124 C 
ATOM     19  C   UNL     1      -2.825 -11.364  11.986  0.00  0.00    +0.124 C 
BRANCH   7  20
ATOM     20  C   UNL     1      -4.298 -10.881  10.044  0.00  0.00    +0.030 A 
ATOM     22  C   UNL     1      -4.195 -12.116   9.404  0.00  0.00    +0.023 A 
ATOM     23  C   UNL     1      -4.660  -9.747   9.318  0.00  0.00    +0.023 A 
ATOM     25  C   UNL     1      -4.454 -12.217   8.037  0.00  0.00    +0.002 A 
ATOM     26  C   UNL     1      -4.919  -9.847   7.951  0.00  0.00    +0.002 A 
ATOM     27  C   UNL     1      -4.816 -11.082   7.311  0.00  0.00    +0.000 A 
ENDBRANCH   7  20
ENDBRANCH  13  15
ENDBRANCH   9  13
BRANCH  12  14
ATOM     14  C   UNL     1      -7.559 -12.829  18.231  0.00  0.00    +0.138 C 
BRANCH  14   8
ATOM      5  O   UNL     1      -9.714 -12.377  16.387  0.00  0.00    -0.270 OA
ATOM      8  N   UNL     1      -8.088 -11.559  17.826  0.00  0.00    -0.309 N 
ATOM     21  C   UNL     1      -9.139 -11.432  16.922  0.00  0.00    +0.244 C 
ATOM     36  H   UNL     1      -7.694 -10.737  18.272  0.00  0.00    +0.149 HD
BRANCH  21  24
ATOM     24  C   UNL     1      -9.553 -10.046  16.586  0.00  0.00    +0.037 A 
ATOM     28  C   UNL     1      -9.721  -9.103  17.600  0.00  0.00    +0.013 A 
ATOM     29  C   UNL     1      -9.775  -9.686  15.256  0.00  0.00    +0.013 A 
ATOM     30  C   UNL     1     -10.111  -7.801  17.284  0.00  0.00    +0.004 A 
ATOM     31  C   UNL     1     -10.164  -8.386  14.940  0.00  0.00    +0.004 A 
ATOM     32  C   UNL     1     -10.332  -7.442  15.955  0.00  0.00    -0.050 A 
ATOM     33  C   UNL     1     -10.749  -6.050  15.617  0.00  0.00    +0.044 C 
ENDBRANCH  21  24
ENDBRANCH  14   8
ENDBRANCH  12  14
TORSDOF 8
ENDMDL
MODEL 6
REMARK VINA RESULT:      -7.0      2.357      6.240
REMARK  Name = 40777990
REMARK  9 active torsions:
REMARK  status: ('A' for Active; 'I' for Inactive)
REMARK    1  A    between atoms: O_2  and  C_10
REMARK    2  A    between atoms: O_3  and  C_11
REMARK    3  A    between atoms: N_7  and  C_20
REMARK    4  A    between atoms: N_8  and  C_14
REMARK    5  A    between atoms: C_9  and  C_13
REMARK    6  A    between atoms: C_12  and  C_14
REMARK    7  A    between atoms: C_13  and  C_15
REMARK    8  A    between atoms: C_21  and  C_24
REMARK    9  A    between atoms: C_32  and  C_33
REMARK                            x       y       z     vdW  Elec       q    Type
REMARK                         _______ _______ _______ _____ _____    ______ ____
ROOT
ATOM      1  O   UNL     1      -2.570 -12.697  11.744  0.00  0.00    -0.366 OA
ATOM      9  C   UNL     1      -3.399 -11.699  11.105  0.00  0.00    +0.159 C 
ATOM     10  C   UNL     1      -3.103 -10.379  11.810  0.00  0.00    +0.175 C 
ATOM     11  C   UNL     1      -2.709 -10.844  13.197  0.00  0.00    +0.176 C 
ATOM     12  C   UNL     1      -1.920 -12.105  12.882  0.00  0.00    +0.167 C 
ENDROOT
BRANCH  10   2
ATOM      2  O   UNL     1      -1.989  -9.768  11.158  0.00  0.00    -0.387 OA
ATOM     34  H   UNL     1      -1.286  -9.665  11.822  0.00  0.00    +0.210 HD
ENDBRANCH  10   2
BRANCH  11   3
ATOM      3  O   UNL     1      -1.936  -9.898  13.905  0.00  0.00    -0.387 OA
ATOM     35  H   UNL     1      -1.065 -10.296  14.067  0.00  0.00    +0.210 HD
ENDBRANCH  11   3
BRANCH   9  13
ATOM     13  C   UNL     1      -4.850 -12.137  11.246  0.00  0.00    +0.130 C 
BRANCH  13  15
ATOM      4  O   UNL     1      -5.858 -10.394   9.987  0.00  0.00    -0.276 OA
ATOM      6  N   UNL     1      -6.456 -10.543  12.226  0.00  0.00    -0.298 N 
ATOM      7  N   UNL     1      -8.102  -9.755  14.473  0.00  0.00    -0.327 N 
ATOM     15  C   UNL     1      -5.764 -10.947  11.084  0.00  0.00    +0.218 C 
ATOM     16  C   UNL     1      -6.345 -11.201  13.531  0.00  0.00    +0.126 C 
ATOM     17  C   UNL     1      -7.366  -9.401  12.151  0.00  0.00    +0.126 C 
ATOM     18  C   UNL     1      -6.757 -10.293  14.690  0.00  0.00    +0.124 C 
ATOM     19  C   UNL     1      -8.556  -9.558  13.094  0.00  0.00    +0.124 C 
BRANCH   7  20
ATOM     20  C   UNL     1      -8.917  -9.403  15.547  0.00  0.00    +0.030 A 
ATOM     22  C   UNL     1      -8.764 -10.042  16.778  0.00  0.00    +0.023 A 
ATOM     23  C   UNL     1      -9.887  -8.412  15.391  0.00  0.00    +0.023 A 
ATOM     25  C   UNL     1      -9.580  -9.690  17.853  0.00  0.00    +0.002 A 
ATOM     26  C   UNL     1     -10.703  -8.061  16.466  0.00  0.00    +0.002 A 
ATOM     27  C   UNL     1     -10.550  -8.699  17.697  0.00  0.00    +0.000 A 
ENDBRANCH   7  20
ENDBRANCH  13  15
ENDBRANCH   9  13
BRANCH  12  14
ATOM     14  C   UNL     1      -1.892 -13.099  14.030  0.00  0.00    +0.138 C 
BRANCH  14   8
ATOM      5  O   UNL     1      -4.488 -14.041  14.816  0.00  0.00    -0.270 OA
ATOM      8  N   UNL     1      -2.673 -12.633  15.138  0.00  0.00    -0.309 N 
ATOM     21  C   UNL     1      -3.928 -13.149  15.447  0.00  0.00    +0.244 C 
ATOM     36  H   UNL     1      -2.246 -11.933  15.736  0.00  0.00    +0.149 HD
BRANCH  21  24
ATOM     24  C   UNL     1      -4.620 -12.540  16.612  0.00  0.00    +0.037 A 
ATOM     28  C   UNL     1      -5.727 -13.175  17.176  0.00  0.00    +0.013 A 
ATOM     29  C   UNL     1      -4.164 -11.333  17.143  0.00  0.00    +0.013 A 
ATOM     30  C   UNL     1      -6.378 -12.602  18.268  0.00  0.00    +0.004 A 
ATOM     31  C   UNL     1      -4.814 -10.761  18.235  0.00  0.00    +0.004 A 
ATOM     32  C   UNL     1      -5.921 -11.396  18.799  0.00  0.00    -0.050 A 
ATOM     33  C   UNL     1      -6.617 -10.784  19.968  0.00  0.00    +0.044 C 
ENDBRANCH  21  24
ENDBRANCH  14   8
ENDBRANCH  12  14
TORSDOF 8
ENDMDL
MODEL 7
REMARK VINA RESULT:      -7.0      2.098      4.195
REMARK  Name = 40777990
REMARK  9 active torsions:
REMARK  status: ('A' for Active; 'I' for Inactive)
REMARK    1  A    between atoms: O_2  and  C_10
REMARK    2  A    between atoms: O_3  and  C_11
REMARK    3  A    between atoms: N_7  and  C_20
REMARK    4  A    between atoms: N_8  and  C_14
REMARK    5  A    between atoms: C_9  and  C_13
REMARK    6  A    between atoms: C_12  and  C_14
REMARK    7  A    between atoms: C_13  and  C_15
REMARK    8  A    between atoms: C_21  and  C_24
REMARK    9  A    between atoms: C_32  and  C_33
REMARK                            x       y       z     vdW  Elec       q    Type
REMARK                         _______ _______ _______ _____ _____    ______ ____
ROOT
ATOM      1  O   UNL     1      -8.752 -10.595  19.653  0.00  0.00    -0.366 OA
ATOM      9  C   UNL     1      -9.922 -10.704  18.810  0.00  0.00    +0.159 C 
ATOM     10  C   UNL     1      -9.573 -11.710  17.718  0.00  0.00    +0.175 C 
ATOM     11  C   UNL     1      -8.072 -11.541  17.602  0.00  0.00    +0.176 C 
ATOM     12  C   UNL     1      -7.676 -11.339  19.056  0.00  0.00    +0.167 C 
ENDROOT
BRANCH  10   2
ATOM      2  O   UNL     1      -9.888 -13.016  18.201  0.00  0.00    -0.387 OA
ATOM     34  H   UNL     1      -9.070 -13.541  18.172  0.00  0.00    +0.210 HD
ENDBRANCH  10   2
BRANCH  11   3
ATOM      3  O   UNL     1      -7.427 -12.657  17.026  0.00  0.00    -0.387 OA
ATOM     35  H   UNL     1      -7.596 -13.421  17.602  0.00  0.00    +0.210 HD
ENDBRANCH  11   3
BRANCH   9  13
ATOM     13  C   UNL     1     -10.235  -9.317  18.265  0.00  0.00    +0.130 C 
BRANCH  13  15
ATOM      4  O   UNL     1     -12.518  -9.949  18.427  0.00  0.00    -0.276 OA
ATOM      6  N   UNL     1     -11.989  -8.351  16.826  0.00  0.00    -0.298 N 
ATOM      7  N   UNL     1     -12.762  -6.382  14.850  0.00  0.00    -0.327 N 
ATOM     15  C   UNL     1     -11.685  -9.242  17.856  0.00  0.00    +0.218 C 
ATOM     16  C   UNL     1     -10.998  -7.510  16.148  0.00  0.00    +0.126 C 
ATOM     17  C   UNL     1     -13.372  -8.215  16.375  0.00  0.00    +0.126 C 
ATOM     18  C   UNL     1     -11.459  -7.048  14.766  0.00  0.00    +0.124 C 
ATOM     19  C   UNL     1     -13.684  -6.795  15.911  0.00  0.00    +0.124 C 
BRANCH   7  20
ATOM     20  C   UNL     1     -13.132  -5.408  13.924  0.00  0.00    +0.030 A 
ATOM     22  C   UNL     1     -14.481  -5.185  13.647  0.00  0.00    +0.023 A 
ATOM     23  C   UNL     1     -12.153  -4.657  13.274  0.00  0.00    +0.023 A 
ATOM     25  C   UNL     1     -14.851  -4.211  12.720  0.00  0.00    +0.002 A 
ATOM     26  C   UNL     1     -12.523  -3.683  12.347  0.00  0.00    +0.002 A 
ATOM     27  C   UNL     1     -13.872  -3.460  12.070  0.00  0.00    +0.000 A 
ENDBRANCH   7  20
ENDBRANCH  13  15
ENDBRANCH   9  13
BRANCH  12  14
ATOM     14  C   UNL     1      -6.373 -10.578  19.224  0.00  0.00    +0.138 C 
BRANCH  14   8
ATOM      5  O   UNL     1      -3.780 -11.689  18.687  0.00  0.00    -0.270 OA
ATOM      8  N   UNL     1      -5.650 -10.508  17.987  0.00  0.00    -0.309 N 
ATOM     21  C   UNL     1      -4.392 -11.078  17.815  0.00  0.00    +0.244 C 
ATOM     36  H   UNL     1      -6.122 -10.064  17.207  0.00  0.00    +0.149 HD
BRANCH  21  24
ATOM     24  C   UNL     1      -3.765 -10.896  16.481  0.00  0.00    +0.037 A 
ATOM     28  C   UNL     1      -4.556 -10.904  15.331  0.00  0.00    +0.013 A 
ATOM     29  C   UNL     1      -2.385 -10.716  16.375  0.00  0.00    +0.013 A 
ATOM     30  C   UNL     1      -3.967 -10.734  14.078  0.00  0.00    +0.004 A 
ATOM     31  C   UNL     1      -1.797 -10.546  15.123  0.00  0.00    +0.004 A 
ATOM     32  C   UNL     1      -2.588 -10.555  13.974  0.00  0.00    -0.050 A 
ATOM     33  C   UNL     1      -1.958 -10.373  12.634  0.00  0.00    +0.044 C 
ENDBRANCH  21  24
ENDBRANCH  14   8
ENDBRANCH  12  14
TORSDOF 8
ENDMDL
MODEL 8
REMARK VINA RESULT:      -7.0      1.658      2.275
REMARK  Name = 40777990
REMARK  9 active torsions:
REMARK  status: ('A' for Active; 'I' for Inactive)
REMARK    1  A    between atoms: O_2  and  C_10
REMARK    2  A    between atoms: O_3  and  C_11
REMARK    3  A    between atoms: N_7  and  C_20
REMARK    4  A    between atoms: N_8  and  C_14
REMARK    5  A    between atoms: C_9  and  C_13
REMARK    6  A    between atoms: C_12  and  C_14
REMARK    7  A    between atoms: C_13  and  C_15
REMARK    8  A    between atoms: C_21  and  C_24
REMARK    9  A    between atoms: C_32  and  C_33
REMARK                            x       y       z     vdW  Elec       q    Type
REMARK                         _______ _______ _______ _____ _____    ______ ____
ROOT
ATOM      1  O   UNL     1      -3.615 -10.374  16.672  0.00  0.00    -0.366 OA
ATOM      9  C   UNL     1      -4.901 -10.936  17.021  0.00  0.00    +0.159 C 
ATOM     10  C   UNL     1      -4.850 -12.407  16.620  0.00  0.00    +0.175 C 
ATOM     11  C   UNL     1      -3.868 -12.385  15.467  0.00  0.00    +0.176 C 
ATOM     12  C   UNL     1      -2.856 -11.358  15.948  0.00  0.00    +0.167 C 
ENDROOT
BRANCH  10   2
ATOM      2  O   UNL     1      -4.311 -13.147  17.715  0.00  0.00    -0.387 OA
ATOM     34  H   UNL     1      -4.675 -14.048  17.663  0.00  0.00    +0.210 HD
ENDBRANCH  10   2
BRANCH  11   3
ATOM      3  O   UNL     1      -3.272 -13.640  15.217  0.00  0.00    -0.387 OA
ATOM     35  H   UNL     1      -3.663 -14.278  15.836  0.00  0.00    +0.210 HD
ENDBRANCH  11   3
BRANCH   9  13
ATOM     13  C   UNL     1      -5.971 -10.152  16.273  0.00  0.00    +0.130 C 
BRANCH  13  15
ATOM      4  O   UNL     1      -6.908  -9.859  18.436  0.00  0.00    -0.276 OA
ATOM      6  N   UNL     1      -8.276  -9.348  16.628  0.00  0.00    -0.298 N 
ATOM      7  N   UNL     1     -10.710  -8.245  15.517  0.00  0.00    -0.327 N 
ATOM     15  C   UNL     1      -7.085  -9.775  17.219  0.00  0.00    +0.218 C 
ATOM     16  C   UNL     1      -8.485  -9.248  15.181  0.00  0.00    +0.126 C 
ATOM     17  C   UNL     1      -9.401  -8.960  17.476  0.00  0.00    +0.126 C 
ATOM     18  C   UNL     1      -9.964  -9.277  14.794  0.00  0.00    +0.124 C 
ATOM     19  C   UNL     1     -10.233  -7.846  16.844  0.00  0.00    +0.124 C 
BRANCH   7  20
ATOM     20  C   UNL     1     -11.865  -7.682  14.978  0.00  0.00    +0.030 A 
ATOM     22  C   UNL     1     -12.809  -7.087  15.816  0.00  0.00    +0.023 A 
ATOM     23  C   UNL     1     -12.078  -7.714  13.600  0.00  0.00    +0.023 A 
ATOM     25  C   UNL     1     -13.965  -6.524  15.276  0.00  0.00    +0.002 A 
ATOM     26  C   UNL     1     -13.234  -7.151  13.060  0.00  0.00    +0.002 A 
ATOM     27  C   UNL     1     -14.177  -6.556  13.898  0.00  0.00    +0.000 A 
ENDBRANCH   7  20
ENDBRANCH  13  15
ENDBRANCH   9  13
BRANCH  12  14
ATOM     14  C   UNL     1      -2.095 -10.687  14.818  0.00  0.00    +0.138 C 
BRANCH  14   8
ATOM      5  O   UNL     1      -1.722 -10.968  11.985  0.00  0.00    -0.270 OA
ATOM      8  N   UNL     1      -2.987 -10.239  13.789  0.00  0.00    -0.309 N 
ATOM     21  C   UNL     1      -2.725 -10.418  12.433  0.00  0.00    +0.244 C 
ATOM     36  H   UNL     1      -3.862  -9.824  14.090  0.00  0.00    +0.149 HD
BRANCH  21  24
ATOM     24  C   UNL     1      -3.736  -9.873  11.491  0.00  0.00    +0.037 A 
ATOM     28  C   UNL     1      -5.067  -9.749  11.891  0.00  0.00    +0.013 A 
ATOM     29  C   UNL     1      -3.356  -9.487  10.205  0.00  0.00    +0.013 A 
ATOM     30  C   UNL     1      -6.016  -9.239  11.006  0.00  0.00    +0.004 A 
ATOM     31  C   UNL     1      -4.305  -8.977   9.321  0.00  0.00    +0.004 A 
ATOM     32  C   UNL     1      -5.636  -8.853   9.721  0.00  0.00    -0.050 A 
ATOM     33  C   UNL     1      -6.651  -8.307   8.775  0.00  0.00    +0.044 C 
ENDBRANCH  21  24
ENDBRANCH  14   8
ENDBRANCH  12  14
TORSDOF 8
ENDMDL
MODEL 9
REMARK VINA RESULT:      -6.8     18.353     21.101
REMARK  Name = 40777990
REMARK  9 active torsions:
REMARK  status: ('A' for Active; 'I' for Inactive)
REMARK    1  A    between atoms: O_2  and  C_10
REMARK    2  A    between atoms: O_3  and  C_11
REMARK    3  A    between atoms: N_7  and  C_20
REMARK    4  A    between atoms: N_8  and  C_14
REMARK    5  A    between atoms: C_9  and  C_13
REMARK    6  A    between atoms: C_12  and  C_14
REMARK    7  A    between atoms: C_13  and  C_15
REMARK    8  A    between atoms: C_21  and  C_24
REMARK    9  A    between atoms: C_32  and  C_33
REMARK                            x       y       z     vdW  Elec       q    Type
REMARK                         _______ _______ _______ _____ _____    ______ ____
ROOT
ATOM      1  O   UNL     1     -18.246   4.052  24.429  0.00  0.00    -0.366 OA
ATOM      9  C   UNL     1     -17.038   4.402  23.715  0.00  0.00    +0.159 C 
ATOM     10  C   UNL     1     -16.132   3.176  23.775  0.00  0.00    +0.175 C 
ATOM     11  C   UNL     1     -16.566   2.527  25.074  0.00  0.00    +0.176 C 
ATOM     12  C   UNL     1     -18.067   2.765  25.047  0.00  0.00    +0.167 C 
ENDROOT
BRANCH  10   2
ATOM      2  O   UNL     1     -16.454   2.333  22.670  0.00  0.00    -0.387 OA
ATOM     34  H   UNL     1     -17.077   2.821  22.104  0.00  0.00    +0.210 HD
ENDBRANCH  10   2
BRANCH  11   3
ATOM      3  O   UNL     1     -16.248   1.154  25.146  0.00  0.00    -0.387 OA
ATOM     35  H   UNL     1     -17.066   0.656  24.984  0.00  0.00    +0.210 HD
ENDBRANCH  11   3
BRANCH   9  13
ATOM     13  C   UNL     1     -16.432   5.623  24.395  0.00  0.00    +0.130 C 
BRANCH  13  15
ATOM      4  O   UNL     1     -17.660   7.510  23.638  0.00  0.00    -0.276 OA
ATOM      6  N   UNL     1     -15.599   7.134  22.633  0.00  0.00    -0.298 N 
ATOM      7  N   UNL     1     -13.433   7.955  20.896  0.00  0.00    -0.327 N 
ATOM     15  C   UNL     1     -16.629   6.843  23.528  0.00  0.00    +0.218 C 
ATOM     16  C   UNL     1     -14.374   6.341  22.503  0.00  0.00    +0.126 C 
ATOM     17  C   UNL     1     -15.712   8.303  21.762  0.00  0.00    +0.126 C 
ATOM     18  C   UNL     1     -13.684   6.534  21.152  0.00  0.00    +0.124 C 
ATOM     19  C   UNL     1     -14.352   8.936  21.480  0.00  0.00    +0.124 C 
BRANCH   7  20
ATOM     20  C   UNL     1     -12.373   8.364  20.090  0.00  0.00    +0.030 A 
ATOM     22  C   UNL     1     -12.010   7.604  18.978  0.00  0.00    +0.023 A 
ATOM     23  C   UNL     1     -11.676   9.532  20.395  0.00  0.00    +0.023 A 
ATOM     25  C   UNL     1     -10.948   8.013  18.171  0.00  0.00    +0.002 A 
ATOM     26  C   UNL     1     -10.615   9.942  19.588  0.00  0.00    +0.002 A 
ATOM     27  C   UNL     1     -10.251   9.182  18.476  0.00  0.00    +0.000 A 
ENDBRANCH   7  20
ENDBRANCH  13  15
ENDBRANCH   9  13
BRANCH  12  14
ATOM     14  C   UNL     1     -18.701   2.768  26.426  0.00  0.00    +0.138 C 
BRANCH  14   8
ATOM      5  O   UNL     1     -17.692   0.544  27.937  0.00  0.00    -0.270 OA
ATOM      8  N   UNL     1     -17.703   2.813  27.455  0.00  0.00    -0.309 N 
ATOM     21  C   UNL     1     -17.271   1.680  28.139  0.00  0.00    +0.244 C 
ATOM     36  H   UNL     1     -17.272   3.714  27.635  0.00  0.00    +0.149 HD
BRANCH  21  24
ATOM     24  C   UNL     1     -16.250   1.899  29.194  0.00  0.00    +0.037 A 
ATOM     28  C   UNL     1     -15.661   3.154  29.347  0.00  0.00    +0.013 A 
ATOM     29  C   UNL     1     -15.876   0.848  30.033  0.00  0.00    +0.013 A 
ATOM     30  C   UNL     1     -14.701   3.359  30.337  0.00  0.00    +0.004 A 
ATOM     31  C   UNL     1     -14.916   1.053  31.023  0.00  0.00    +0.004 A 
ATOM     32  C   UNL     1     -14.328   2.309  31.175  0.00  0.00    -0.050 A 
ATOM     33  C   UNL     1     -13.301   2.528  32.234  0.00  0.00    +0.044 C 
ENDBRANCH  21  24
ENDBRANCH  14   8
ENDBRANCH  12  14
TORSDOF 8
ENDMDL
MODEL 10
REMARK VINA RESULT:      -6.8      2.667      4.665
REMARK  Name = 40777990
REMARK  9 active torsions:
REMARK  status: ('A' for Active; 'I' for Inactive)
REMARK    1  A    between atoms: O_2  and  C_10
REMARK    2  A    between atoms: O_3  and  C_11
REMARK    3  A    between atoms: N_7  and  C_20
REMARK    4  A    between atoms: N_8  and  C_14
REMARK    5  A    between atoms: C_9  and  C_13
REMARK    6  A    between atoms: C_12  and  C_14
REMARK    7  A    between atoms: C_13  and  C_15
REMARK    8  A    between atoms: C_21  and  C_24
REMARK    9  A    between atoms: C_32  and  C_33
REMARK                            x       y       z     vdW  Elec       q    Type
REMARK                         _______ _______ _______ _____ _____    ______ ____
ROOT
ATOM      1  O   UNL     1      -5.901 -10.358  17.048  0.00  0.00    -0.366 OA
ATOM      9  C   UNL     1      -7.154 -10.618  17.722  0.00  0.00    +0.159 C 
ATOM     10  C   UNL     1      -6.797 -11.078  19.131  0.00  0.00    +0.175 C 
ATOM     11  C   UNL     1      -5.439 -11.717  18.920  0.00  0.00    +0.176 C 
ATOM     12  C   UNL     1      -4.819 -10.780  17.896  0.00  0.00    +0.167 C 
ENDROOT
BRANCH  10   2
ATOM      2  O   UNL     1      -6.676  -9.922  19.958  0.00  0.00    -0.387 OA
ATOM     34  H   UNL     1      -5.953 -10.089  20.588  0.00  0.00    +0.210 HD
ENDBRANCH  10   2
BRANCH  11   3
ATOM      3  O   UNL     1      -4.669 -11.798  20.100  0.00  0.00    -0.387 OA
ATOM     35  H   UNL     1      -4.885 -11.022  20.643  0.00  0.00    +0.210 HD
ENDBRANCH  11   3
BRANCH   9  13
ATOM     13  C   UNL     1      -7.903 -11.675  16.921  0.00  0.00    +0.130 C 
BRANCH  13  15
ATOM      4  O   UNL     1     -10.005 -10.619  16.601  0.00  0.00    -0.276 OA
ATOM      6  N   UNL     1      -8.688 -10.915  14.711  0.00  0.00    -0.298 N 
ATOM      7  N   UNL     1      -8.125 -10.450  11.910  0.00  0.00    -0.327 N 
ATOM     15  C   UNL     1      -8.966 -11.020  16.074  0.00  0.00    +0.218 C 
ATOM     16  C   UNL     1      -7.452 -11.391  14.085  0.00  0.00    +0.126 C 
ATOM     17  C   UNL     1      -9.665 -10.287  13.823  0.00  0.00    +0.126 C 
ATOM     18  C   UNL     1      -7.606 -11.642  12.585  0.00  0.00    +0.124 C 
ATOM     19  C   UNL     1      -8.994  -9.547  12.669  0.00  0.00    +0.124 C 
BRANCH   7  20
ATOM     20  C   UNL     1      -7.833 -10.198  10.571  0.00  0.00    +0.030 A 
ATOM     22  C   UNL     1      -7.553 -11.257   9.706  0.00  0.00    +0.023 A 
ATOM     23  C   UNL     1      -7.820  -8.887  10.095  0.00  0.00    +0.023 A 
ATOM     25  C   UNL     1      -7.260 -11.004   8.366  0.00  0.00    +0.002 A 
ATOM     26  C   UNL     1      -7.528  -8.634   8.756  0.00  0.00    +0.002 A 
ATOM     27  C   UNL     1      -7.248  -9.693   7.891  0.00  0.00    +0.000 A 
ENDBRANCH   7  20
ENDBRANCH  13  15
ENDBRANCH   9  13
BRANCH  12  14
ATOM     14  C   UNL     1      -3.737 -11.437  17.056  0.00  0.00    +0.138 C 
BRANCH  14   8
ATOM      5  O   UNL     1      -1.603 -11.401  15.136  0.00  0.00    -0.270 OA
ATOM      8  N   UNL     1      -3.826 -11.026  15.686  0.00  0.00    -0.309 N 
ATOM     21  C   UNL     1      -2.735 -11.041  14.821  0.00  0.00    +0.244 C 
ATOM     36  H   UNL     1      -4.746 -10.768  15.344  0.00  0.00    +0.149 HD
BRANCH  21  24
ATOM     24  C   UNL     1      -2.986 -10.561  13.438  0.00  0.00    +0.037 A 
ATOM     28  C   UNL     1      -1.918 -10.374  12.560  0.00  0.00    +0.013 A 
ATOM     29  C   UNL     1      -4.289 -10.295  13.017  0.00  0.00    +0.013 A 
ATOM     30  C   UNL     1      -2.154  -9.921  11.262  0.00  0.00    +0.004 A 
ATOM     31  C   UNL     1      -4.525  -9.843  11.719  0.00  0.00    +0.004 A 
ATOM     32  C   UNL     1      -3.457  -9.656  10.841  0.00  0.00    -0.050 A 
ATOM     33  C   UNL     1      -3.709  -9.172   9.453  0.00  0.00    +0.044 C 
ENDBRANCH  21  24
ENDBRANCH  14   8
ENDBRANCH  12  14
TORSDOF 8
ENDMDL
