MODEL 1
REMARK VINA RESULT:      -6.7      0.000      0.000
REMARK  Name = 11913297
REMARK  7 active torsions:
REMARK  status: ('A' for Active; 'I' for Inactive)
REMARK    1  A    between atoms: O_5  and  C_24
REMARK    2  A    between atoms: N_7  and  C_13
REMARK    3  A    between atoms: N_8  and  C_14
REMARK    4  A    between atoms: C_17  and  C_19
REMARK    5  A    between atoms: C_19  and  C_20
REMARK    6  A    between atoms: C_20  and  C_24
REMARK    7  A    between atoms: C_21  and  C_25
REMARK                            x       y       z     vdW  Elec       q    Type
REMARK                         _______ _______ _______ _____ _____    ______ ____
ROOT
ATOM      1  O   UNL     1      -7.214 -11.835  16.098  0.00  0.00    -0.370 OA
ATOM      2  O   UNL     1      -6.115 -12.027  19.013  0.00  0.00    -0.370 OA
ATOM     11  C   UNL     1      -6.508 -10.924  18.180  0.00  0.00    +0.171 C 
ATOM     12  C   UNL     1      -6.080 -11.252  16.763  0.00  0.00    +0.171 C 
ATOM     13  C   UNL     1      -8.015 -10.839  18.099  0.00  0.00    +0.130 C 
ATOM     14  C   UNL     1      -4.988 -12.281  16.937  0.00  0.00    +0.130 C 
ATOM     15  C   UNL     1      -8.336 -11.829  16.993  0.00  0.00    +0.185 C 
ATOM     16  C   UNL     1      -5.392 -12.982  18.222  0.00  0.00    +0.185 C 
ENDROOT
BRANCH  14   8
ATOM      8  N   UNL     1      -3.711 -11.625  17.105  0.00  0.00    -0.306 N 
ATOM      9  N   UNL     1      -3.473 -11.253  14.801  0.00  0.00    -0.211 NA
ATOM     10  N   UNL     1      -1.781 -10.522  16.353  0.00  0.00    -0.223 NA
ATOM     18  C   UNL     1      -2.966 -11.119  16.055  0.00  0.00    +0.216 A 
ATOM     21  C   UNL     1      -2.720 -10.749  13.801  0.00  0.00    +0.111 A 
ATOM     22  C   UNL     1      -1.081 -10.040  15.305  0.00  0.00    +0.116 A 
ATOM     23  C   UNL     1      -1.505 -10.125  13.995  0.00  0.00    +0.051 A 
ATOM     30  H   UNL     1      -3.349 -11.471  18.040  0.00  0.00    +0.149 HD
BRANCH  21  25
ATOM      4  O   UNL     1      -4.140  -9.930  12.099  0.00  0.00    -0.461 OA
ATOM     25  C   UNL     1      -3.282 -10.907  12.486  0.00  0.00    +0.153 A 
ATOM     26  C   UNL     1      -3.147 -11.854  11.500  0.00  0.00    +0.051 A 
ATOM     27  C   UNL     1      -3.976 -11.430  10.435  0.00  0.00    +0.042 A 
ATOM     28  C   UNL     1      -4.558 -10.255  10.848  0.00  0.00    +0.196 A 
ENDBRANCH  21  25
ENDBRANCH  14   8
BRANCH  13   7
ATOM      3  O   UNL     1     -10.736  -9.872  17.905  0.00  0.00    -0.276 OA
ATOM      7  N   UNL     1      -8.446  -9.507  17.749  0.00  0.00    -0.308 N 
ATOM     17  C   UNL     1      -9.782  -9.133  17.682  0.00  0.00    +0.214 C 
ATOM     29  H   UNL     1      -7.736  -8.828  17.491  0.00  0.00    +0.149 HD
BRANCH  17  19
ATOM     19  C   UNL     1      -9.936  -7.674  17.290  0.00  0.00    +0.107 C 
BRANCH  19  20
ATOM     20  C   UNL     1     -11.232  -7.408  16.530  0.00  0.00    +0.129 C 
BRANCH  20  24
ATOM      6  O   UNL     1     -12.072  -5.605  15.128  0.00  0.00    -0.251 OA
ATOM     24  C   UNL     1     -11.130  -6.182  15.654  0.00  0.00    +0.305 C 
BRANCH  24   5
ATOM      5  O   UNL     1      -9.840  -5.779  15.511  0.00  0.00    -0.481 OA
ATOM     31  H   UNL     1      -9.373  -6.290  14.815  0.00  0.00    +0.295 HD
ENDBRANCH  24   5
ENDBRANCH  20  24
ENDBRANCH  19  20
ENDBRANCH  17  19
ENDBRANCH  13   7
TORSDOF 7
ENDMDL
MODEL 2
REMARK VINA RESULT:      -6.5      4.359      7.759
REMARK  Name = 11913297
REMARK  7 active torsions:
REMARK  status: ('A' for Active; 'I' for Inactive)
REMARK    1  A    between atoms: O_5  and  C_24
REMARK    2  A    between atoms: N_7  and  C_13
REMARK    3  A    between atoms: N_8  and  C_14
REMARK    4  A    between atoms: C_17  and  C_19
REMARK    5  A    between atoms: C_19  and  C_20
REMARK    6  A    between atoms: C_20  and  C_24
REMARK    7  A    between atoms: C_21  and  C_25
REMARK                            x       y       z     vdW  Elec       q    Type
REMARK                         _______ _______ _______ _____ _____    ______ ____
ROOT
ATOM      1  O   UNL     1     -12.237  -7.877  14.347  0.00  0.00    -0.370 OA
ATOM      2  O   UNL     1     -11.080  -6.241  16.741  0.00  0.00    -0.370 OA
ATOM     11  C   UNL     1     -10.933  -6.137  15.315  0.00  0.00    +0.171 C 
ATOM     12  C   UNL     1     -10.899  -7.547  14.760  0.00  0.00    +0.171 C 
ATOM     13  C   UNL     1     -12.174  -5.530  14.702  0.00  0.00    +0.130 C 
ATOM     14  C   UNL     1     -10.490  -8.399  15.940  0.00  0.00    +0.130 C 
ATOM     15  C   UNL     1     -13.084  -6.736  14.551  0.00  0.00    +0.185 C 
ATOM     16  C   UNL     1     -11.053  -7.626  17.118  0.00  0.00    +0.185 C 
ENDROOT
BRANCH  14   8
ATOM      8  N   UNL     1      -9.048  -8.464  16.026  0.00  0.00    -0.306 N 
ATOM      9  N   UNL     1      -9.112 -10.140  17.668  0.00  0.00    -0.211 NA
ATOM     10  N   UNL     1      -7.012  -9.282  16.857  0.00  0.00    -0.223 NA
ATOM     18  C   UNL     1      -8.371  -9.320  16.876  0.00  0.00    +0.216 A 
ATOM     21  C   UNL     1      -8.419 -10.961  18.484  0.00  0.00    +0.111 A 
ATOM     22  C   UNL     1      -6.383 -10.130  17.697  0.00  0.00    +0.116 A 
ATOM     23  C   UNL     1      -7.041 -11.001  18.541  0.00  0.00    +0.051 A 
ATOM     30  H   UNL     1      -8.486  -7.897  15.402  0.00  0.00    +0.149 HD
BRANCH  21  25
ATOM      4  O   UNL     1     -10.416 -11.283  19.704  0.00  0.00    -0.461 OA
ATOM     25  C   UNL     1      -9.231 -11.814  19.310  0.00  0.00    +0.153 A 
ATOM     26  C   UNL     1      -9.076 -13.083  19.811  0.00  0.00    +0.051 A 
ATOM     27  C   UNL     1     -10.244 -13.353  20.562  0.00  0.00    +0.042 A 
ATOM     28  C   UNL     1     -11.028 -12.227  20.466  0.00  0.00    +0.196 A 
ENDBRANCH  21  25
ENDBRANCH  14   8
BRANCH  13   7
ATOM      3  O   UNL     1     -13.715  -3.500  13.331  0.00  0.00    -0.276 OA
ATOM      7  N   UNL     1     -11.885  -4.930  13.422  0.00  0.00    -0.308 N 
ATOM     17  C   UNL     1     -12.687  -3.957  12.840  0.00  0.00    +0.214 C 
ATOM     29  H   UNL     1     -11.083  -5.276  12.902  0.00  0.00    +0.149 HD
BRANCH  17  19
ATOM     19  C   UNL     1     -12.140  -3.511  11.495  0.00  0.00    +0.107 C 
BRANCH  19  20
ATOM     20  C   UNL     1     -11.932  -4.676  10.533  0.00  0.00    +0.129 C 
BRANCH  20  24
ATOM      6  O   UNL     1     -10.202  -5.188   8.901  0.00  0.00    -0.251 OA
ATOM     24  C   UNL     1     -10.893  -4.364   9.483  0.00  0.00    +0.305 C 
BRANCH  24   5
ATOM      5  O   UNL     1     -10.809  -3.027   9.252  0.00  0.00    -0.481 OA
ATOM     31  H   UNL     1     -10.674  -2.830   8.300  0.00  0.00    +0.295 HD
ENDBRANCH  24   5
ENDBRANCH  20  24
ENDBRANCH  19  20
ENDBRANCH  17  19
ENDBRANCH  13   7
TORSDOF 7
ENDMDL
MODEL 3
REMARK VINA RESULT:      -6.5      4.257      9.407
REMARK  Name = 11913297
REMARK  7 active torsions:
REMARK  status: ('A' for Active; 'I' for Inactive)
REMARK    1  A    between atoms: O_5  and  C_24
REMARK    2  A    between atoms: N_7  and  C_13
REMARK    3  A    between atoms: N_8  and  C_14
REMARK    4  A    between atoms: C_17  and  C_19
REMARK    5  A    between atoms: C_19  and  C_20
REMARK    6  A    between atoms: C_20  and  C_24
REMARK    7  A    between atoms: C_21  and  C_25
REMARK                            x       y       z     vdW  Elec       q    Type
REMARK                         _______ _______ _______ _____ _____    ______ ____
ROOT
ATOM      1  O   UNL     1      -6.150 -11.523  10.183  0.00  0.00    -0.370 OA
ATOM      2  O   UNL     1      -4.417  -8.935   9.974  0.00  0.00    -0.370 OA
ATOM     11  C   UNL     1      -4.274 -10.262   9.440  0.00  0.00    +0.171 C 
ATOM     12  C   UNL     1      -4.777 -11.230  10.493  0.00  0.00    +0.171 C 
ATOM     13  C   UNL     1      -5.215 -10.463   8.275  0.00  0.00    +0.130 C 
ATOM     14  C   UNL     1      -4.686 -10.450  11.784  0.00  0.00    +0.130 C 
ATOM     15  C   UNL     1      -6.510 -10.849   8.967  0.00  0.00    +0.185 C 
ATOM     16  C   UNL     1      -4.896  -9.019  11.325  0.00  0.00    +0.185 C 
ENDROOT
BRANCH  14   8
ATOM      8  N   UNL     1      -3.369 -10.603  12.363  0.00  0.00    -0.306 N 
ATOM      9  N   UNL     1      -4.198 -10.493  14.555  0.00  0.00    -0.211 NA
ATOM     10  N   UNL     1      -1.842 -10.775  14.135  0.00  0.00    -0.223 NA
ATOM     18  C   UNL     1      -3.129 -10.624  13.725  0.00  0.00    +0.216 A 
ATOM     21  C   UNL     1      -3.927 -10.518  15.877  0.00  0.00    +0.111 A 
ATOM     22  C   UNL     1      -1.644 -10.792  15.470  0.00  0.00    +0.116 A 
ATOM     23  C   UNL     1      -2.658 -10.667  16.397  0.00  0.00    +0.051 A 
ATOM     30  H   UNL     1      -2.573 -10.755  11.754  0.00  0.00    +0.149 HD
BRANCH  21  25
ATOM      4  O   UNL     1      -6.102  -9.658  16.206  0.00  0.00    -0.461 OA
ATOM     25  C   UNL     1      -5.077 -10.376  16.729  0.00  0.00    +0.153 A 
ATOM     26  C   UNL     1      -5.385 -10.813  17.994  0.00  0.00    +0.051 A 
ATOM     27  C   UNL     1      -6.688 -10.333  18.267  0.00  0.00    +0.042 A 
ATOM     28  C   UNL     1      -7.081  -9.636  17.149  0.00  0.00    +0.196 A 
ENDBRANCH  21  25
ENDBRANCH  14   8
BRANCH  13   7
ATOM      3  O   UNL     1      -5.600 -10.672   5.414  0.00  0.00    -0.276 OA
ATOM      7  N   UNL     1      -4.753 -11.519   7.406  0.00  0.00    -0.308 N 
ATOM     17  C   UNL     1      -4.986 -11.533   6.037  0.00  0.00    +0.214 C 
ATOM     29  H   UNL     1      -4.278 -12.312   7.828  0.00  0.00    +0.149 HD
BRANCH  17  19
ATOM     19  C   UNL     1      -4.386 -12.763   5.379  0.00  0.00    +0.107 C 
BRANCH  19  20
ATOM     20  C   UNL     1      -3.123 -12.444   4.586  0.00  0.00    +0.129 C 
BRANCH  20  24
ATOM      6  O   UNL     1      -4.430 -12.755   2.557  0.00  0.00    -0.251 OA
ATOM     24  C   UNL     1      -3.362 -12.497   3.096  0.00  0.00    +0.305 C 
BRANCH  24   5
ATOM      5  O   UNL     1      -2.228 -12.216   2.402  0.00  0.00    -0.481 OA
ATOM     31  H   UNL     1      -1.883 -11.322   2.612  0.00  0.00    +0.295 HD
ENDBRANCH  24   5
ENDBRANCH  20  24
ENDBRANCH  19  20
ENDBRANCH  17  19
ENDBRANCH  13   7
TORSDOF 7
ENDMDL
MODEL 4
REMARK VINA RESULT:      -6.4     26.145     28.864
REMARK  Name = 11913297
REMARK  7 active torsions:
REMARK  status: ('A' for Active; 'I' for Inactive)
REMARK    1  A    between atoms: O_5  and  C_24
REMARK    2  A    between atoms: N_7  and  C_13
REMARK    3  A    between atoms: N_8  and  C_14
REMARK    4  A    between atoms: C_17  and  C_19
REMARK    5  A    between atoms: C_19  and  C_20
REMARK    6  A    between atoms: C_20  and  C_24
REMARK    7  A    between atoms: C_21  and  C_25
REMARK                            x       y       z     vdW  Elec       q    Type
REMARK                         _______ _______ _______ _____ _____    ______ ____
ROOT
ATOM      1  O   UNL     1      14.621  11.078  16.896  0.00  0.00    -0.370 OA
ATOM      2  O   UNL     1      13.645   8.534  15.373  0.00  0.00    -0.370 OA
ATOM     11  C   UNL     1      13.075   9.838  15.579  0.00  0.00    +0.171 C 
ATOM     12  C   UNL     1      13.434  10.270  16.987  0.00  0.00    +0.171 C 
ATOM     13  C   UNL     1      13.758  10.855  14.695  0.00  0.00    +0.130 C 
ATOM     14  C   UNL     1      13.735   8.975  17.706  0.00  0.00    +0.130 C 
ATOM     15  C   UNL     1      14.982  11.227  15.515  0.00  0.00    +0.185 C 
ATOM     16  C   UNL     1      14.263   8.091  16.591  0.00  0.00    +0.185 C 
ENDROOT
BRANCH  14   8
ATOM      8  N   UNL     1      12.518   8.419  18.254  0.00  0.00    -0.306 N 
ATOM      9  N   UNL     1      12.921   9.339  20.374  0.00  0.00    -0.211 NA
ATOM     10  N   UNL     1      10.949   8.021  19.952  0.00  0.00    -0.223 NA
ATOM     18  C   UNL     1      12.118   8.598  19.566  0.00  0.00    +0.216 A 
ATOM     21  C   UNL     1      12.500   9.493  21.647  0.00  0.00    +0.111 A 
ATOM     22  C   UNL     1      10.588   8.216  21.237  0.00  0.00    +0.116 A 
ATOM     23  C   UNL     1      11.331   8.950  22.139  0.00  0.00    +0.051 A 
ATOM     30  H   UNL     1      11.886   7.910  17.646  0.00  0.00    +0.149 HD
BRANCH  21  25
ATOM      4  O   UNL     1      12.770  11.290  23.157  0.00  0.00    -0.461 OA
ATOM     25  C   UNL     1      13.371  10.281  22.478  0.00  0.00    +0.153 A 
ATOM     26  C   UNL     1      14.717  10.246  22.749  0.00  0.00    +0.051 A 
ATOM     27  C   UNL     1      14.961  11.304  23.657  0.00  0.00    +0.042 A 
ATOM     28  C   UNL     1      13.745  11.909  23.873  0.00  0.00    +0.196 A 
ENDBRANCH  21  25
ENDBRANCH  14   8
BRANCH  13   7
ATOM      3  O   UNL     1      12.818  11.863  12.151  0.00  0.00    -0.276 OA
ATOM      7  N   UNL     1      12.913  12.002  14.469  0.00  0.00    -0.308 N 
ATOM     17  C   UNL     1      12.510  12.412  13.205  0.00  0.00    +0.214 C 
ATOM     29  H   UNL     1      12.644  12.563  15.272  0.00  0.00    +0.149 HD
BRANCH  17  19
ATOM     19  C   UNL     1      11.628  13.646  13.270  0.00  0.00    +0.107 C 
BRANCH  19  20
ATOM     20  C   UNL     1      10.299  13.454  12.545  0.00  0.00    +0.129 C 
BRANCH  20  24
ATOM      6  O   UNL     1       8.621  14.794  13.690  0.00  0.00    -0.251 OA
ATOM     24  C   UNL     1       9.119  13.702  13.454  0.00  0.00    +0.305 C 
BRANCH  24   5
ATOM      5  O   UNL     1       8.660  12.543  13.997  0.00  0.00    -0.481 OA
ATOM     31  H   UNL     1       7.986  12.115  13.426  0.00  0.00    +0.295 HD
ENDBRANCH  24   5
ENDBRANCH  20  24
ENDBRANCH  19  20
ENDBRANCH  17  19
ENDBRANCH  13   7
TORSDOF 7
ENDMDL
MODEL 5
REMARK VINA RESULT:      -6.4     18.591     20.665
REMARK  Name = 11913297
REMARK  7 active torsions:
REMARK  status: ('A' for Active; 'I' for Inactive)
REMARK    1  A    between atoms: O_5  and  C_24
REMARK    2  A    between atoms: N_7  and  C_13
REMARK    3  A    between atoms: N_8  and  C_14
REMARK    4  A    between atoms: C_17  and  C_19
REMARK    5  A    between atoms: C_19  and  C_20
REMARK    6  A    between atoms: C_20  and  C_24
REMARK    7  A    between atoms: C_21  and  C_25
REMARK                            x       y       z     vdW  Elec       q    Type
REMARK                         _______ _______ _______ _____ _____    ______ ____
ROOT
ATOM      1  O   UNL     1     -17.156   4.738  25.569  0.00  0.00    -0.370 OA
ATOM      2  O   UNL     1     -16.597   2.099  23.999  0.00  0.00    -0.370 OA
ATOM     11  C   UNL     1     -15.987   2.709  25.149  0.00  0.00    +0.171 C 
ATOM     12  C   UNL     1     -15.989   4.207  24.919  0.00  0.00    +0.171 C 
ATOM     13  C   UNL     1     -16.860   2.522  26.368  0.00  0.00    +0.130 C 
ATOM     14  C   UNL     1     -16.112   4.351  23.420  0.00  0.00    +0.130 C 
ATOM     15  C   UNL     1     -17.844   3.672  26.242  0.00  0.00    +0.185 C 
ATOM     16  C   UNL     1     -16.901   3.114  23.031  0.00  0.00    +0.185 C 
ENDROOT
BRANCH  14   8
ATOM      8  N   UNL     1     -14.801   4.322  22.811  0.00  0.00    -0.306 N 
ATOM      9  N   UNL     1     -14.841   6.622  22.350  0.00  0.00    -0.211 NA
ATOM     10  N   UNL     1     -12.941   5.271  21.742  0.00  0.00    -0.223 NA
ATOM     18  C   UNL     1     -14.176   5.438  22.285  0.00  0.00    +0.216 A 
ATOM     21  C   UNL     1     -14.202   7.690  21.827  0.00  0.00    +0.111 A 
ATOM     22  C   UNL     1     -12.360   6.380  21.239  0.00  0.00    +0.116 A 
ATOM     23  C   UNL     1     -12.948   7.628  21.254  0.00  0.00    +0.051 A 
ATOM     30  H   UNL     1     -14.273   3.456  22.805  0.00  0.00    +0.149 HD
BRANCH  21  25
ATOM      4  O   UNL     1     -14.251   9.967  22.455  0.00  0.00    -0.461 OA
ATOM     25  C   UNL     1     -14.931   8.927  21.910  0.00  0.00    +0.153 A 
ATOM     26  C   UNL     1     -16.201   9.310  21.554  0.00  0.00    +0.051 A 
ATOM     27  C   UNL     1     -16.309  10.677  21.902  0.00  0.00    +0.042 A 
ATOM     28  C   UNL     1     -15.097  11.030  22.446  0.00  0.00    +0.196 A 
ENDBRANCH  21  25
ENDBRANCH  14   8
BRANCH  13   7
ATOM      3  O   UNL     1     -16.731   0.600  28.528  0.00  0.00    -0.276 OA
ATOM      7  N   UNL     1     -16.090   2.625  27.584  0.00  0.00    -0.308 N 
ATOM     17  C   UNL     1     -16.090   1.646  28.569  0.00  0.00    +0.214 C 
ATOM     29  H   UNL     1     -15.563   3.479  27.745  0.00  0.00    +0.149 HD
BRANCH  17  19
ATOM     19  C   UNL     1     -15.190   2.023  29.733  0.00  0.00    +0.107 C 
BRANCH  19  20
ATOM     20  C   UNL     1     -15.206   0.979  30.845  0.00  0.00    +0.129 C 
BRANCH  20  24
ATOM      6  O   UNL     1     -13.310  -0.342  30.082  0.00  0.00    -0.251 OA
ATOM     24  C   UNL     1     -14.476  -0.282  30.448  0.00  0.00    +0.305 C 
BRANCH  24   5
ATOM      5  O   UNL     1     -15.281  -1.372  30.545  0.00  0.00    -0.481 OA
ATOM     31  H   UNL     1     -14.923  -2.035  31.174  0.00  0.00    +0.295 HD
ENDBRANCH  24   5
ENDBRANCH  20  24
ENDBRANCH  19  20
ENDBRANCH  17  19
ENDBRANCH  13   7
TORSDOF 7
ENDMDL
MODEL 6
REMARK VINA RESULT:      -6.3     25.136     29.113
REMARK  Name = 11913297
REMARK  7 active torsions:
REMARK  status: ('A' for Active; 'I' for Inactive)
REMARK    1  A    between atoms: O_5  and  C_24
REMARK    2  A    between atoms: N_7  and  C_13
REMARK    3  A    between atoms: N_8  and  C_14
REMARK    4  A    between atoms: C_17  and  C_19
REMARK    5  A    between atoms: C_19  and  C_20
REMARK    6  A    between atoms: C_20  and  C_24
REMARK    7  A    between atoms: C_21  and  C_25
REMARK                            x       y       z     vdW  Elec       q    Type
REMARK                         _______ _______ _______ _____ _____    ______ ____
ROOT
ATOM      1  O   UNL     1      13.860   8.895   3.587  0.00  0.00    -0.370 OA
ATOM      2  O   UNL     1      16.117   7.774   5.429  0.00  0.00    -0.370 OA
ATOM     11  C   UNL     1      15.282   7.179   4.421  0.00  0.00    +0.171 C 
ATOM     12  C   UNL     1      13.911   7.816   4.536  0.00  0.00    +0.171 C 
ATOM     13  C   UNL     1      15.759   7.577   3.043  0.00  0.00    +0.130 C 
ATOM     14  C   UNL     1      13.872   8.356   5.946  0.00  0.00    +0.130 C 
ATOM     15  C   UNL     1      15.089   8.926   2.845  0.00  0.00    +0.185 C 
ATOM     16  C   UNL     1      15.330   8.677   6.220  0.00  0.00    +0.185 C 
ENDROOT
BRANCH  14   8
ATOM      8  N   UNL     1      13.405   7.333   6.855  0.00  0.00    -0.306 N 
ATOM      9  N   UNL     1      11.166   7.637   6.222  0.00  0.00    -0.211 NA
ATOM     10  N   UNL     1      11.771   5.999   7.882  0.00  0.00    -0.223 NA
ATOM     18  C   UNL     1      12.074   6.979   6.991  0.00  0.00    +0.216 A 
ATOM     21  C   UNL     1       9.878   7.265   6.380  0.00  0.00    +0.111 A 
ATOM     22  C   UNL     1      10.465   5.677   7.989  0.00  0.00    +0.116 A 
ATOM     23  C   UNL     1       9.465   6.283   7.256  0.00  0.00    +0.051 A 
ATOM     30  H   UNL     1      14.078   6.800   7.394  0.00  0.00    +0.149 HD
BRANCH  21  25
ATOM      4  O   UNL     1       8.709   9.266   5.918  0.00  0.00    -0.461 OA
ATOM     25  C   UNL     1       8.941   7.979   5.554  0.00  0.00    +0.153 A 
ATOM     26  C   UNL     1       8.200   7.646   4.447  0.00  0.00    +0.051 A 
ATOM     27  C   UNL     1       7.465   8.805   4.105  0.00  0.00    +0.042 A 
ATOM     28  C   UNL     1       7.809   9.763   5.030  0.00  0.00    +0.196 A 
ENDBRANCH  21  25
ENDBRANCH  14   8
BRANCH  13   7
ATOM      3  O   UNL     1      16.973   7.070   0.466  0.00  0.00    -0.276 OA
ATOM      7  N   UNL     1      15.326   6.628   2.046  0.00  0.00    -0.308 N 
ATOM     17  C   UNL     1      15.976   6.453   0.831  0.00  0.00    +0.214 C 
ATOM     29  H   UNL     1      14.476   6.101   2.225  0.00  0.00    +0.149 HD
BRANCH  17  19
ATOM     19  C   UNL     1      15.300   5.390  -0.017  0.00  0.00    +0.107 C 
BRANCH  19  20
ATOM     20  C   UNL     1      15.718   3.976   0.375  0.00  0.00    +0.129 C 
BRANCH  20  24
ATOM      6  O   UNL     1      13.778   3.030   1.499  0.00  0.00    -0.251 OA
ATOM     24  C   UNL     1      14.923   3.458   1.550  0.00  0.00    +0.305 C 
BRANCH  24   5
ATOM      5  O   UNL     1      15.641   3.522   2.702  0.00  0.00    -0.481 OA
ATOM     31  H   UNL     1      15.081   3.362   3.491  0.00  0.00    +0.295 HD
ENDBRANCH  24   5
ENDBRANCH  20  24
ENDBRANCH  19  20
ENDBRANCH  17  19
ENDBRANCH  13   7
TORSDOF 7
ENDMDL
MODEL 7
REMARK VINA RESULT:      -6.3      3.863      6.822
REMARK  Name = 11913297
REMARK  7 active torsions:
REMARK  status: ('A' for Active; 'I' for Inactive)
REMARK    1  A    between atoms: O_5  and  C_24
REMARK    2  A    between atoms: N_7  and  C_13
REMARK    3  A    between atoms: N_8  and  C_14
REMARK    4  A    between atoms: C_17  and  C_19
REMARK    5  A    between atoms: C_19  and  C_20
REMARK    6  A    between atoms: C_20  and  C_24
REMARK    7  A    between atoms: C_21  and  C_25
REMARK                            x       y       z     vdW  Elec       q    Type
REMARK                         _______ _______ _______ _____ _____    ______ ____
ROOT
ATOM      1  O   UNL     1      -2.847 -12.910  12.787  0.00  0.00    -0.370 OA
ATOM      2  O   UNL     1      -1.847  -9.992  13.259  0.00  0.00    -0.370 OA
ATOM     11  C   UNL     1      -2.883 -10.787  13.859  0.00  0.00    +0.171 C 
ATOM     12  C   UNL     1      -3.500 -11.630  12.761  0.00  0.00    +0.171 C 
ATOM     13  C   UNL     1      -2.284 -11.800  14.808  0.00  0.00    +0.130 C 
ATOM     14  C   UNL     1      -3.154 -10.890  11.490  0.00  0.00    +0.130 C 
ATOM     15  C   UNL     1      -1.910 -12.937  13.873  0.00  0.00    +0.185 C 
ATOM     16  C   UNL     1      -1.838 -10.221  11.842  0.00  0.00    +0.185 C 
ENDROOT
BRANCH  14   8
ATOM      8  N   UNL     1      -4.163  -9.893  11.207  0.00  0.00    -0.306 N 
ATOM      9  N   UNL     1      -4.455 -10.652   9.006  0.00  0.00    -0.211 NA
ATOM     10  N   UNL     1      -5.733  -8.795   9.854  0.00  0.00    -0.223 NA
ATOM     18  C   UNL     1      -4.802  -9.776   9.986  0.00  0.00    +0.216 A 
ATOM     21  C   UNL     1      -5.098 -10.510   7.828  0.00  0.00    +0.111 A 
ATOM     22  C   UNL     1      -6.338  -8.709   8.651  0.00  0.00    +0.116 A 
ATOM     23  C   UNL     1      -6.059  -9.548   7.591  0.00  0.00    +0.051 A 
ATOM     30  H   UNL     1      -4.468  -9.270  11.946  0.00  0.00    +0.149 HD
BRANCH  21  25
ATOM      4  O   UNL     1      -5.045 -11.106   5.543  0.00  0.00    -0.461 OA
ATOM     25  C   UNL     1      -4.708 -11.449   6.812  0.00  0.00    +0.153 A 
ATOM     26  C   UNL     1      -4.053 -12.657   6.831  0.00  0.00    +0.051 A 
ATOM     27  C   UNL     1      -3.981 -13.084   5.484  0.00  0.00    +0.042 A 
ATOM     28  C   UNL     1      -4.598 -12.106   4.740  0.00  0.00    +0.196 A 
ENDBRANCH  21  25
ENDBRANCH  14   8
BRANCH  13   7
ATOM      3  O   UNL     1      -3.629 -10.155  16.772  0.00  0.00    -0.276 OA
ATOM      7  N   UNL     1      -3.247 -12.228  15.793  0.00  0.00    -0.308 N 
ATOM     17  C   UNL     1      -3.845 -11.361  16.698  0.00  0.00    +0.214 C 
ATOM     29  H   UNL     1      -3.458 -13.220  15.855  0.00  0.00    +0.149 HD
BRANCH  17  19
ATOM     19  C   UNL     1      -4.815 -12.088  17.613  0.00  0.00    +0.107 C 
BRANCH  19  20
ATOM     20  C   UNL     1      -4.946 -11.418  18.977  0.00  0.00    +0.129 C 
BRANCH  20  24
ATOM      6  O   UNL     1      -7.109 -12.439  19.420  0.00  0.00    -0.251 OA
ATOM     24  C   UNL     1      -6.361 -11.475  19.501  0.00  0.00    +0.305 C 
BRANCH  24   5
ATOM      5  O   UNL     1      -6.719 -10.303  20.090  0.00  0.00    -0.481 OA
ATOM     31  H   UNL     1      -6.468  -9.529  19.542  0.00  0.00    +0.295 HD
ENDBRANCH  24   5
ENDBRANCH  20  24
ENDBRANCH  19  20
ENDBRANCH  17  19
ENDBRANCH  13   7
TORSDOF 7
ENDMDL
MODEL 8
REMARK VINA RESULT:      -6.2     24.470     27.755
REMARK  Name = 11913297
REMARK  7 active torsions:
REMARK  status: ('A' for Active; 'I' for Inactive)
REMARK    1  A    between atoms: O_5  and  C_24
REMARK    2  A    between atoms: N_7  and  C_13
REMARK    3  A    between atoms: N_8  and  C_14
REMARK    4  A    between atoms: C_17  and  C_19
REMARK    5  A    between atoms: C_19  and  C_20
REMARK    6  A    between atoms: C_20  and  C_24
REMARK    7  A    between atoms: C_21  and  C_25
REMARK                            x       y       z     vdW  Elec       q    Type
REMARK                         _______ _______ _______ _____ _____    ______ ____
ROOT
ATOM      1  O   UNL     1      12.008   7.520   2.348  0.00  0.00    -0.370 OA
ATOM      2  O   UNL     1       9.027   7.906   1.509  0.00  0.00    -0.370 OA
ATOM     11  C   UNL     1       9.689   6.991   2.398  0.00  0.00    +0.171 C 
ATOM     12  C   UNL     1      11.026   6.642   1.773  0.00  0.00    +0.171 C 
ATOM     13  C   UNL     1      10.056   7.686   3.689  0.00  0.00    +0.130 C 
ATOM     14  C   UNL     1      10.840   6.952   0.306  0.00  0.00    +0.130 C 
ATOM     15  C   UNL     1      11.377   8.347   3.337  0.00  0.00    +0.185 C 
ATOM     16  C   UNL     1       9.828   8.083   0.330  0.00  0.00    +0.185 C 
ENDROOT
BRANCH  14   8
ATOM      8  N   UNL     1      10.291   5.802  -0.377  0.00  0.00    -0.306 N 
ATOM      9  N   UNL     1      12.414   5.014  -0.993  0.00  0.00    -0.211 NA
ATOM     10  N   UNL     1      10.420   3.815  -1.619  0.00  0.00    -0.223 NA
ATOM     18  C   UNL     1      11.064   4.849  -1.015  0.00  0.00    +0.216 A 
ATOM     21  C   UNL     1      13.137   4.066  -1.625  0.00  0.00    +0.111 A 
ATOM     22  C   UNL     1      11.204   2.904  -2.231  0.00  0.00    +0.116 A 
ATOM     23  C   UNL     1      12.581   2.979  -2.267  0.00  0.00    +0.051 A 
ATOM     30  H   UNL     1       9.290   5.640  -0.354  0.00  0.00    +0.149 HD
BRANCH  21  25
ATOM      4  O   UNL     1      15.121   4.680  -2.750  0.00  0.00    -0.461 OA
ATOM     25  C   UNL     1      14.560   4.269  -1.585  0.00  0.00    +0.153 A 
ATOM     26  C   UNL     1      15.514   4.136  -0.606  0.00  0.00    +0.051 A 
ATOM     27  C   UNL     1      16.744   4.490  -1.208  0.00  0.00    +0.042 A 
ATOM     28  C   UNL     1      16.453   4.813  -2.512  0.00  0.00    +0.196 A 
ENDBRANCH  21  25
ENDBRANCH  14   8
BRANCH  13   7
ATOM      3  O   UNL     1       7.968   6.502   5.306  0.00  0.00    -0.276 OA
ATOM      7  N   UNL     1      10.217   6.738   4.765  0.00  0.00    -0.308 N 
ATOM     17  C   UNL     1       9.150   6.221   5.488  0.00  0.00    +0.214 C 
ATOM     29  H   UNL     1      11.160   6.477   5.035  0.00  0.00    +0.149 HD
BRANCH  17  19
ATOM     19  C   UNL     1       9.616   5.248   6.557  0.00  0.00    +0.107 C 
BRANCH  19  20
ATOM     20  C   UNL     1       9.374   5.773   7.969  0.00  0.00    +0.129 C 
BRANCH  20  24
ATOM      6  O   UNL     1       8.995   4.651  10.095  0.00  0.00    -0.251 OA
ATOM     24  C   UNL     1       9.560   4.696   9.011  0.00  0.00    +0.305 C 
BRANCH  24   5
ATOM      5  O   UNL     1      10.451   3.755   8.598  0.00  0.00    -0.481 OA
ATOM     31  H   UNL     1      10.342   2.911   9.086  0.00  0.00    +0.295 HD
ENDBRANCH  24   5
ENDBRANCH  20  24
ENDBRANCH  19  20
ENDBRANCH  17  19
ENDBRANCH  13   7
TORSDOF 7
ENDMDL
MODEL 9
REMARK VINA RESULT:      -6.1     18.322     20.360
REMARK  Name = 11913297
REMARK  7 active torsions:
REMARK  status: ('A' for Active; 'I' for Inactive)
REMARK    1  A    between atoms: O_5  and  C_24
REMARK    2  A    between atoms: N_7  and  C_13
REMARK    3  A    between atoms: N_8  and  C_14
REMARK    4  A    between atoms: C_17  and  C_19
REMARK    5  A    between atoms: C_19  and  C_20
REMARK    6  A    between atoms: C_20  and  C_24
REMARK    7  A    between atoms: C_21  and  C_25
REMARK                            x       y       z     vdW  Elec       q    Type
REMARK                         _______ _______ _______ _____ _____    ______ ____
ROOT
ATOM      1  O   UNL     1     -15.055   7.672  22.356  0.00  0.00    -0.370 OA
ATOM      2  O   UNL     1     -13.286   5.103  22.462  0.00  0.00    -0.370 OA
ATOM     11  C   UNL     1     -13.856   5.862  21.383  0.00  0.00    +0.171 C 
ATOM     12  C   UNL     1     -15.220   6.341  21.838  0.00  0.00    +0.171 C 
ATOM     13  C   UNL     1     -13.072   7.137  21.166  0.00  0.00    +0.130 C 
ATOM     14  C   UNL     1     -15.593   5.388  22.950  0.00  0.00    +0.130 C 
ATOM     15  C   UNL     1     -13.687   8.073  22.191  0.00  0.00    +0.185 C 
ATOM     16  C   UNL     1     -14.243   5.005  23.528  0.00  0.00    +0.185 C 
ENDROOT
BRANCH  14   8
ATOM      8  N   UNL     1     -16.253   4.223  22.404  0.00  0.00    -0.306 N 
ATOM      9  N   UNL     1     -16.469   3.218  24.513  0.00  0.00    -0.211 NA
ATOM     10  N   UNL     1     -17.291   2.123  22.530  0.00  0.00    -0.223 NA
ATOM     18  C   UNL     1     -16.684   3.156  23.172  0.00  0.00    +0.216 A 
ATOM     21  C   UNL     1     -16.902   2.160  25.231  0.00  0.00    +0.111 A 
ATOM     22  C   UNL     1     -17.700   1.100  23.309  0.00  0.00    +0.116 A 
ATOM     23  C   UNL     1     -17.530   1.064  24.678  0.00  0.00    +0.051 A 
ATOM     30  H   UNL     1     -16.466   4.191  21.413  0.00  0.00    +0.149 HD
BRANCH  21  25
ATOM      4  O   UNL     1     -16.053   3.397  27.056  0.00  0.00    -0.461 OA
ATOM     25  C   UNL     1     -16.659   2.255  26.646  0.00  0.00    +0.153 A 
ATOM     26  C   UNL     1     -16.907   1.425  27.712  0.00  0.00    +0.051 A 
ATOM     27  C   UNL     1     -16.422   2.103  28.855  0.00  0.00    +0.042 A 
ATOM     28  C   UNL     1     -15.912   3.297  28.404  0.00  0.00    +0.196 A 
ENDBRANCH  21  25
ENDBRANCH  14   8
BRANCH  13   7
ATOM      3  O   UNL     1     -11.190   6.984  18.973  0.00  0.00    -0.276 OA
ATOM      7  N   UNL     1     -13.251   7.638  19.825  0.00  0.00    -0.308 N 
ATOM     17  C   UNL     1     -12.287   7.518  18.833  0.00  0.00    +0.214 C 
ATOM     29  H   UNL     1     -14.105   8.148  19.616  0.00  0.00    +0.149 HD
BRANCH  17  19
ATOM     19  C   UNL     1     -12.748   8.137  17.526  0.00  0.00    +0.107 C 
BRANCH  19  20
ATOM     20  C   UNL     1     -11.744   9.141  16.969  0.00  0.00    +0.129 C 
BRANCH  20  24
ATOM      6  O   UNL     1     -10.877   8.981  14.700  0.00  0.00    -0.251 OA
ATOM     24  C   UNL     1     -10.921   8.555  15.846  0.00  0.00    +0.305 C 
BRANCH  24   5
ATOM      5  O   UNL     1     -10.216   7.470  16.263  0.00  0.00    -0.481 OA
ATOM     31  H   UNL     1     -10.275   7.347  17.234  0.00  0.00    +0.295 HD
ENDBRANCH  24   5
ENDBRANCH  20  24
ENDBRANCH  19  20
ENDBRANCH  17  19
ENDBRANCH  13   7
TORSDOF 7
ENDMDL
MODEL 10
REMARK VINA RESULT:      -6.1     27.535     29.823
REMARK  Name = 11913297
REMARK  7 active torsions:
REMARK  status: ('A' for Active; 'I' for Inactive)
REMARK    1  A    between atoms: O_5  and  C_24
REMARK    2  A    between atoms: N_7  and  C_13
REMARK    3  A    between atoms: N_8  and  C_14
REMARK    4  A    between atoms: C_17  and  C_19
REMARK    5  A    between atoms: C_19  and  C_20
REMARK    6  A    between atoms: C_20  and  C_24
REMARK    7  A    between atoms: C_21  and  C_25
REMARK                            x       y       z     vdW  Elec       q    Type
REMARK                         _______ _______ _______ _____ _____    ______ ____
ROOT
ATOM      1  O   UNL     1      -4.362  12.895  31.917  0.00  0.00    -0.370 OA
ATOM      2  O   UNL     1      -4.525  14.416  34.637  0.00  0.00    -0.370 OA
ATOM     11  C   UNL     1      -3.514  13.596  34.026  0.00  0.00    +0.171 C 
ATOM     12  C   UNL     1      -4.224  12.480  33.287  0.00  0.00    +0.171 C 
ATOM     13  C   UNL     1      -2.802  14.365  32.937  0.00  0.00    +0.130 C 
ATOM     14  C   UNL     1      -5.580  12.402  33.950  0.00  0.00    +0.130 C 
ATOM     15  C   UNL     1      -3.724  14.170  31.747  0.00  0.00    +0.185 C 
ATOM     16  C   UNL     1      -5.815  13.833  34.398  0.00  0.00    +0.185 C 
ENDROOT
BRANCH  14   8
ATOM      8  N   UNL     1      -5.521  11.521  35.095  0.00  0.00    -0.306 N 
ATOM      9  N   UNL     1      -7.687  10.701  34.716  0.00  0.00    -0.211 NA
ATOM     10  N   UNL     1      -6.369   9.906  36.570  0.00  0.00    -0.223 NA
ATOM     18  C   UNL     1      -6.556  10.685  35.472  0.00  0.00    +0.216 A 
ATOM     21  C   UNL     1      -8.676   9.873  35.113  0.00  0.00    +0.111 A 
ATOM     22  C   UNL     1      -7.398   9.102  36.910  0.00  0.00    +0.116 A 
ATOM     23  C   UNL     1      -8.586   9.043  36.211  0.00  0.00    +0.051 A 
ATOM     30  H   UNL     1      -4.664  11.462  35.634  0.00  0.00    +0.149 HD
BRANCH  21  25
ATOM      4  O   UNL     1     -11.009  10.203  34.952  0.00  0.00    -0.461 OA
ATOM     25  C   UNL     1      -9.858   9.913  34.295  0.00  0.00    +0.153 A 
ATOM     26  C   UNL     1     -10.098   9.718  32.956  0.00  0.00    +0.051 A 
ATOM     27  C   UNL     1     -11.489   9.900  32.778  0.00  0.00    +0.042 A 
ATOM     28  C   UNL     1     -11.999  10.193  34.021  0.00  0.00    +0.196 A 
ENDBRANCH  21  25
ENDBRANCH  14   8
BRANCH  13   7
ATOM      3  O   UNL     1      -0.401  14.756  34.504  0.00  0.00    -0.276 OA
ATOM      7  N   UNL     1      -1.493  13.816  32.680  0.00  0.00    -0.308 N 
ATOM     17  C   UNL     1      -0.394  14.059  33.493  0.00  0.00    +0.214 C 
ATOM     29  H   UNL     1      -1.363  13.266  31.836  0.00  0.00    +0.149 HD
BRANCH  17  19
ATOM     19  C   UNL     1       0.849  13.354  32.980  0.00  0.00    +0.107 C 
BRANCH  19  20
ATOM     20  C   UNL     1       1.650  14.215  32.007  0.00  0.00    +0.129 C 
BRANCH  20  24
ATOM      6  O   UNL     1       2.153  14.161  29.627  0.00  0.00    -0.251 OA
ATOM     24  C   UNL     1       1.540  13.714  30.587  0.00  0.00    +0.305 C 
BRANCH  24   5
ATOM      5  O   UNL     1       0.659  12.683  30.492  0.00  0.00    -0.481 OA
ATOM     31  H   UNL     1      -0.028  12.724  31.192  0.00  0.00    +0.295 HD
ENDBRANCH  24   5
ENDBRANCH  20  24
ENDBRANCH  19  20
ENDBRANCH  17  19
ENDBRANCH  13   7
TORSDOF 7
ENDMDL
