MODEL 1
REMARK VINA RESULT:      -6.9      0.000      0.000
REMARK  Name = 71693892
REMARK  8 active torsions:
REMARK  status: ('A' for Active; 'I' for Inactive)
REMARK    1  A    between atoms: O_2  and  C_9
REMARK    2  A    between atoms: O_3  and  C_11
REMARK    3  A    between atoms: O_5  and  C_19
REMARK    4  A    between atoms: O_5  and  C_25
REMARK    5  A    between atoms: N_6  and  C_8
REMARK    6  A    between atoms: C_7  and  C_12
REMARK    7  A    between atoms: C_15  and  C_16
REMARK    8  A    between atoms: C_16  and  C_20
REMARK                            x       y       z     vdW  Elec       q    Type
REMARK                         _______ _______ _______ _____ _____    ______ ____
ROOT
ATOM      7  C   UNL     1      13.090   8.500  21.624  0.00  0.00    +0.044 C 
ATOM      8  C   UNL     1      13.024   7.248  20.722  0.00  0.00    +0.111 C 
ATOM      9  C   UNL     1      11.919   6.406  21.362  0.00  0.00    +0.164 C 
ATOM     10  C   UNL     1      11.706   8.597  22.316  0.00  0.00    +0.044 C 
ATOM     11  C   UNL     1      10.876   7.446  21.752  0.00  0.00    +0.145 C 
ENDROOT
BRANCH   7  12
ATOM     12  C   UNL     1      13.500   9.750  20.873  0.00  0.00    -0.042 A 
ATOM     13  C   UNL     1      14.567  10.522  21.333  0.00  0.00    +0.007 A 
ATOM     14  C   UNL     1      12.811  10.128  19.721  0.00  0.00    +0.007 A 
ATOM     17  C   UNL     1      14.944  11.672  20.641  0.00  0.00    +0.046 A 
ATOM     18  C   UNL     1      13.189  11.279  19.029  0.00  0.00    +0.046 A 
ATOM     19  C   UNL     1      14.256  12.050  19.489  0.00  0.00    +0.120 A 
BRANCH  19   5
ATOM      5  O   UNL     1      14.625  13.172  18.814  0.00  0.00    -0.495 OA
ATOM     25  C   UNL     1      14.228  13.268  17.446  0.00  0.00    +0.277 C 
ENDBRANCH  19   5
ENDBRANCH   7  12
BRANCH   8   6
ATOM      4  O   UNL     1      15.040   7.439  18.678  0.00  0.00    -0.275 OA
ATOM      6  N   UNL     1      14.280   6.544  20.681  0.00  0.00    -0.309 N 
ATOM     15  C   UNL     1      15.197   6.701  19.648  0.00  0.00    +0.218 C 
ATOM     27  H   UNL     1      14.521   5.959  21.475  0.00  0.00    +0.149 HD
BRANCH  15  16
ATOM     16  C   UNL     1      16.432   5.848  19.861  0.00  0.00    +0.130 C 
BRANCH  16  20
ATOM      1 CL   UNL     1      21.031   8.879  22.282  0.00  0.00    -0.084 Cl
ATOM     20  C   UNL     1      17.584   6.607  20.466  0.00  0.00    -0.039 A 
ATOM     21  C   UNL     1      17.371   7.866  21.028  0.00  0.00    +0.005 A 
ATOM     22  C   UNL     1      18.863   6.051  20.463  0.00  0.00    +0.005 A 
ATOM     23  C   UNL     1      18.436   8.568  21.589  0.00  0.00    +0.020 A 
ATOM     24  C   UNL     1      19.929   6.754  21.024  0.00  0.00    +0.020 A 
ATOM     26  C   UNL     1      19.716   8.012  21.586  0.00  0.00    +0.041 A 
ENDBRANCH  16  20
ENDBRANCH  15  16
ENDBRANCH   8   6
BRANCH   9   2
ATOM      2  O   UNL     1      11.382   5.454  20.464  0.00  0.00    -0.387 OA
ATOM     28  H   UNL     1      12.078   5.237  19.819  0.00  0.00    +0.210 HD
ENDBRANCH   9   2
BRANCH  11   3
ATOM      3  O   UNL     1      10.168   7.912  20.607  0.00  0.00    -0.389 OA
ATOM     29  H   UNL     1       9.442   8.477  20.922  0.00  0.00    +0.210 HD
ENDBRANCH  11   3
TORSDOF 7
ENDMDL
MODEL 2
REMARK VINA RESULT:      -6.8      3.007      6.282
REMARK  Name = 71693892
REMARK  8 active torsions:
REMARK  status: ('A' for Active; 'I' for Inactive)
REMARK    1  A    between atoms: O_2  and  C_9
REMARK    2  A    between atoms: O_3  and  C_11
REMARK    3  A    between atoms: O_5  and  C_19
REMARK    4  A    between atoms: O_5  and  C_25
REMARK    5  A    between atoms: N_6  and  C_8
REMARK    6  A    between atoms: C_7  and  C_12
REMARK    7  A    between atoms: C_15  and  C_16
REMARK    8  A    between atoms: C_16  and  C_20
REMARK                            x       y       z     vdW  Elec       q    Type
REMARK                         _______ _______ _______ _____ _____    ______ ____
ROOT
ATOM      7  C   UNL     1      13.993   9.390  18.315  0.00  0.00    +0.044 C 
ATOM      8  C   UNL     1      12.634   8.673  18.150  0.00  0.00    +0.111 C 
ATOM      9  C   UNL     1      12.046   9.311  16.891  0.00  0.00    +0.164 C 
ATOM     10  C   UNL     1      14.367   9.916  16.905  0.00  0.00    +0.044 C 
ATOM     11  C   UNL     1      13.255   9.441  15.973  0.00  0.00    +0.145 C 
ENDROOT
BRANCH   7  12
ATOM     12  C   UNL     1      15.050   8.514  18.954  0.00  0.00    -0.042 A 
ATOM     13  C   UNL     1      15.194   7.186  18.551  0.00  0.00    +0.007 A 
ATOM     14  C   UNL     1      15.881   9.036  19.945  0.00  0.00    +0.007 A 
ATOM     17  C   UNL     1      16.168   6.381  19.139  0.00  0.00    +0.046 A 
ATOM     18  C   UNL     1      16.856   8.230  20.534  0.00  0.00    +0.046 A 
ATOM     19  C   UNL     1      16.999   6.902  20.130  0.00  0.00    +0.120 A 
BRANCH  19   5
ATOM      5  O   UNL     1      17.950   6.116  20.704  0.00  0.00    -0.495 OA
ATOM     25  C   UNL     1      18.857   6.747  21.607  0.00  0.00    +0.277 C 
ENDBRANCH  19   5
ENDBRANCH   7  12
BRANCH   8   6
ATOM      4  O   UNL     1      12.003   6.720  20.167  0.00  0.00    -0.275 OA
ATOM      6  N   UNL     1      11.782   8.861  19.296  0.00  0.00    -0.309 N 
ATOM     15  C   UNL     1      11.534   7.854  20.222  0.00  0.00    +0.218 C 
ATOM     27  H   UNL     1      11.400   9.789  19.455  0.00  0.00    +0.149 HD
BRANCH  15  16
ATOM     16  C   UNL     1      10.609   8.325  21.327  0.00  0.00    +0.130 C 
BRANCH  16  20
ATOM      1 CL   UNL     1      12.999  12.663  24.745  0.00  0.00    -0.084 Cl
ATOM     20  C   UNL     1      11.207   9.410  22.184  0.00  0.00    -0.039 A 
ATOM     21  C   UNL     1      12.567   9.704  22.088  0.00  0.00    +0.005 A 
ATOM     22  C   UNL     1      10.400  10.122  23.073  0.00  0.00    +0.005 A 
ATOM     23  C   UNL     1      13.121  10.709  22.880  0.00  0.00    +0.020 A 
ATOM     24  C   UNL     1      10.955  11.126  23.865  0.00  0.00    +0.020 A 
ATOM     26  C   UNL     1      12.315  11.420  23.769  0.00  0.00    +0.041 A 
ENDBRANCH  16  20
ENDBRANCH  15  16
ENDBRANCH   8   6
BRANCH   9   2
ATOM      2  O   UNL     1      11.040   8.508  16.303  0.00  0.00    -0.387 OA
ATOM     28  H   UNL     1      11.240   8.440  15.353  0.00  0.00    +0.210 HD
ENDBRANCH   9   2
BRANCH  11   3
ATOM      3  O   UNL     1      13.623   8.175  15.432  0.00  0.00    -0.389 OA
ATOM     29  H   UNL     1      13.162   7.492  15.949  0.00  0.00    +0.210 HD
ENDBRANCH  11   3
TORSDOF 7
ENDMDL
MODEL 3
REMARK VINA RESULT:      -6.7      1.519      2.136
REMARK  Name = 71693892
REMARK  8 active torsions:
REMARK  status: ('A' for Active; 'I' for Inactive)
REMARK    1  A    between atoms: O_2  and  C_9
REMARK    2  A    between atoms: O_3  and  C_11
REMARK    3  A    between atoms: O_5  and  C_19
REMARK    4  A    between atoms: O_5  and  C_25
REMARK    5  A    between atoms: N_6  and  C_8
REMARK    6  A    between atoms: C_7  and  C_12
REMARK    7  A    between atoms: C_15  and  C_16
REMARK    8  A    between atoms: C_16  and  C_20
REMARK                            x       y       z     vdW  Elec       q    Type
REMARK                         _______ _______ _______ _____ _____    ______ ____
ROOT
ATOM      7  C   UNL     1      13.165   8.857  20.574  0.00  0.00    +0.044 C 
ATOM      8  C   UNL     1      13.187   7.313  20.594  0.00  0.00    +0.111 C 
ATOM      9  C   UNL     1      12.226   6.959  21.730  0.00  0.00    +0.164 C 
ATOM     10  C   UNL     1      11.825   9.271  21.234  0.00  0.00    +0.044 C 
ATOM     11  C   UNL     1      11.098   7.967  21.555  0.00  0.00    +0.145 C 
ENDROOT
BRANCH   7  12
ATOM     12  C   UNL     1      13.384   9.435  19.192  0.00  0.00    -0.042 A 
ATOM     13  C   UNL     1      12.525   9.090  18.147  0.00  0.00    +0.007 A 
ATOM     14  C   UNL     1      14.443  10.312  18.962  0.00  0.00    +0.007 A 
ATOM     17  C   UNL     1      12.726   9.623  16.874  0.00  0.00    +0.046 A 
ATOM     18  C   UNL     1      14.645  10.844  17.688  0.00  0.00    +0.046 A 
ATOM     19  C   UNL     1      13.785  10.500  16.645  0.00  0.00    +0.120 A 
BRANCH  19   5
ATOM      5  O   UNL     1      13.981  11.020  15.403  0.00  0.00    -0.495 OA
ATOM     25  C   UNL     1      14.354  12.395  15.325  0.00  0.00    +0.277 C 
ENDBRANCH  19   5
ENDBRANCH   7  12
BRANCH   8   6
ATOM      4  O   UNL     1      15.225   6.840  18.619  0.00  0.00    -0.275 OA
ATOM      6  N   UNL     1      14.510   6.793  20.827  0.00  0.00    -0.309 N 
ATOM     15  C   UNL     1      15.432   6.598  19.805  0.00  0.00    +0.218 C 
ATOM     27  H   UNL     1      14.789   6.623  21.789  0.00  0.00    +0.149 HD
BRANCH  15  16
ATOM     16  C   UNL     1      16.743   6.048  20.332  0.00  0.00    +0.130 C 
BRANCH  16  20
ATOM      1 CL   UNL     1      20.664  10.331  21.909  0.00  0.00    -0.084 Cl
ATOM     20  C   UNL     1      17.724   7.121  20.728  0.00  0.00    -0.039 A 
ATOM     21  C   UNL     1      19.058   6.791  20.965  0.00  0.00    +0.005 A 
ATOM     22  C   UNL     1      17.297   8.443  20.858  0.00  0.00    +0.005 A 
ATOM     23  C   UNL     1      19.967   7.784  21.330  0.00  0.00    +0.020 A 
ATOM     24  C   UNL     1      18.206   9.435  21.223  0.00  0.00    +0.020 A 
ATOM     26  C   UNL     1      19.540   9.105  21.460  0.00  0.00    +0.041 A 
ENDBRANCH  16  20
ENDBRANCH  15  16
ENDBRANCH   8   6
BRANCH   9   2
ATOM      2  O   UNL     1      11.747   5.631  21.633  0.00  0.00    -0.387 OA
ATOM     28  H   UNL     1      11.667   5.283  22.537  0.00  0.00    +0.210 HD
ENDBRANCH   9   2
BRANCH  11   3
ATOM      3  O   UNL     1      10.272   7.620  20.447  0.00  0.00    -0.389 OA
ATOM     29  H   UNL     1       9.520   8.236  20.439  0.00  0.00    +0.210 HD
ENDBRANCH  11   3
TORSDOF 7
ENDMDL
MODEL 4
REMARK VINA RESULT:      -6.5      3.931      6.918
REMARK  Name = 71693892
REMARK  8 active torsions:
REMARK  status: ('A' for Active; 'I' for Inactive)
REMARK    1  A    between atoms: O_2  and  C_9
REMARK    2  A    between atoms: O_3  and  C_11
REMARK    3  A    between atoms: O_5  and  C_19
REMARK    4  A    between atoms: O_5  and  C_25
REMARK    5  A    between atoms: N_6  and  C_8
REMARK    6  A    between atoms: C_7  and  C_12
REMARK    7  A    between atoms: C_15  and  C_16
REMARK    8  A    between atoms: C_16  and  C_20
REMARK                            x       y       z     vdW  Elec       q    Type
REMARK                         _______ _______ _______ _____ _____    ______ ____
ROOT
ATOM      7  C   UNL     1      14.181   8.698  18.752  0.00  0.00    +0.044 C 
ATOM      8  C   UNL     1      12.942   9.044  19.607  0.00  0.00    +0.111 C 
ATOM      9  C   UNL     1      11.770   8.611  18.725  0.00  0.00    +0.164 C 
ATOM     10  C   UNL     1      13.720   7.598  17.762  0.00  0.00    +0.044 C 
ATOM     11  C   UNL     1      12.263   7.306  18.113  0.00  0.00    +0.145 C 
ENDROOT
BRANCH   7  12
ATOM     12  C   UNL     1      15.388   8.320  19.585  0.00  0.00    -0.042 A 
ATOM     13  C   UNL     1      15.872   7.012  19.559  0.00  0.00    +0.007 A 
ATOM     14  C   UNL     1      16.016   9.281  20.378  0.00  0.00    +0.007 A 
ATOM     17  C   UNL     1      16.984   6.665  20.326  0.00  0.00    +0.046 A 
ATOM     18  C   UNL     1      17.129   8.933  21.145  0.00  0.00    +0.046 A 
ATOM     19  C   UNL     1      17.612   7.625  21.119  0.00  0.00    +0.120 A 
BRANCH  19   5
ATOM      5  O   UNL     1      18.698   7.286  21.866  0.00  0.00    -0.495 OA
ATOM     25  C   UNL     1      19.808   6.714  21.176  0.00  0.00    +0.277 C 
ENDBRANCH  19   5
ENDBRANCH   7  12
BRANCH   8   6
ATOM      4  O   UNL     1      11.394  10.264  21.704  0.00  0.00    -0.275 OA
ATOM      6  N   UNL     1      12.882  10.446  19.930  0.00  0.00    -0.309 N 
ATOM     15  C   UNL     1      12.102  10.947  20.967  0.00  0.00    +0.218 C 
ATOM     27  H   UNL     1      13.485  11.078  19.411  0.00  0.00    +0.149 HD
BRANCH  15  16
ATOM     16  C   UNL     1      12.231  12.452  21.088  0.00  0.00    +0.130 C 
BRANCH  16  20
ATOM      1 CL   UNL     1      10.715  14.541  26.524  0.00  0.00    -0.084 Cl
ATOM     20  C   UNL     1      11.853  12.976  22.449  0.00  0.00    -0.039 A 
ATOM     21  C   UNL     1      10.600  13.556  22.649  0.00  0.00    +0.005 A 
ATOM     22  C   UNL     1      12.755  12.881  23.509  0.00  0.00    +0.005 A 
ATOM     23  C   UNL     1      10.249  14.040  23.908  0.00  0.00    +0.020 A 
ATOM     24  C   UNL     1      12.403  13.366  24.768  0.00  0.00    +0.020 A 
ATOM     26  C   UNL     1      11.151  13.945  24.968  0.00  0.00    +0.041 A 
ENDBRANCH  16  20
ENDBRANCH  15  16
ENDBRANCH   8   6
BRANCH   9   2
ATOM      2  O   UNL     1      10.584   8.412  19.470  0.00  0.00    -0.387 OA
ATOM     28  H   UNL     1      10.639   7.530  19.876  0.00  0.00    +0.210 HD
ENDBRANCH   9   2
BRANCH  11   3
ATOM      3  O   UNL     1      12.227   6.249  19.069  0.00  0.00    -0.389 OA
ATOM     29  H   UNL     1      13.071   6.263  19.552  0.00  0.00    +0.210 HD
ENDBRANCH  11   3
TORSDOF 7
ENDMDL
MODEL 5
REMARK VINA RESULT:      -6.5      4.084      7.254
REMARK  Name = 71693892
REMARK  8 active torsions:
REMARK  status: ('A' for Active; 'I' for Inactive)
REMARK    1  A    between atoms: O_2  and  C_9
REMARK    2  A    between atoms: O_3  and  C_11
REMARK    3  A    between atoms: O_5  and  C_19
REMARK    4  A    between atoms: O_5  and  C_25
REMARK    5  A    between atoms: N_6  and  C_8
REMARK    6  A    between atoms: C_7  and  C_12
REMARK    7  A    between atoms: C_15  and  C_16
REMARK    8  A    between atoms: C_16  and  C_20
REMARK                            x       y       z     vdW  Elec       q    Type
REMARK                         _______ _______ _______ _____ _____    ______ ____
ROOT
ATOM      7  C   UNL     1      14.342   8.575  18.998  0.00  0.00    +0.044 C 
ATOM      8  C   UNL     1      13.253   8.856  20.057  0.00  0.00    +0.111 C 
ATOM      9  C   UNL     1      11.949   8.701  19.275  0.00  0.00    +0.164 C 
ATOM     10  C   UNL     1      13.654   7.728  17.897  0.00  0.00    +0.044 C 
ATOM     11  C   UNL     1      12.224   7.499  18.380  0.00  0.00    +0.145 C 
ENDROOT
BRANCH   7  12
ATOM     12  C   UNL     1      15.588   7.943  19.583  0.00  0.00    -0.042 A 
ATOM     13  C   UNL     1      16.335   8.630  20.541  0.00  0.00    +0.007 A 
ATOM     14  C   UNL     1      15.987   6.674  19.166  0.00  0.00    +0.007 A 
ATOM     17  C   UNL     1      17.482   8.047  21.080  0.00  0.00    +0.046 A 
ATOM     18  C   UNL     1      17.135   6.091  19.704  0.00  0.00    +0.046 A 
ATOM     19  C   UNL     1      17.881   6.778  20.662  0.00  0.00    +0.120 A 
BRANCH  19   5
ATOM      5  O   UNL     1      19.000   6.210  21.189  0.00  0.00    -0.495 OA
ATOM     25  C   UNL     1      20.257   6.707  20.733  0.00  0.00    +0.277 C 
ENDBRANCH  19   5
ENDBRANCH   7  12
BRANCH   8   6
ATOM      4  O   UNL     1      12.131   9.769  22.544  0.00  0.00    -0.275 OA
ATOM      6  N   UNL     1      13.383  10.171  20.631  0.00  0.00    -0.309 N 
ATOM     15  C   UNL     1      12.803  10.522  21.844  0.00  0.00    +0.218 C 
ATOM     27  H   UNL     1      13.975  10.841  20.149  0.00  0.00    +0.149 HD
BRANCH  15  16
ATOM     16  C   UNL     1      13.103  11.962  22.212  0.00  0.00    +0.130 C 
BRANCH  16  20
ATOM      1 CL   UNL     1       8.159  15.293  23.024  0.00  0.00    -0.084 Cl
ATOM     20  C   UNL     1      11.866  12.797  22.416  0.00  0.00    -0.039 A 
ATOM     21  C   UNL     1      11.297  13.474  21.338  0.00  0.00    +0.005 A 
ATOM     22  C   UNL     1      11.290  12.892  23.683  0.00  0.00    +0.005 A 
ATOM     23  C   UNL     1      10.151  14.246  21.526  0.00  0.00    +0.020 A 
ATOM     24  C   UNL     1      10.145  13.665  23.871  0.00  0.00    +0.020 A 
ATOM     26  C   UNL     1       9.575  14.342  22.793  0.00  0.00    +0.041 A 
ENDBRANCH  16  20
ENDBRANCH  15  16
ENDBRANCH   8   6
BRANCH   9   2
ATOM      2  O   UNL     1      10.840   8.466  20.122  0.00  0.00    -0.387 OA
ATOM     28  H   UNL     1      11.066   8.816  21.001  0.00  0.00    +0.210 HD
ENDBRANCH   9   2
BRANCH  11   3
ATOM      3  O   UNL     1      12.182   6.287  19.127  0.00  0.00    -0.389 OA
ATOM     29  H   UNL     1      12.990   5.787  18.918  0.00  0.00    +0.210 HD
ENDBRANCH  11   3
TORSDOF 7
ENDMDL
MODEL 6
REMARK VINA RESULT:      -6.3     27.391     28.839
REMARK  Name = 71693892
REMARK  8 active torsions:
REMARK  status: ('A' for Active; 'I' for Inactive)
REMARK    1  A    between atoms: O_2  and  C_9
REMARK    2  A    between atoms: O_3  and  C_11
REMARK    3  A    between atoms: O_5  and  C_19
REMARK    4  A    between atoms: O_5  and  C_25
REMARK    5  A    between atoms: N_6  and  C_8
REMARK    6  A    between atoms: C_7  and  C_12
REMARK    7  A    between atoms: C_15  and  C_16
REMARK    8  A    between atoms: C_16  and  C_20
REMARK                            x       y       z     vdW  Elec       q    Type
REMARK                         _______ _______ _______ _____ _____    ______ ____
ROOT
ATOM      7  C   UNL     1      -5.796 -10.248  17.707  0.00  0.00    +0.044 C 
ATOM      8  C   UNL     1      -5.024 -11.488  17.205  0.00  0.00    +0.111 C 
ATOM      9  C   UNL     1      -4.525 -12.142  18.494  0.00  0.00    +0.164 C 
ATOM     10  C   UNL     1      -6.201 -10.564  19.169  0.00  0.00    +0.044 C 
ATOM     11  C   UNL     1      -5.708 -11.983  19.442  0.00  0.00    +0.145 C 
ENDROOT
BRANCH   7  12
ATOM     12  C   UNL     1      -6.954  -9.867  16.808  0.00  0.00    -0.042 A 
ATOM     13  C   UNL     1      -6.952 -10.252  15.467  0.00  0.00    +0.007 A 
ATOM     14  C   UNL     1      -8.022  -9.133  17.322  0.00  0.00    +0.007 A 
ATOM     17  C   UNL     1      -8.019  -9.901  14.640  0.00  0.00    +0.046 A 
ATOM     18  C   UNL     1      -9.090  -8.782  16.494  0.00  0.00    +0.046 A 
ATOM     19  C   UNL     1      -9.088  -9.167  15.154  0.00  0.00    +0.120 A 
BRANCH  19   5
ATOM      5  O   UNL     1     -10.129  -8.826  14.346  0.00  0.00    -0.495 OA
ATOM     25  C   UNL     1     -11.212  -8.118  14.947  0.00  0.00    +0.277 C 
ENDBRANCH  19   5
ENDBRANCH   7  12
BRANCH   8   6
ATOM      4  O   UNL     1      -3.880 -13.118  15.128  0.00  0.00    -0.275 OA
ATOM      6  N   UNL     1      -3.938 -11.132  16.328  0.00  0.00    -0.309 N 
ATOM     15  C   UNL     1      -3.450 -11.989  15.349  0.00  0.00    +0.218 C 
ATOM     27  H   UNL     1      -3.563 -10.191  16.398  0.00  0.00    +0.149 HD
BRANCH  15  16
ATOM     16  C   UNL     1      -2.313 -11.358  14.569  0.00  0.00    +0.130 C 
BRANCH  16  20
ATOM      1 CL   UNL     1      -4.058  -8.941   9.342  0.00  0.00    -0.084 Cl
ATOM     20  C   UNL     1      -2.751 -10.752  13.261  0.00  0.00    -0.039 A 
ATOM     21  C   UNL     1      -1.800 -10.409  12.300  0.00  0.00    +0.005 A 
ATOM     22  C   UNL     1      -4.106 -10.534  13.012  0.00  0.00    +0.005 A 
ATOM     23  C   UNL     1      -2.204  -9.849  11.088  0.00  0.00    +0.020 A 
ATOM     24  C   UNL     1      -4.510  -9.973  11.800  0.00  0.00    +0.020 A 
ATOM     26  C   UNL     1      -3.559  -9.631  10.839  0.00  0.00    +0.041 A 
ENDBRANCH  16  20
ENDBRANCH  15  16
ENDBRANCH   8   6
BRANCH   9   2
ATOM      2  O   UNL     1      -4.195 -13.506  18.311  0.00  0.00    -0.387 OA
ATOM     28  H   UNL     1      -3.382 -13.679  18.816  0.00  0.00    +0.210 HD
ENDBRANCH   9   2
BRANCH  11   3
ATOM      3  O   UNL     1      -6.749 -12.899  19.115  0.00  0.00    -0.389 OA
ATOM     29  H   UNL     1      -6.539 -13.745  19.544  0.00  0.00    +0.210 HD
ENDBRANCH  11   3
TORSDOF 7
ENDMDL
MODEL 7
REMARK VINA RESULT:      -6.3     16.761     18.206
REMARK  Name = 71693892
REMARK  8 active torsions:
REMARK  status: ('A' for Active; 'I' for Inactive)
REMARK    1  A    between atoms: O_2  and  C_9
REMARK    2  A    between atoms: O_3  and  C_11
REMARK    3  A    between atoms: O_5  and  C_19
REMARK    4  A    between atoms: O_5  and  C_25
REMARK    5  A    between atoms: N_6  and  C_8
REMARK    6  A    between atoms: C_7  and  C_12
REMARK    7  A    between atoms: C_15  and  C_16
REMARK    8  A    between atoms: C_16  and  C_20
REMARK                            x       y       z     vdW  Elec       q    Type
REMARK                         _______ _______ _______ _____ _____    ______ ____
ROOT
ATOM      7  C   UNL     1       9.645   5.989   4.409  0.00  0.00    +0.044 C 
ATOM      8  C   UNL     1      11.036   6.304   3.815  0.00  0.00    +0.111 C 
ATOM      9  C   UNL     1      10.725   7.284   2.683  0.00  0.00    +0.164 C 
ATOM     10  C   UNL     1       8.739   7.187   4.024  0.00  0.00    +0.044 C 
ATOM     11  C   UNL     1       9.641   8.171   3.282  0.00  0.00    +0.145 C 
ENDROOT
BRANCH   7  12
ATOM     12  C   UNL     1       9.688   5.692   5.893  0.00  0.00    -0.042 A 
ATOM     13  C   UNL     1       9.507   6.722   6.817  0.00  0.00    +0.007 A 
ATOM     14  C   UNL     1       9.909   4.388   6.336  0.00  0.00    +0.007 A 
ATOM     17  C   UNL     1       9.547   6.447   8.184  0.00  0.00    +0.046 A 
ATOM     18  C   UNL     1       9.949   4.114   7.704  0.00  0.00    +0.046 A 
ATOM     19  C   UNL     1       9.767   5.143   8.627  0.00  0.00    +0.120 A 
BRANCH  19   5
ATOM      5  O   UNL     1       9.805   4.876   9.961  0.00  0.00    -0.495 OA
ATOM     25  C   UNL     1       8.560   4.606  10.604  0.00  0.00    +0.277 C 
ENDBRANCH  19   5
ENDBRANCH   7  12
BRANCH   8   6
ATOM      4  O   UNL     1      10.215   4.645   1.612  0.00  0.00    -0.275 OA
ATOM      6  N   UNL     1      11.699   5.119   3.334  0.00  0.00    -0.309 N 
ATOM     15  C   UNL     1      11.226   4.378   2.257  0.00  0.00    +0.218 C 
ATOM     27  H   UNL     1      12.579   4.859   3.769  0.00  0.00    +0.149 HD
BRANCH  15  16
ATOM     16  C   UNL     1      12.118   3.189   1.962  0.00  0.00    +0.130 C 
BRANCH  16  20
ATOM      1 CL   UNL     1      16.697   4.489  -1.720  0.00  0.00    -0.084 Cl
ATOM     20  C   UNL     1      13.264   3.516   1.040  0.00  0.00    -0.039 A 
ATOM     21  C   UNL     1      14.563   3.593   1.542  0.00  0.00    +0.005 A 
ATOM     22  C   UNL     1      13.026   3.741  -0.316  0.00  0.00    +0.005 A 
ATOM     23  C   UNL     1      15.624   3.895   0.690  0.00  0.00    +0.020 A 
ATOM     24  C   UNL     1      14.087   4.043  -1.169  0.00  0.00    +0.020 A 
ATOM     26  C   UNL     1      15.386   4.120  -0.666  0.00  0.00    +0.041 A 
ENDBRANCH  16  20
ENDBRANCH  15  16
ENDBRANCH   8   6
BRANCH   9   2
ATOM      2  O   UNL     1      11.858   8.043   2.306  0.00  0.00    -0.387 OA
ATOM     28  H   UNL     1      12.642   7.600   2.673  0.00  0.00    +0.210 HD
ENDBRANCH   9   2
BRANCH  11   3
ATOM      3  O   UNL     1      10.193   9.085   4.224  0.00  0.00    -0.389 OA
ATOM     29  H   UNL     1      10.320   9.934   3.767  0.00  0.00    +0.210 HD
ENDBRANCH  11   3
TORSDOF 7
ENDMDL
MODEL 8
REMARK VINA RESULT:      -6.2      2.426      3.707
REMARK  Name = 71693892
REMARK  8 active torsions:
REMARK  status: ('A' for Active; 'I' for Inactive)
REMARK    1  A    between atoms: O_2  and  C_9
REMARK    2  A    between atoms: O_3  and  C_11
REMARK    3  A    between atoms: O_5  and  C_19
REMARK    4  A    between atoms: O_5  and  C_25
REMARK    5  A    between atoms: N_6  and  C_8
REMARK    6  A    between atoms: C_7  and  C_12
REMARK    7  A    between atoms: C_15  and  C_16
REMARK    8  A    between atoms: C_16  and  C_20
REMARK                            x       y       z     vdW  Elec       q    Type
REMARK                         _______ _______ _______ _____ _____    ______ ____
ROOT
ATOM      7  C   UNL     1      12.084   8.141  18.904  0.00  0.00    +0.044 C 
ATOM      8  C   UNL     1      13.558   8.308  18.474  0.00  0.00    +0.111 C 
ATOM      9  C   UNL     1      13.501   8.171  16.952  0.00  0.00    +0.164 C 
ATOM     10  C   UNL     1      11.235   8.510  17.661  0.00  0.00    +0.044 C 
ATOM     11  C   UNL     1      12.233   8.931  16.584  0.00  0.00    +0.145 C 
ENDROOT
BRANCH   7  12
ATOM     12  C   UNL     1      11.739   8.928  20.151  0.00  0.00    -0.042 A 
ATOM     13  C   UNL     1      12.304  10.186  20.361  0.00  0.00    +0.007 A 
ATOM     14  C   UNL     1      10.855   8.396  21.089  0.00  0.00    +0.007 A 
ATOM     17  C   UNL     1      11.985  10.911  21.509  0.00  0.00    +0.046 A 
ATOM     18  C   UNL     1      10.536   9.121  22.238  0.00  0.00    +0.046 A 
ATOM     19  C   UNL     1      11.101  10.379  22.447  0.00  0.00    +0.120 A 
BRANCH  19   5
ATOM      5  O   UNL     1      10.790  11.087  23.566  0.00  0.00    -0.495 OA
ATOM     25  C   UNL     1      10.917  12.506  23.494  0.00  0.00    +0.277 C 
ENDBRANCH  19   5
ENDBRANCH   7  12
BRANCH   8   6
ATOM      4  O   UNL     1      16.006   8.777  19.911  0.00  0.00    -0.275 OA
ATOM      6  N   UNL     1      14.412   7.313  19.071  0.00  0.00    -0.309 N 
ATOM     15  C   UNL     1      15.581   7.636  19.750  0.00  0.00    +0.218 C 
ATOM     27  H   UNL     1      14.105   6.345  19.040  0.00  0.00    +0.149 HD
BRANCH  15  16
ATOM     16  C   UNL     1      16.280   6.399  20.281  0.00  0.00    +0.130 C 
BRANCH  16  20
ATOM      1 CL   UNL     1      21.982   7.403  21.918  0.00  0.00    -0.084 Cl
ATOM     20  C   UNL     1      17.707   6.650  20.692  0.00  0.00    -0.039 A 
ATOM     21  C   UNL     1      18.733   5.871  20.158  0.00  0.00    +0.005 A 
ATOM     22  C   UNL     1      18.002   7.662  21.606  0.00  0.00    +0.005 A 
ATOM     23  C   UNL     1      20.055   6.103  20.538  0.00  0.00    +0.020 A 
ATOM     24  C   UNL     1      19.323   7.894  21.986  0.00  0.00    +0.020 A 
ATOM     26  C   UNL     1      20.349   7.115  21.452  0.00  0.00    +0.041 A 
ENDBRANCH  16  20
ENDBRANCH  15  16
ENDBRANCH   8   6
BRANCH   9   2
ATOM      2  O   UNL     1      14.636   8.733  16.320  0.00  0.00    -0.387 OA
ATOM     28  H   UNL     1      14.503   9.696  16.285  0.00  0.00    +0.210 HD
ENDBRANCH   9   2
BRANCH  11   3
ATOM      3  O   UNL     1      12.436  10.338  16.676  0.00  0.00    -0.389 OA
ATOM     29  H   UNL     1      13.037  10.498  17.424  0.00  0.00    +0.210 HD
ENDBRANCH  11   3
TORSDOF 7
ENDMDL
MODEL 9
REMARK VINA RESULT:      -6.2     15.348     16.849
REMARK  Name = 71693892
REMARK  8 active torsions:
REMARK  status: ('A' for Active; 'I' for Inactive)
REMARK    1  A    between atoms: O_2  and  C_9
REMARK    2  A    between atoms: O_3  and  C_11
REMARK    3  A    between atoms: O_5  and  C_19
REMARK    4  A    between atoms: O_5  and  C_25
REMARK    5  A    between atoms: N_6  and  C_8
REMARK    6  A    between atoms: C_7  and  C_12
REMARK    7  A    between atoms: C_15  and  C_16
REMARK    8  A    between atoms: C_16  and  C_20
REMARK                            x       y       z     vdW  Elec       q    Type
REMARK                         _______ _______ _______ _____ _____    ______ ____
ROOT
ATOM      7  C   UNL     1      10.126   6.363   5.111  0.00  0.00    +0.044 C 
ATOM      8  C   UNL     1      11.415   6.249   5.956  0.00  0.00    +0.111 C 
ATOM      9  C   UNL     1      10.891   6.123   7.387  0.00  0.00    +0.164 C 
ATOM     10  C   UNL     1       9.002   5.722   5.964  0.00  0.00    +0.044 C 
ATOM     11  C   UNL     1       9.681   5.210   7.232  0.00  0.00    +0.145 C 
ENDROOT
BRANCH   7  12
ATOM     12  C   UNL     1      10.272   5.771   3.725  0.00  0.00    -0.042 A 
ATOM     13  C   UNL     1      10.796   4.487   3.566  0.00  0.00    +0.007 A 
ATOM     14  C   UNL     1       9.881   6.507   2.607  0.00  0.00    +0.007 A 
ATOM     17  C   UNL     1      10.930   3.942   2.290  0.00  0.00    +0.046 A 
ATOM     18  C   UNL     1      10.015   5.962   1.330  0.00  0.00    +0.046 A 
ATOM     19  C   UNL     1      10.539   4.678   1.172  0.00  0.00    +0.120 A 
BRANCH  19   5
ATOM      5  O   UNL     1      10.669   4.145  -0.073  0.00  0.00    -0.495 OA
ATOM     25  C   UNL     1      11.981   3.763  -0.482  0.00  0.00    +0.277 C 
ENDBRANCH  19   5
ENDBRANCH   7  12
BRANCH   8   6
ATOM      4  O   UNL     1      14.095   6.554   6.957  0.00  0.00    -0.275 OA
ATOM      6  N   UNL     1      12.270   7.397   5.795  0.00  0.00    -0.309 N 
ATOM     15  C   UNL     1      13.557   7.454   6.317  0.00  0.00    +0.218 C 
ATOM     27  H   UNL     1      11.930   8.165   5.225  0.00  0.00    +0.149 HD
BRANCH  15  16
ATOM     16  C   UNL     1      14.234   8.772   5.995  0.00  0.00    +0.130 C 
BRANCH  16  20
ATOM      1 CL   UNL     1      19.482   8.126   3.124  0.00  0.00    -0.084 Cl
ATOM     20  C   UNL     1      15.548   8.609   5.277  0.00  0.00    -0.039 A 
ATOM     21  C   UNL     1      15.565   8.295   3.918  0.00  0.00    +0.005 A 
ATOM     22  C   UNL     1      16.747   8.772   5.971  0.00  0.00    +0.005 A 
ATOM     23  C   UNL     1      16.781   8.145   3.253  0.00  0.00    +0.020 A 
ATOM     24  C   UNL     1      17.963   8.622   5.306  0.00  0.00    +0.020 A 
ATOM     26  C   UNL     1      17.980   8.308   3.947  0.00  0.00    +0.041 A 
ENDBRANCH  16  20
ENDBRANCH  15  16
ENDBRANCH   8   6
BRANCH   9   2
ATOM      2  O   UNL     1      11.851   5.559   8.260  0.00  0.00    -0.387 OA
ATOM     28  H   UNL     1      12.099   6.245   8.903  0.00  0.00    +0.210 HD
ENDBRANCH   9   2
BRANCH  11   3
ATOM      3  O   UNL     1      10.084   3.860   7.022  0.00  0.00    -0.389 OA
ATOM     29  H   UNL     1      11.053   3.855   6.936  0.00  0.00    +0.210 HD
ENDBRANCH  11   3
TORSDOF 7
ENDMDL
MODEL 10
REMARK VINA RESULT:      -6.1     26.208     29.861
REMARK  Name = 71693892
REMARK  8 active torsions:
REMARK  status: ('A' for Active; 'I' for Inactive)
REMARK    1  A    between atoms: O_2  and  C_9
REMARK    2  A    between atoms: O_3  and  C_11
REMARK    3  A    between atoms: O_5  and  C_19
REMARK    4  A    between atoms: O_5  and  C_25
REMARK    5  A    between atoms: N_6  and  C_8
REMARK    6  A    between atoms: C_7  and  C_12
REMARK    7  A    between atoms: C_15  and  C_16
REMARK    8  A    between atoms: C_16  and  C_20
REMARK                            x       y       z     vdW  Elec       q    Type
REMARK                         _______ _______ _______ _____ _____    ______ ____
ROOT
ATOM      7  C   UNL     1     -16.235   5.992  21.908  0.00  0.00    +0.044 C 
ATOM      8  C   UNL     1     -14.715   5.740  22.021  0.00  0.00    +0.111 C 
ATOM      9  C   UNL     1     -14.537   5.282  23.469  0.00  0.00    +0.164 C 
ATOM     10  C   UNL     1     -16.890   5.137  23.024  0.00  0.00    +0.044 C 
ATOM     11  C   UNL     1     -15.746   4.383  23.697  0.00  0.00    +0.145 C 
ENDROOT
BRANCH   7  12
ATOM     12  C   UNL     1     -16.778   5.725  20.520  0.00  0.00    -0.042 A 
ATOM     13  C   UNL     1     -16.541   6.637  19.491  0.00  0.00    +0.007 A 
ATOM     14  C   UNL     1     -17.515   4.568  20.270  0.00  0.00    +0.007 A 
ATOM     17  C   UNL     1     -17.041   6.391  18.212  0.00  0.00    +0.046 A 
ATOM     18  C   UNL     1     -18.016   4.322  18.991  0.00  0.00    +0.046 A 
ATOM     19  C   UNL     1     -17.778   5.234  17.962  0.00  0.00    +0.120 A 
BRANCH  19   5
ATOM      5  O   UNL     1     -18.265   4.994  16.715  0.00  0.00    -0.495 OA
ATOM     25  C   UNL     1     -18.941   6.068  16.064  0.00  0.00    +0.277 C 
ENDBRANCH  19   5
ENDBRANCH   7  12
BRANCH   8   6
ATOM      4  O   UNL     1     -11.962   5.851  21.191  0.00  0.00    -0.275 OA
ATOM      6  N   UNL     1     -13.948   6.925  21.734  0.00  0.00    -0.309 N 
ATOM     15  C   UNL     1     -12.617   6.881  21.337  0.00  0.00    +0.218 C 
ATOM     27  H   UNL     1     -14.428   7.819  21.768  0.00  0.00    +0.149 HD
BRANCH  15  16
ATOM     16  C   UNL     1     -12.058   8.269  21.096  0.00  0.00    +0.130 C 
BRANCH  16  20
ATOM      1 CL   UNL     1     -10.523   9.263  15.364  0.00  0.00    -0.084 Cl
ATOM     20  C   UNL     1     -11.673   8.517  19.661  0.00  0.00    -0.039 A 
ATOM     21  C   UNL     1     -12.510   8.090  18.631  0.00  0.00    +0.005 A 
ATOM     22  C   UNL     1     -10.479   9.174  19.363  0.00  0.00    +0.005 A 
ATOM     23  C   UNL     1     -12.155   8.319  17.302  0.00  0.00    +0.020 A 
ATOM     24  C   UNL     1     -10.123   9.404  18.034  0.00  0.00    +0.020 A 
ATOM     26  C   UNL     1     -10.960   8.976  17.004  0.00  0.00    +0.041 A 
ENDBRANCH  16  20
ENDBRANCH  15  16
ENDBRANCH   8   6
BRANCH   9   2
ATOM      2  O   UNL     1     -13.328   4.573  23.662  0.00  0.00    -0.387 OA
ATOM     28  H   UNL     1     -13.493   3.644  23.425  0.00  0.00    +0.210 HD
ENDBRANCH   9   2
BRANCH  11   3
ATOM      3  O   UNL     1     -15.579   3.128  23.043  0.00  0.00    -0.389 OA
ATOM     29  H   UNL     1     -15.153   2.524  23.675  0.00  0.00    +0.210 HD
ENDBRANCH  11   3
TORSDOF 7
ENDMDL
