MODEL 1
REMARK VINA RESULT:      -7.1      0.000      0.000
REMARK  Name = 11882086
REMARK  10 active torsions:
REMARK  status: ('A' for Active; 'I' for Inactive)
REMARK    1  A    between atoms: O_5  and  C_36
REMARK    2  A    between atoms: O_5  and  C_39
REMARK    3  A    between atoms: N_7  and  C_13
REMARK    4  A    between atoms: N_8  and  C_19
REMARK    5  A    between atoms: N_9  and  C_26
REMARK    6  A    between atoms: C_14  and  C_17
REMARK    7  A    between atoms: C_18  and  C_21
REMARK    8  A    between atoms: C_19  and  C_22
REMARK    9  A    between atoms: C_19  and  C_23
REMARK   10  A    between atoms: C_22  and  C_24
REMARK                            x       y       z     vdW  Elec       q    Type
REMARK                         _______ _______ _______ _____ _____    ______ ____
ROOT
ATOM      2  O   UNL     1      11.646   3.760   2.816  0.00  0.00    -0.268 OA
ATOM      6  N   UNL     1      11.346   6.067   2.914  0.00  0.00    -0.283 N 
ATOM     13  C   UNL     1      11.949   7.729   4.494  0.00  0.00    +0.105 C 
ATOM     14  C   UNL     1      11.708   6.229   4.318  0.00  0.00    +0.182 C 
ATOM     15  C   UNL     1      11.055   8.361   3.425  0.00  0.00    +0.043 C 
ATOM     16  C   UNL     1      11.095   7.361   2.279  0.00  0.00    +0.111 C 
ATOM     18  C   UNL     1      11.435   4.839   2.270  0.00  0.00    +0.267 C 
ENDROOT
BRANCH  13   7
ATOM      3  O   UNL     1      13.762   8.871   6.396  0.00  0.00    -0.252 OA
ATOM      7  N   UNL     1      13.336   8.064   4.271  0.00  0.00    -0.294 N 
ATOM      9  N   UNL     1      15.442   8.838   4.757  0.00  0.00    -0.269 N 
ATOM     20  C   UNL     1      14.156   8.621   5.259  0.00  0.00    +0.304 C 
ATOM     40  H   UNL     1      13.755   7.825   3.378  0.00  0.00    +0.151 HD
ATOM     42  H   UNL     1      15.604   8.575   3.788  0.00  0.00    +0.156 HD
BRANCH   9  26
ATOM     26  C   UNL     1      16.558   9.382   5.434  0.00  0.00    +0.038 A 
ATOM     30  C   UNL     1      17.605   8.549   5.833  0.00  0.00    +0.069 A 
ATOM     32  C   UNL     1      16.612  10.749   5.705  0.00  0.00    +0.023 A 
ATOM     36  C   UNL     1      18.705   9.085   6.501  0.00  0.00    +0.122 A 
ATOM     37  C   UNL     1      17.713  11.284   6.374  0.00  0.00    +0.005 A 
ATOM     38  C   UNL     1      18.759  10.453   6.772  0.00  0.00    +0.046 A 
BRANCH  36   5
ATOM      5  O   UNL     1      19.726   8.274   6.892  0.00  0.00    -0.495 OA
ATOM     39  C   UNL     1      21.039   8.631   6.463  0.00  0.00    +0.277 C 
ENDBRANCH  36   5
ENDBRANCH   9  26
ENDBRANCH  13   7
BRANCH  18  21
ATOM     10  N   UNL     1      12.393   4.947   0.075  0.00  0.00    -0.247 NA
ATOM     12  N   UNL     1       9.860   4.716  -1.108  0.00  0.00    -0.259 NA
ATOM     21  C   UNL     1      11.269   4.835   0.811  0.00  0.00    +0.144 A 
ATOM     25  C   UNL     1      10.026   4.720   0.229  0.00  0.00    +0.143 A 
ATOM     29  C   UNL     1      12.228   4.942  -1.263  0.00  0.00    +0.131 A 
ATOM     31  C   UNL     1      10.983   4.828  -1.844  0.00  0.00    +0.130 A 
ENDBRANCH  18  21
BRANCH  14  17
ATOM      1  O   UNL     1       9.647   5.064   4.620  0.00  0.00    -0.274 OA
ATOM      8  N   UNL     1      10.562   6.222   6.421  0.00  0.00    -0.302 N 
ATOM     17  C   UNL     1      10.528   5.761   5.116  0.00  0.00    +0.236 C 
ATOM     41  H   UNL     1      11.383   6.727   6.742  0.00  0.00    +0.150 HD
BRANCH   8  19
ATOM     19  C   UNL     1       9.530   5.931   7.389  0.00  0.00    +0.163 C 
BRANCH  19  23
ATOM      4  O   UNL     1      10.544   5.385   9.529  0.00  0.00    -0.274 OA
ATOM     11  N   UNL     1      10.151   3.686   8.034  0.00  0.00    -0.328 N 
ATOM     23  C   UNL     1      10.142   5.006   8.432  0.00  0.00    +0.231 C 
ATOM     43  H   UNL     1       9.794   3.385   7.133  0.00  0.00    +0.145 HD
ATOM     44  H   UNL     1      10.520   2.961   8.642  0.00  0.00    +0.145 HD
ENDBRANCH  19  23
BRANCH  19  22
ATOM     22  C   UNL     1       8.984   7.198   8.054  0.00  0.00    +0.067 C 
BRANCH  22  24
ATOM     24  C   UNL     1       8.850   8.353   7.090  0.00  0.00    -0.045 A 
ATOM     27  C   UNL     1       7.973   8.260   6.009  0.00  0.00    +0.004 A 
ATOM     28  C   UNL     1       9.602   9.512   7.281  0.00  0.00    +0.004 A 
ATOM     33  C   UNL     1       7.849   9.327   5.119  0.00  0.00    +0.000 A 
ATOM     34  C   UNL     1       9.477  10.578   6.391  0.00  0.00    +0.000 A 
ATOM     35  C   UNL     1       8.602  10.486   5.309  0.00  0.00    +0.000 A 
ENDBRANCH  22  24
ENDBRANCH  19  22
ENDBRANCH   8  19
ENDBRANCH  14  17
TORSDOF 9
ENDMDL
MODEL 2
REMARK VINA RESULT:      -6.8     29.474     34.346
REMARK  Name = 11882086
REMARK  10 active torsions:
REMARK  status: ('A' for Active; 'I' for Inactive)
REMARK    1  A    between atoms: O_5  and  C_36
REMARK    2  A    between atoms: O_5  and  C_39
REMARK    3  A    between atoms: N_7  and  C_13
REMARK    4  A    between atoms: N_8  and  C_19
REMARK    5  A    between atoms: N_9  and  C_26
REMARK    6  A    between atoms: C_14  and  C_17
REMARK    7  A    between atoms: C_18  and  C_21
REMARK    8  A    between atoms: C_19  and  C_22
REMARK    9  A    between atoms: C_19  and  C_23
REMARK   10  A    between atoms: C_22  and  C_24
REMARK                            x       y       z     vdW  Elec       q    Type
REMARK                         _______ _______ _______ _____ _____    ______ ____
ROOT
ATOM      2  O   UNL     1     -14.949   9.008  23.430  0.00  0.00    -0.268 OA
ATOM      6  N   UNL     1     -16.494   7.266  23.461  0.00  0.00    -0.283 N 
ATOM     13  C   UNL     1     -16.329   4.941  23.898  0.00  0.00    +0.105 C 
ATOM     14  C   UNL     1     -15.525   6.176  23.488  0.00  0.00    +0.182 C 
ATOM     15  C   UNL     1     -17.741   5.253  23.398  0.00  0.00    +0.043 C 
ATOM     16  C   UNL     1     -17.863   6.761  23.569  0.00  0.00    +0.111 C 
ATOM     18  C   UNL     1     -16.103   8.598  23.522  0.00  0.00    +0.267 C 
ENDROOT
BRANCH  13   7
ATOM      3  O   UNL     1     -15.708   2.533  25.320  0.00  0.00    -0.252 OA
ATOM      7  N   UNL     1     -16.317   4.763  25.332  0.00  0.00    -0.294 N 
ATOM      9  N   UNL     1     -16.071   3.676  27.338  0.00  0.00    -0.269 N 
ATOM     20  C   UNL     1     -16.000   3.548  25.948  0.00  0.00    +0.304 C 
ATOM     40  H   UNL     1     -16.481   5.573  25.921  0.00  0.00    +0.151 HD
ATOM     42  H   UNL     1     -16.331   4.591  27.699  0.00  0.00    +0.156 HD
BRANCH   9  26
ATOM     26  C   UNL     1     -15.824   2.684  28.315  0.00  0.00    +0.038 A 
ATOM     30  C   UNL     1     -14.763   2.835  29.209  0.00  0.00    +0.069 A 
ATOM     32  C   UNL     1     -16.639   1.554  28.384  0.00  0.00    +0.023 A 
ATOM     36  C   UNL     1     -14.519   1.856  30.172  0.00  0.00    +0.122 A 
ATOM     37  C   UNL     1     -16.394   0.575  29.348  0.00  0.00    +0.005 A 
ATOM     38  C   UNL     1     -15.334   0.726  30.241  0.00  0.00    +0.046 A 
BRANCH  36   5
ATOM      5  O   UNL     1     -13.484   2.002  31.045  0.00  0.00    -0.495 OA
ATOM     39  C   UNL     1     -13.355   3.266  31.693  0.00  0.00    +0.277 C 
ENDBRANCH  36   5
ENDBRANCH   9  26
ENDBRANCH  13   7
BRANCH  18  21
ATOM     10  N   UNL     1     -17.474   9.900  24.995  0.00  0.00    -0.247 NA
ATOM     12  N   UNL     1     -18.766  11.112  22.821  0.00  0.00    -0.259 NA
ATOM     21  C   UNL     1     -17.160   9.597  23.720  0.00  0.00    +0.144 A 
ATOM     25  C   UNL     1     -17.794  10.194  22.652  0.00  0.00    +0.143 A 
ATOM     29  C   UNL     1     -18.445  10.819  25.165  0.00  0.00    +0.131 A 
ATOM     31  C   UNL     1     -19.080  11.415  24.096  0.00  0.00    +0.130 A 
ENDBRANCH  18  21
BRANCH  14  17
ATOM      1  O   UNL     1     -15.424   5.212  21.307  0.00  0.00    -0.274 OA
ATOM      8  N   UNL     1     -13.975   6.955  21.837  0.00  0.00    -0.302 N 
ATOM     17  C   UNL     1     -14.991   6.050  22.092  0.00  0.00    +0.236 C 
ATOM     41  H   UNL     1     -13.754   7.657  22.538  0.00  0.00    +0.150 HD
BRANCH   8  19
ATOM     19  C   UNL     1     -13.278   7.025  20.573  0.00  0.00    +0.163 C 
BRANCH  19  23
ATOM      4  O   UNL     1     -14.327   7.937  18.580  0.00  0.00    -0.274 OA
ATOM     11  N   UNL     1     -14.178   9.264  20.449  0.00  0.00    -0.328 N 
ATOM     23  C   UNL     1     -13.963   8.100  19.742  0.00  0.00    +0.231 C 
ATOM     43  H   UNL     1     -13.891   9.376  21.416  0.00  0.00    +0.145 HD
ATOM     44  H   UNL     1     -14.640  10.058  20.017  0.00  0.00    +0.145 HD
ENDBRANCH  19  23
BRANCH  19  22
ATOM     22  C   UNL     1     -11.791   7.352  20.748  0.00  0.00    +0.067 C 
BRANCH  22  24
ATOM     24  C   UNL     1     -11.191   8.014  19.532  0.00  0.00    -0.045 A 
ATOM     27  C   UNL     1     -11.138   7.328  18.318  0.00  0.00    +0.004 A 
ATOM     28  C   UNL     1     -10.689   9.313  19.621  0.00  0.00    +0.004 A 
ATOM     33  C   UNL     1     -10.584   7.941  17.194  0.00  0.00    +0.000 A 
ATOM     34  C   UNL     1     -10.136   9.925  18.497  0.00  0.00    +0.000 A 
ATOM     35  C   UNL     1     -10.082   9.240  17.284  0.00  0.00    +0.000 A 
ENDBRANCH  22  24
ENDBRANCH  19  22
ENDBRANCH   8  19
ENDBRANCH  14  17
TORSDOF 9
ENDMDL
MODEL 3
REMARK VINA RESULT:      -6.7      2.761      4.115
REMARK  Name = 11882086
REMARK  10 active torsions:
REMARK  status: ('A' for Active; 'I' for Inactive)
REMARK    1  A    between atoms: O_5  and  C_36
REMARK    2  A    between atoms: O_5  and  C_39
REMARK    3  A    between atoms: N_7  and  C_13
REMARK    4  A    between atoms: N_8  and  C_19
REMARK    5  A    between atoms: N_9  and  C_26
REMARK    6  A    between atoms: C_14  and  C_17
REMARK    7  A    between atoms: C_18  and  C_21
REMARK    8  A    between atoms: C_19  and  C_22
REMARK    9  A    between atoms: C_19  and  C_23
REMARK   10  A    between atoms: C_22  and  C_24
REMARK                            x       y       z     vdW  Elec       q    Type
REMARK                         _______ _______ _______ _____ _____    ______ ____
ROOT
ATOM      2  O   UNL     1      13.004   4.372   2.051  0.00  0.00    -0.268 OA
ATOM      6  N   UNL     1      14.048   6.447   1.883  0.00  0.00    -0.283 N 
ATOM     13  C   UNL     1      15.178   7.839   3.435  0.00  0.00    +0.105 C 
ATOM     14  C   UNL     1      14.169   6.695   3.316  0.00  0.00    +0.182 C 
ATOM     15  C   UNL     1      15.016   8.596   2.116  0.00  0.00    +0.043 C 
ATOM     16  C   UNL     1      14.697   7.503   1.106  0.00  0.00    +0.111 C 
ATOM     18  C   UNL     1      13.546   5.251   1.386  0.00  0.00    +0.267 C 
ENDROOT
BRANCH  13   7
ATOM      3  O   UNL     1      17.436   9.258   4.481  0.00  0.00    -0.252 OA
ATOM      7  N   UNL     1      16.524   7.334   3.580  0.00  0.00    -0.294 N 
ATOM      9  N   UNL     1      18.754   7.349   4.122  0.00  0.00    -0.269 N 
ATOM     20  C   UNL     1      17.573   8.097   4.104  0.00  0.00    +0.304 C 
ATOM     40  H   UNL     1      16.703   6.361   3.353  0.00  0.00    +0.151 HD
ATOM     42  H   UNL     1      18.696   6.397   3.769  0.00  0.00    +0.156 HD
BRANCH   9  26
ATOM     26  C   UNL     1      20.031   7.755   4.573  0.00  0.00    +0.038 A 
ATOM     30  C   UNL     1      21.097   7.828   3.675  0.00  0.00    +0.069 A 
ATOM     32  C   UNL     1      20.227   8.079   5.915  0.00  0.00    +0.023 A 
ATOM     36  C   UNL     1      22.357   8.228   4.120  0.00  0.00    +0.122 A 
ATOM     37  C   UNL     1      21.488   8.478   6.360  0.00  0.00    +0.005 A 
ATOM     38  C   UNL     1      22.553   8.552   5.462  0.00  0.00    +0.046 A 
BRANCH  36   5
ATOM      5  O   UNL     1      23.398   8.299   3.245  0.00  0.00    -0.495 OA
ATOM     39  C   UNL     1      24.408   9.268   3.516  0.00  0.00    +0.277 C 
ENDBRANCH  36   5
ENDBRANCH   9  26
ENDBRANCH  13   7
BRANCH  18  21
ATOM     10  N   UNL     1      14.869   4.538  -0.482  0.00  0.00    -0.247 NA
ATOM     12  N   UNL     1      12.759   5.062  -2.254  0.00  0.00    -0.259 NA
ATOM     21  C   UNL     1      13.683   5.016  -0.057  0.00  0.00    +0.144 A 
ATOM     25  C   UNL     1      12.646   5.272  -0.928  0.00  0.00    +0.143 A 
ATOM     29  C   UNL     1      14.982   4.326  -1.809  0.00  0.00    +0.131 A 
ATOM     31  C   UNL     1      13.945   4.584  -2.679  0.00  0.00    +0.130 A 
ENDBRANCH  18  21
BRANCH  14  17
ATOM      1  O   UNL     1      12.490   8.287   3.901  0.00  0.00    -0.274 OA
ATOM      8  N   UNL     1      12.007   6.018   4.091  0.00  0.00    -0.302 N 
ATOM     17  C   UNL     1      12.807   7.107   3.790  0.00  0.00    +0.236 C 
ATOM     41  H   UNL     1      12.350   5.084   3.884  0.00  0.00    +0.150 HD
BRANCH   8  19
ATOM     19  C   UNL     1      10.656   6.144   4.590  0.00  0.00    +0.163 C 
BRANCH  19  23
ATOM      4  O   UNL     1       9.897   5.986   2.287  0.00  0.00    -0.274 OA
ATOM     11  N   UNL     1       8.775   7.387   3.720  0.00  0.00    -0.328 N 
ATOM     23  C   UNL     1       9.771   6.488   3.401  0.00  0.00    +0.231 C 
ATOM     43  H   UNL     1       8.669   7.776   4.651  0.00  0.00    +0.145 HD
ATOM     44  H   UNL     1       8.105   7.692   3.021  0.00  0.00    +0.145 HD
ENDBRANCH  19  23
BRANCH  19  22
ATOM     22  C   UNL     1      10.166   4.859   5.267  0.00  0.00    +0.067 C 
BRANCH  22  24
ATOM     24  C   UNL     1       9.777   5.071   6.710  0.00  0.00    -0.045 A 
ATOM     27  C   UNL     1       9.793   3.999   7.602  0.00  0.00    +0.004 A 
ATOM     28  C   UNL     1       9.401   6.340   7.152  0.00  0.00    +0.004 A 
ATOM     33  C   UNL     1       9.434   4.195   8.935  0.00  0.00    +0.000 A 
ATOM     34  C   UNL     1       9.043   6.536   8.485  0.00  0.00    +0.000 A 
ATOM     35  C   UNL     1       9.058   5.464   9.377  0.00  0.00    +0.000 A 
ENDBRANCH  22  24
ENDBRANCH  19  22
ENDBRANCH   8  19
ENDBRANCH  14  17
TORSDOF 9
ENDMDL
MODEL 4
REMARK VINA RESULT:      -6.6     24.708     29.518
REMARK  Name = 11882086
REMARK  10 active torsions:
REMARK  status: ('A' for Active; 'I' for Inactive)
REMARK    1  A    between atoms: O_5  and  C_36
REMARK    2  A    between atoms: O_5  and  C_39
REMARK    3  A    between atoms: N_7  and  C_13
REMARK    4  A    between atoms: N_8  and  C_19
REMARK    5  A    between atoms: N_9  and  C_26
REMARK    6  A    between atoms: C_14  and  C_17
REMARK    7  A    between atoms: C_18  and  C_21
REMARK    8  A    between atoms: C_19  and  C_22
REMARK    9  A    between atoms: C_19  and  C_23
REMARK   10  A    between atoms: C_22  and  C_24
REMARK                            x       y       z     vdW  Elec       q    Type
REMARK                         _______ _______ _______ _____ _____    ______ ____
ROOT
ATOM      2  O   UNL     1      -6.181 -13.070  14.813  0.00  0.00    -0.268 OA
ATOM      6  N   UNL     1      -5.786 -12.411  17.012  0.00  0.00    -0.283 N 
ATOM     13  C   UNL     1      -5.816 -10.316  18.120  0.00  0.00    +0.105 C 
ATOM     14  C   UNL     1      -5.692 -10.979  16.748  0.00  0.00    +0.182 C 
ATOM     15  C   UNL     1      -5.273 -11.377  19.080  0.00  0.00    +0.043 C 
ATOM     16  C   UNL     1      -5.699 -12.693  18.444  0.00  0.00    +0.111 C 
ATOM     18  C   UNL     1      -6.112 -13.321  16.013  0.00  0.00    +0.267 C 
ENDROOT
BRANCH  13   7
ATOM      3  O   UNL     1      -7.735  -9.138  16.350  0.00  0.00    -0.252 OA
ATOM      7  N   UNL     1      -7.192  -9.999  18.425  0.00  0.00    -0.294 N 
ATOM      9  N   UNL     1      -9.326  -9.231  18.073  0.00  0.00    -0.269 N 
ATOM     20  C   UNL     1      -8.067  -9.423  17.498  0.00  0.00    +0.304 C 
ATOM     40  H   UNL     1      -7.561 -10.266  19.333  0.00  0.00    +0.151 HD
ATOM     42  H   UNL     1      -9.434  -9.522  19.042  0.00  0.00    +0.156 HD
BRANCH   9  26
ATOM     26  C   UNL     1     -10.480  -8.679  17.472  0.00  0.00    +0.038 A 
ATOM     30  C   UNL     1     -10.398  -7.462  16.792  0.00  0.00    +0.069 A 
ATOM     32  C   UNL     1     -11.701  -9.348  17.558  0.00  0.00    +0.023 A 
ATOM     36  C   UNL     1     -11.537  -6.917  16.199  0.00  0.00    +0.122 A 
ATOM     37  C   UNL     1     -12.839  -8.801  16.965  0.00  0.00    +0.005 A 
ATOM     38  C   UNL     1     -12.757  -7.586  16.286  0.00  0.00    +0.046 A 
BRANCH  36   5
ATOM      5  O   UNL     1     -11.458  -5.730  15.537  0.00  0.00    -0.495 OA
ATOM     39  C   UNL     1     -12.425  -5.491  14.516  0.00  0.00    +0.277 C 
ENDBRANCH  36   5
ENDBRANCH   9  26
ENDBRANCH  13   7
BRANCH  18  21
ATOM     10  N   UNL     1      -5.368 -15.560  16.441  0.00  0.00    -0.247 NA
ATOM     12  N   UNL     1      -7.956 -16.343  17.184  0.00  0.00    -0.259 NA
ATOM     21  C   UNL     1      -6.404 -14.698  16.432  0.00  0.00    +0.144 A 
ATOM     25  C   UNL     1      -7.675 -15.083  16.798  0.00  0.00    +0.143 A 
ATOM     29  C   UNL     1      -5.648 -16.820  16.828  0.00  0.00    +0.131 A 
ATOM     31  C   UNL     1      -6.920 -17.205  17.193  0.00  0.00    +0.130 A 
ENDBRANCH  18  21
BRANCH  14  17
ATOM      1  O   UNL     1      -3.431 -10.216  16.770  0.00  0.00    -0.274 OA
ATOM      8  N   UNL     1      -4.276 -11.180  14.827  0.00  0.00    -0.302 N 
ATOM     17  C   UNL     1      -4.341 -10.748  16.141  0.00  0.00    +0.236 C 
ATOM     41  H   UNL     1      -5.070 -11.679  14.435  0.00  0.00    +0.150 HD
BRANCH   8  19
ATOM     19  C   UNL     1      -3.091 -11.051  14.010  0.00  0.00    +0.163 C 
BRANCH  19  23
ATOM      4  O   UNL     1      -0.998 -11.428  15.186  0.00  0.00    -0.274 OA
ATOM     11  N   UNL     1      -2.296 -13.244  14.644  0.00  0.00    -0.328 N 
ATOM     23  C   UNL     1      -2.005 -11.896  14.661  0.00  0.00    +0.231 C 
ATOM     43  H   UNL     1      -3.143 -13.614  14.226  0.00  0.00    +0.145 HD
ATOM     44  H   UNL     1      -1.661 -13.919  15.058  0.00  0.00    +0.145 HD
ENDBRANCH  19  23
BRANCH  19  22
ATOM     22  C   UNL     1      -3.330 -11.507  12.567  0.00  0.00    +0.067 C 
BRANCH  22  24
ATOM     24  C   UNL     1      -3.841 -10.397  11.681  0.00  0.00    -0.045 A 
ATOM     27  C   UNL     1      -3.097  -9.990  10.573  0.00  0.00    +0.004 A 
ATOM     28  C   UNL     1      -5.058  -9.779  11.969  0.00  0.00    +0.004 A 
ATOM     33  C   UNL     1      -3.570  -8.965   9.754  0.00  0.00    +0.000 A 
ATOM     34  C   UNL     1      -5.530  -8.754  11.149  0.00  0.00    +0.000 A 
ATOM     35  C   UNL     1      -4.787  -8.346  10.042  0.00  0.00    +0.000 A 
ENDBRANCH  22  24
ENDBRANCH  19  22
ENDBRANCH   8  19
ENDBRANCH  14  17
TORSDOF 9
ENDMDL
MODEL 5
REMARK VINA RESULT:      -6.6     25.419     30.501
REMARK  Name = 11882086
REMARK  10 active torsions:
REMARK  status: ('A' for Active; 'I' for Inactive)
REMARK    1  A    between atoms: O_5  and  C_36
REMARK    2  A    between atoms: O_5  and  C_39
REMARK    3  A    between atoms: N_7  and  C_13
REMARK    4  A    between atoms: N_8  and  C_19
REMARK    5  A    between atoms: N_9  and  C_26
REMARK    6  A    between atoms: C_14  and  C_17
REMARK    7  A    between atoms: C_18  and  C_21
REMARK    8  A    between atoms: C_19  and  C_22
REMARK    9  A    between atoms: C_19  and  C_23
REMARK   10  A    between atoms: C_22  and  C_24
REMARK                            x       y       z     vdW  Elec       q    Type
REMARK                         _______ _______ _______ _____ _____    ______ ____
ROOT
ATOM      2  O   UNL     1      -6.207 -13.311  14.858  0.00  0.00    -0.268 OA
ATOM      6  N   UNL     1      -5.445 -12.722  16.978  0.00  0.00    -0.283 N 
ATOM     13  C   UNL     1      -6.055 -11.031  18.524  0.00  0.00    +0.105 C 
ATOM     14  C   UNL     1      -6.112 -11.427  17.048  0.00  0.00    +0.182 C 
ATOM     15  C   UNL     1      -4.801 -11.741  19.036  0.00  0.00    +0.043 C 
ATOM     16  C   UNL     1      -4.763 -13.035  18.234  0.00  0.00    +0.111 C 
ATOM     18  C   UNL     1      -5.632 -13.587  15.907  0.00  0.00    +0.267 C 
ENDROOT
BRANCH  13   7
ATOM      3  O   UNL     1      -8.727 -10.040  18.221  0.00  0.00    -0.252 OA
ATOM      7  N   UNL     1      -7.231 -11.485  19.231  0.00  0.00    -0.294 N 
ATOM      9  N   UNL     1      -9.441 -11.579  19.843  0.00  0.00    -0.269 N 
ATOM     20  C   UNL     1      -8.505 -10.945  19.021  0.00  0.00    +0.304 C 
ATOM     40  H   UNL     1      -7.141 -12.276  19.861  0.00  0.00    +0.151 HD
ATOM     42  H   UNL     1      -9.090 -12.312  20.454  0.00  0.00    +0.156 HD
BRANCH   9  26
ATOM     26  C   UNL     1     -10.829 -11.327  19.932  0.00  0.00    +0.038 A 
ATOM     30  C   UNL     1     -11.743 -12.305  19.538  0.00  0.00    +0.069 A 
ATOM     32  C   UNL     1     -11.286 -10.099  20.412  0.00  0.00    +0.023 A 
ATOM     36  C   UNL     1     -13.112 -12.056  19.625  0.00  0.00    +0.122 A 
ATOM     37  C   UNL     1     -12.657  -9.851  20.498  0.00  0.00    +0.005 A 
ATOM     38  C   UNL     1     -13.569 -10.829  20.105  0.00  0.00    +0.046 A 
BRANCH  36   5
ATOM      5  O   UNL     1     -14.004 -13.011  19.240  0.00  0.00    -0.495 OA
ATOM     39  C   UNL     1     -13.840 -14.314  19.798  0.00  0.00    +0.277 C 
ENDBRANCH  36   5
ENDBRANCH   9  26
ENDBRANCH  13   7
BRANCH  18  21
ATOM     10  N   UNL     1      -3.838 -15.152  15.625  0.00  0.00    -0.247 NA
ATOM     12  N   UNL     1      -5.387 -17.219  16.717  0.00  0.00    -0.259 NA
ATOM     21  C   UNL     1      -5.101 -14.949  16.047  0.00  0.00    +0.144 A 
ATOM     25  C   UNL     1      -5.862 -15.965  16.584  0.00  0.00    +0.143 A 
ATOM     29  C   UNL     1      -3.362 -16.406  15.759  0.00  0.00    +0.131 A 
ATOM     31  C   UNL     1      -4.123 -17.421  16.295  0.00  0.00    +0.130 A 
ENDBRANCH  18  21
BRANCH  14  17
ATOM      1  O   UNL     1      -5.624  -9.314  16.050  0.00  0.00    -0.274 OA
ATOM      8  N   UNL     1      -4.227 -11.121  15.601  0.00  0.00    -0.302 N 
ATOM     17  C   UNL     1      -5.309 -10.491  16.193  0.00  0.00    +0.236 C 
ATOM     41  H   UNL     1      -4.019 -12.083  15.856  0.00  0.00    +0.150 HD
BRANCH   8  19
ATOM     19  C   UNL     1      -3.309 -10.446  14.713  0.00  0.00    +0.163 C 
BRANCH  19  23
ATOM      4  O   UNL     1      -1.706 -10.989  16.456  0.00  0.00    -0.274 OA
ATOM     11  N   UNL     1      -1.059  -9.565  14.773  0.00  0.00    -0.328 N 
ATOM     23  C   UNL     1      -1.969 -10.368  15.429  0.00  0.00    +0.231 C 
ATOM     43  H   UNL     1      -1.284  -9.077  13.913  0.00  0.00    +0.145 HD
ATOM     44  H   UNL     1      -0.120  -9.437  15.137  0.00  0.00    +0.145 HD
ENDBRANCH  19  23
BRANCH  19  22
ATOM     22  C   UNL     1      -3.157 -11.175  13.373  0.00  0.00    +0.067 C 
BRANCH  22  24
ATOM     24  C   UNL     1      -3.606 -10.339  12.199  0.00  0.00    -0.045 A 
ATOM     27  C   UNL     1      -4.916  -9.862  12.142  0.00  0.00    +0.004 A 
ATOM     28  C   UNL     1      -2.711 -10.043  11.171  0.00  0.00    +0.004 A 
ATOM     33  C   UNL     1      -5.330  -9.089  11.058  0.00  0.00    +0.000 A 
ATOM     34  C   UNL     1      -3.126  -9.270  10.087  0.00  0.00    +0.000 A 
ATOM     35  C   UNL     1      -4.435  -8.793  10.029  0.00  0.00    +0.000 A 
ENDBRANCH  22  24
ENDBRANCH  19  22
ENDBRANCH   8  19
ENDBRANCH  14  17
TORSDOF 9
ENDMDL
MODEL 6
REMARK VINA RESULT:      -6.4      2.674      5.873
REMARK  Name = 11882086
REMARK  10 active torsions:
REMARK  status: ('A' for Active; 'I' for Inactive)
REMARK    1  A    between atoms: O_5  and  C_36
REMARK    2  A    between atoms: O_5  and  C_39
REMARK    3  A    between atoms: N_7  and  C_13
REMARK    4  A    between atoms: N_8  and  C_19
REMARK    5  A    between atoms: N_9  and  C_26
REMARK    6  A    between atoms: C_14  and  C_17
REMARK    7  A    between atoms: C_18  and  C_21
REMARK    8  A    between atoms: C_19  and  C_22
REMARK    9  A    between atoms: C_19  and  C_23
REMARK   10  A    between atoms: C_22  and  C_24
REMARK                            x       y       z     vdW  Elec       q    Type
REMARK                         _______ _______ _______ _____ _____    ______ ____
ROOT
ATOM      2  O   UNL     1      11.456  10.701   5.266  0.00  0.00    -0.268 OA
ATOM      6  N   UNL     1      12.445   8.819   6.218  0.00  0.00    -0.283 N 
ATOM     13  C   UNL     1      14.098   7.289   5.477  0.00  0.00    +0.105 C 
ATOM     14  C   UNL     1      13.074   8.320   5.000  0.00  0.00    +0.182 C 
ATOM     15  C   UNL     1      13.506   6.781   6.793  0.00  0.00    +0.043 C 
ATOM     16  C   UNL     1      12.812   8.004   7.376  0.00  0.00    +0.111 C 
ATOM     18  C   UNL     1      11.758  10.026   6.247  0.00  0.00    +0.267 C 
ENDROOT
BRANCH  13   7
ATOM      3  O   UNL     1      16.137   7.727   3.512  0.00  0.00    -0.252 OA
ATOM      7  N   UNL     1      15.390   7.899   5.693  0.00  0.00    -0.294 N 
ATOM      9  N   UNL     1      17.482   8.690   5.178  0.00  0.00    -0.269 N 
ATOM     20  C   UNL     1      16.332   8.077   4.674  0.00  0.00    +0.304 C 
ATOM     40  H   UNL     1      15.599   8.276   6.613  0.00  0.00    +0.151 HD
ATOM     42  H   UNL     1      17.482   8.914   6.170  0.00  0.00    +0.156 HD
BRANCH   9  26
ATOM     26  C   UNL     1      18.658   9.041   4.475  0.00  0.00    +0.038 A 
ATOM     30  C   UNL     1      19.731   8.151   4.424  0.00  0.00    +0.069 A 
ATOM     32  C   UNL     1      18.745  10.277   3.834  0.00  0.00    +0.023 A 
ATOM     36  C   UNL     1      20.891   8.497   3.731  0.00  0.00    +0.122 A 
ATOM     37  C   UNL     1      19.906  10.622   3.141  0.00  0.00    +0.005 A 
ATOM     38  C   UNL     1      20.978   9.733   3.090  0.00  0.00    +0.046 A 
BRANCH  36   5
ATOM      5  O   UNL     1      21.940   7.630   3.682  0.00  0.00    -0.495 OA
ATOM     39  C   UNL     1      21.741   6.339   4.255  0.00  0.00    +0.277 C 
ENDBRANCH  36   5
ENDBRANCH   9  26
ENDBRANCH  13   7
BRANCH  18  21
ATOM     10  N   UNL     1      12.313  11.199   8.263  0.00  0.00    -0.247 NA
ATOM     12  N   UNL     1       9.720  10.827   9.265  0.00  0.00    -0.259 NA
ATOM     21  C   UNL     1      11.366  10.541   7.565  0.00  0.00    +0.144 A 
ATOM     25  C   UNL     1      10.092  10.360   8.057  0.00  0.00    +0.143 A 
ATOM     29  C   UNL     1      11.941  11.667   9.471  0.00  0.00    +0.131 A 
ATOM     31  C   UNL     1      10.667  11.484   9.963  0.00  0.00    +0.130 A 
ENDBRANCH  18  21
BRANCH  14  17
ATOM      1  O   UNL     1      11.250   8.342   3.460  0.00  0.00    -0.274 OA
ATOM      8  N   UNL     1      11.912   6.315   4.394  0.00  0.00    -0.302 N 
ATOM     17  C   UNL     1      11.984   7.682   4.191  0.00  0.00    +0.236 C 
ATOM     41  H   UNL     1      12.624   5.865   4.963  0.00  0.00    +0.150 HD
BRANCH   8  19
ATOM     19  C   UNL     1      10.932   5.470   3.750  0.00  0.00    +0.163 C 
BRANCH  19  23
ATOM      4  O   UNL     1      11.268   3.433   2.468  0.00  0.00    -0.274 OA
ATOM     11  N   UNL     1      12.884   5.064   2.384  0.00  0.00    -0.328 N 
ATOM     23  C   UNL     1      11.691   4.530   2.824  0.00  0.00    +0.231 C 
ATOM     43  H   UNL     1      13.210   5.981   2.669  0.00  0.00    +0.145 HD
ATOM     44  H   UNL     1      13.483   4.546   1.749  0.00  0.00    +0.145 HD
ENDBRANCH  19  23
BRANCH  19  22
ATOM     22  C   UNL     1      10.102   4.671   4.759  0.00  0.00    +0.067 C 
BRANCH  22  24
ATOM     24  C   UNL     1       9.645   5.505   5.931  0.00  0.00    -0.045 A 
ATOM     27  C   UNL     1       8.779   6.580   5.728  0.00  0.00    +0.004 A 
ATOM     28  C   UNL     1      10.090   5.202   7.219  0.00  0.00    +0.004 A 
ATOM     33  C   UNL     1       8.356   7.350   6.811  0.00  0.00    +0.000 A 
ATOM     34  C   UNL     1       9.667   5.973   8.302  0.00  0.00    +0.000 A 
ATOM     35  C   UNL     1       8.801   7.047   8.098  0.00  0.00    +0.000 A 
ENDBRANCH  22  24
ENDBRANCH  19  22
ENDBRANCH   8  19
ENDBRANCH  14  17
TORSDOF 9
ENDMDL
MODEL 7
REMARK VINA RESULT:      -6.3     30.117     34.929
REMARK  Name = 11882086
REMARK  10 active torsions:
REMARK  status: ('A' for Active; 'I' for Inactive)
REMARK    1  A    between atoms: O_5  and  C_36
REMARK    2  A    between atoms: O_5  and  C_39
REMARK    3  A    between atoms: N_7  and  C_13
REMARK    4  A    between atoms: N_8  and  C_19
REMARK    5  A    between atoms: N_9  and  C_26
REMARK    6  A    between atoms: C_14  and  C_17
REMARK    7  A    between atoms: C_18  and  C_21
REMARK    8  A    between atoms: C_19  and  C_22
REMARK    9  A    between atoms: C_19  and  C_23
REMARK   10  A    between atoms: C_22  and  C_24
REMARK                            x       y       z     vdW  Elec       q    Type
REMARK                         _______ _______ _______ _____ _____    ______ ____
ROOT
ATOM      2  O   UNL     1     -14.858   8.340  23.418  0.00  0.00    -0.268 OA
ATOM      6  N   UNL     1     -16.623   6.866  23.785  0.00  0.00    -0.283 N 
ATOM     13  C   UNL     1     -16.742   4.580  24.405  0.00  0.00    +0.105 C 
ATOM     14  C   UNL     1     -15.827   5.643  23.795  0.00  0.00    +0.182 C 
ATOM     15  C   UNL     1     -18.146   5.071  24.047  0.00  0.00    +0.043 C 
ATOM     16  C   UNL     1     -18.025   6.588  24.096  0.00  0.00    +0.111 C 
ATOM     18  C   UNL     1     -16.038   8.122  23.681  0.00  0.00    +0.267 C 
ENDROOT
BRANCH  13   7
ATOM      3  O   UNL     1     -15.761   2.340  25.896  0.00  0.00    -0.252 OA
ATOM      7  N   UNL     1     -16.571   4.504  25.838  0.00  0.00    -0.294 N 
ATOM      9  N   UNL     1     -16.027   3.584  27.869  0.00  0.00    -0.269 N 
ATOM     20  C   UNL     1     -16.082   3.367  26.489  0.00  0.00    +0.304 C 
ATOM     40  H   UNL     1     -16.751   5.336  26.392  0.00  0.00    +0.151 HD
ATOM     42  H   UNL     1     -16.334   4.496  28.200  0.00  0.00    +0.156 HD
BRANCH   9  26
ATOM     26  C   UNL     1     -15.593   2.687  28.872  0.00  0.00    +0.038 A 
ATOM     30  C   UNL     1     -14.610   3.081  29.781  0.00  0.00    +0.069 A 
ATOM     32  C   UNL     1     -16.145   1.409  28.953  0.00  0.00    +0.023 A 
ATOM     36  C   UNL     1     -14.181   2.197  30.770  0.00  0.00    +0.122 A 
ATOM     37  C   UNL     1     -15.715   0.525  29.943  0.00  0.00    +0.005 A 
ATOM     38  C   UNL     1     -14.733   0.919  30.851  0.00  0.00    +0.046 A 
BRANCH  36   5
ATOM      5  O   UNL     1     -13.221   2.580  31.657  0.00  0.00    -0.495 OA
ATOM     39  C   UNL     1     -13.263   3.930  32.115  0.00  0.00    +0.277 C 
ENDBRANCH  36   5
ENDBRANCH   9  26
ENDBRANCH  13   7
BRANCH  18  21
ATOM     10  N   UNL     1     -17.009   9.717  25.183  0.00  0.00    -0.247 NA
ATOM     12  N   UNL     1     -18.369  10.967  23.074  0.00  0.00    -0.259 NA
ATOM     21  C   UNL     1     -16.904   9.285  23.911  0.00  0.00    +0.144 A 
ATOM     25  C   UNL     1     -17.571   9.900  22.875  0.00  0.00    +0.143 A 
ATOM     29  C   UNL     1     -17.806  10.786  25.382  0.00  0.00    +0.131 A 
ATOM     31  C   UNL     1     -18.474  11.400  24.345  0.00  0.00    +0.130 A 
ENDBRANCH  18  21
BRANCH  14  17
ATOM      1  O   UNL     1     -14.881   4.329  22.042  0.00  0.00    -0.274 OA
ATOM      8  N   UNL     1     -15.959   6.320  21.502  0.00  0.00    -0.302 N 
ATOM     17  C   UNL     1     -15.502   5.338  22.364  0.00  0.00    +0.236 C 
ATOM     41  H   UNL     1     -16.532   7.073  21.875  0.00  0.00    +0.150 HD
BRANCH   8  19
ATOM     19  C   UNL     1     -15.755   6.275  20.072  0.00  0.00    +0.163 C 
BRANCH  19  23
ATOM      4  O   UNL     1     -17.937   6.692  19.087  0.00  0.00    -0.274 OA
ATOM     11  N   UNL     1     -17.207   4.521  19.263  0.00  0.00    -0.328 N 
ATOM     23  C   UNL     1     -17.083   5.883  19.442  0.00  0.00    +0.231 C 
ATOM     43  H   UNL     1     -16.484   3.866  19.540  0.00  0.00    +0.145 HD
ATOM     44  H   UNL     1     -18.040   4.125  18.839  0.00  0.00    +0.145 HD
ENDBRANCH  19  23
BRANCH  19  22
ATOM     22  C   UNL     1     -15.274   7.618  19.512  0.00  0.00    +0.067 C 
BRANCH  22  24
ATOM     24  C   UNL     1     -13.771   7.701  19.404  0.00  0.00    -0.045 A 
ATOM     27  C   UNL     1     -13.178   8.079  18.199  0.00  0.00    +0.004 A 
ATOM     28  C   UNL     1     -12.974   7.401  20.509  0.00  0.00    +0.004 A 
ATOM     33  C   UNL     1     -11.789   8.156  18.099  0.00  0.00    +0.000 A 
ATOM     34  C   UNL     1     -11.585   7.479  20.409  0.00  0.00    +0.000 A 
ATOM     35  C   UNL     1     -10.992   7.856  19.204  0.00  0.00    +0.000 A 
ENDBRANCH  22  24
ENDBRANCH  19  22
ENDBRANCH   8  19
ENDBRANCH  14  17
TORSDOF 9
ENDMDL
MODEL 8
REMARK VINA RESULT:      -6.3      3.064      4.764
REMARK  Name = 11882086
REMARK  10 active torsions:
REMARK  status: ('A' for Active; 'I' for Inactive)
REMARK    1  A    between atoms: O_5  and  C_36
REMARK    2  A    between atoms: O_5  and  C_39
REMARK    3  A    between atoms: N_7  and  C_13
REMARK    4  A    between atoms: N_8  and  C_19
REMARK    5  A    between atoms: N_9  and  C_26
REMARK    6  A    between atoms: C_14  and  C_17
REMARK    7  A    between atoms: C_18  and  C_21
REMARK    8  A    between atoms: C_19  and  C_22
REMARK    9  A    between atoms: C_19  and  C_23
REMARK   10  A    between atoms: C_22  and  C_24
REMARK                            x       y       z     vdW  Elec       q    Type
REMARK                         _______ _______ _______ _____ _____    ______ ____
ROOT
ATOM      2  O   UNL     1      14.550   3.998   0.377  0.00  0.00    -0.268 OA
ATOM      6  N   UNL     1      15.168   6.224   0.675  0.00  0.00    -0.283 N 
ATOM     13  C   UNL     1      15.410   7.612   2.582  0.00  0.00    +0.105 C 
ATOM     14  C   UNL     1      14.744   6.336   2.067  0.00  0.00    +0.182 C 
ATOM     15  C   UNL     1      15.564   8.468   1.323  0.00  0.00    +0.043 C 
ATOM     16  C   UNL     1      15.824   7.450   0.221  0.00  0.00    +0.111 C 
ATOM     18  C   UNL     1      15.106   5.021  -0.016  0.00  0.00    +0.267 C 
ENDROOT
BRANCH  13   7
ATOM      3  O   UNL     1      17.040   9.420   4.093  0.00  0.00    -0.252 OA
ATOM      7  N   UNL     1      16.697   7.327   3.173  0.00  0.00    -0.294 N 
ATOM      9  N   UNL     1      18.632   7.713   4.347  0.00  0.00    -0.269 N 
ATOM     20  C   UNL     1      17.431   8.271   3.900  0.00  0.00    +0.304 C 
ATOM     40  H   UNL     1      17.057   6.379   3.115  0.00  0.00    +0.151 HD
ATOM     42  H   UNL     1      18.804   6.742   4.097  0.00  0.00    +0.156 HD
BRANCH   9  26
ATOM     26  C   UNL     1      19.646   8.334   5.111  0.00  0.00    +0.038 A 
ATOM     30  C   UNL     1      20.782   8.843   4.480  0.00  0.00    +0.069 A 
ATOM     32  C   UNL     1      19.513   8.437   6.496  0.00  0.00    +0.023 A 
ATOM     36  C   UNL     1      21.783   9.455   5.233  0.00  0.00    +0.122 A 
ATOM     37  C   UNL     1      20.516   9.049   7.249  0.00  0.00    +0.005 A 
ATOM     38  C   UNL     1      21.650   9.558   6.618  0.00  0.00    +0.046 A 
BRANCH  36   5
ATOM      5  O   UNL     1      22.892   9.951   4.618  0.00  0.00    -0.495 OA
ATOM     39  C   UNL     1      24.123   9.268   4.851  0.00  0.00    +0.277 C 
ENDBRANCH  36   5
ENDBRANCH   9  26
ENDBRANCH  13   7
BRANCH  18  21
ATOM     10  N   UNL     1      17.084   4.681  -1.327  0.00  0.00    -0.247 NA
ATOM     12  N   UNL     1      15.667   5.151  -3.700  0.00  0.00    -0.259 NA
ATOM     21  C   UNL     1      15.767   4.967  -1.326  0.00  0.00    +0.144 A 
ATOM     25  C   UNL     1      15.071   5.197  -2.493  0.00  0.00    +0.143 A 
ATOM     29  C   UNL     1      17.680   4.633  -2.535  0.00  0.00    +0.131 A 
ATOM     31  C   UNL     1      16.983   4.864  -3.701  0.00  0.00    +0.130 A 
ENDBRANCH  18  21
BRANCH  14  17
ATOM      1  O   UNL     1      12.693   7.527   1.794  0.00  0.00    -0.274 OA
ATOM      8  N   UNL     1      12.619   5.268   2.356  0.00  0.00    -0.302 N 
ATOM     17  C   UNL     1      13.250   6.462   2.045  0.00  0.00    +0.236 C 
ATOM     41  H   UNL     1      13.183   4.430   2.468  0.00  0.00    +0.150 HD
BRANCH   8  19
ATOM     19  C   UNL     1      11.183   5.128   2.425  0.00  0.00    +0.163 C 
BRANCH  19  23
ATOM      4  O   UNL     1       9.629   4.364   0.719  0.00  0.00    -0.274 OA
ATOM     11  N   UNL     1      11.778   3.552   0.692  0.00  0.00    -0.328 N 
ATOM     23  C   UNL     1      10.754   4.315   1.212  0.00  0.00    +0.231 C 
ATOM     43  H   UNL     1      12.708   3.539   1.097  0.00  0.00    +0.145 HD
ATOM     44  H   UNL     1      11.631   2.972  -0.128  0.00  0.00    +0.145 HD
ENDBRANCH  19  23
BRANCH  19  22
ATOM     22  C   UNL     1      10.729   4.441   3.717  0.00  0.00    +0.067 C 
BRANCH  22  24
ATOM     24  C   UNL     1       9.902   5.345   4.599  0.00  0.00    -0.045 A 
ATOM     27  C   UNL     1       9.853   5.121   5.976  0.00  0.00    +0.004 A 
ATOM     28  C   UNL     1       9.186   6.403   4.039  0.00  0.00    +0.004 A 
ATOM     33  C   UNL     1       9.090   5.957   6.791  0.00  0.00    +0.000 A 
ATOM     34  C   UNL     1       8.423   7.238   4.855  0.00  0.00    +0.000 A 
ATOM     35  C   UNL     1       8.374   7.015   6.231  0.00  0.00    +0.000 A 
ENDBRANCH  22  24
ENDBRANCH  19  22
ENDBRANCH   8  19
ENDBRANCH  14  17
TORSDOF 9
ENDMDL
MODEL 9
REMARK VINA RESULT:      -6.3     24.897     28.697
REMARK  Name = 11882086
REMARK  10 active torsions:
REMARK  status: ('A' for Active; 'I' for Inactive)
REMARK    1  A    between atoms: O_5  and  C_36
REMARK    2  A    between atoms: O_5  and  C_39
REMARK    3  A    between atoms: N_7  and  C_13
REMARK    4  A    between atoms: N_8  and  C_19
REMARK    5  A    between atoms: N_9  and  C_26
REMARK    6  A    between atoms: C_14  and  C_17
REMARK    7  A    between atoms: C_18  and  C_21
REMARK    8  A    between atoms: C_19  and  C_22
REMARK    9  A    between atoms: C_19  and  C_23
REMARK   10  A    between atoms: C_22  and  C_24
REMARK                            x       y       z     vdW  Elec       q    Type
REMARK                         _______ _______ _______ _____ _____    ______ ____
ROOT
ATOM      2  O   UNL     1      -4.898  -8.397  11.025  0.00  0.00    -0.268 OA
ATOM      6  N   UNL     1      -6.643  -9.784  11.699  0.00  0.00    -0.283 N 
ATOM     13  C   UNL     1      -7.623 -10.274  13.801  0.00  0.00    +0.105 C 
ATOM     14  C   UNL     1      -6.360  -9.735  13.129  0.00  0.00    +0.182 C 
ATOM     15  C   UNL     1      -8.215 -11.212  12.748  0.00  0.00    +0.043 C 
ATOM     16  C   UNL     1      -7.864 -10.542  11.426  0.00  0.00    +0.111 C 
ATOM     18  C   UNL     1      -5.923  -9.029  10.782  0.00  0.00    +0.267 C 
ENDROOT
BRANCH  13   7
ATOM      3  O   UNL     1     -10.291 -10.551  14.808  0.00  0.00    -0.252 OA
ATOM      7  N   UNL     1      -8.543  -9.206  14.118  0.00  0.00    -0.294 N 
ATOM      9  N   UNL     1     -10.489  -8.212  14.820  0.00  0.00    -0.269 N 
ATOM     20  C   UNL     1      -9.834  -9.429  14.608  0.00  0.00    +0.304 C 
ATOM     40  H   UNL     1      -8.215  -8.247  14.043  0.00  0.00    +0.151 HD
ATOM     42  H   UNL     1      -9.966  -7.368  14.601  0.00  0.00    +0.156 HD
BRANCH   9  26
ATOM     26  C   UNL     1     -11.801  -8.006  15.307  0.00  0.00    +0.038 A 
ATOM     30  C   UNL     1     -12.662  -7.134  14.640  0.00  0.00    +0.069 A 
ATOM     32  C   UNL     1     -12.233  -8.673  16.453  0.00  0.00    +0.023 A 
ATOM     36  C   UNL     1     -13.956  -6.930  15.120  0.00  0.00    +0.122 A 
ATOM     37  C   UNL     1     -13.527  -8.468  16.932  0.00  0.00    +0.005 A 
ATOM     38  C   UNL     1     -14.388  -7.597  16.266  0.00  0.00    +0.046 A 
BRANCH  36   5
ATOM      5  O   UNL     1     -14.796  -6.078  14.471  0.00  0.00    -0.495 OA
ATOM     39  C   UNL     1     -14.434  -5.693  13.146  0.00  0.00    +0.277 C 
ENDBRANCH  36   5
ENDBRANCH   9  26
ENDBRANCH  13   7
BRANCH  18  21
ATOM     10  N   UNL     1      -7.409  -8.078   9.159  0.00  0.00    -0.247 NA
ATOM     12  N   UNL     1      -6.407  -9.770   7.160  0.00  0.00    -0.259 NA
ATOM     21  C   UNL     1      -6.436  -8.977   9.407  0.00  0.00    +0.144 A 
ATOM     25  C   UNL     1      -5.943  -9.807   8.425  0.00  0.00    +0.143 A 
ATOM     29  C   UNL     1      -7.872  -8.040   7.894  0.00  0.00    +0.131 A 
ATOM     31  C   UNL     1      -7.379  -8.871   6.911  0.00  0.00    +0.130 A 
ENDBRANCH  18  21
BRANCH  14  17
ATOM      1  O   UNL     1      -4.966 -11.612  12.647  0.00  0.00    -0.274 OA
ATOM      8  N   UNL     1      -4.426 -10.241  14.450  0.00  0.00    -0.302 N 
ATOM     17  C   UNL     1      -5.183 -10.635  13.359  0.00  0.00    +0.236 C 
ATOM     41  H   UNL     1      -4.657  -9.368  14.917  0.00  0.00    +0.150 HD
BRANCH   8  19
ATOM     19  C   UNL     1      -3.251 -10.954  14.896  0.00  0.00    +0.163 C 
BRANCH  19  23
ATOM      4  O   UNL     1      -1.810 -10.467  13.001  0.00  0.00    -0.274 OA
ATOM     11  N   UNL     1      -1.298  -9.538  15.039  0.00  0.00    -0.328 N 
ATOM     23  C   UNL     1      -2.054 -10.326  14.197  0.00  0.00    +0.231 C 
ATOM     43  H   UNL     1      -1.525  -9.413  16.019  0.00  0.00    +0.145 HD
ATOM     44  H   UNL     1      -0.477  -9.048  14.696  0.00  0.00    +0.145 HD
ENDBRANCH  19  23
BRANCH  19  22
ATOM     22  C   UNL     1      -3.077 -10.888  16.417  0.00  0.00    +0.067 C 
BRANCH  22  24
ATOM     24  C   UNL     1      -4.262 -11.446  17.166  0.00  0.00    -0.045 A 
ATOM     27  C   UNL     1      -4.913 -10.667  18.123  0.00  0.00    +0.004 A 
ATOM     28  C   UNL     1      -4.708 -12.742  16.901  0.00  0.00    +0.004 A 
ATOM     33  C   UNL     1      -6.009 -11.183  18.814  0.00  0.00    +0.000 A 
ATOM     34  C   UNL     1      -5.804 -13.257  17.593  0.00  0.00    +0.000 A 
ATOM     35  C   UNL     1      -6.454 -12.478  18.550  0.00  0.00    +0.000 A 
ENDBRANCH  22  24
ENDBRANCH  19  22
ENDBRANCH   8  19
ENDBRANCH  14  17
TORSDOF 9
ENDMDL
MODEL 10
REMARK VINA RESULT:      -6.2      2.549      7.756
REMARK  Name = 11882086
REMARK  10 active torsions:
REMARK  status: ('A' for Active; 'I' for Inactive)
REMARK    1  A    between atoms: O_5  and  C_36
REMARK    2  A    between atoms: O_5  and  C_39
REMARK    3  A    between atoms: N_7  and  C_13
REMARK    4  A    between atoms: N_8  and  C_19
REMARK    5  A    between atoms: N_9  and  C_26
REMARK    6  A    between atoms: C_14  and  C_17
REMARK    7  A    between atoms: C_18  and  C_21
REMARK    8  A    between atoms: C_19  and  C_22
REMARK    9  A    between atoms: C_19  and  C_23
REMARK   10  A    between atoms: C_22  and  C_24
REMARK                            x       y       z     vdW  Elec       q    Type
REMARK                         _______ _______ _______ _____ _____    ______ ____
ROOT
ATOM      2  O   UNL     1      13.573  11.361   4.945  0.00  0.00    -0.268 OA
ATOM      6  N   UNL     1      13.699   9.218   5.848  0.00  0.00    -0.283 N 
ATOM     13  C   UNL     1      12.574   7.182   5.388  0.00  0.00    +0.105 C 
ATOM     14  C   UNL     1      12.481   8.700   5.234  0.00  0.00    +0.182 C 
ATOM     15  C   UNL     1      13.431   7.003   6.643  0.00  0.00    +0.043 C 
ATOM     16  C   UNL     1      14.404   8.172   6.588  0.00  0.00    +0.111 C 
ATOM     18  C   UNL     1      14.177  10.492   5.569  0.00  0.00    +0.267 C 
ENDROOT
BRANCH  13   7
ATOM      3  O   UNL     1      11.265   6.014   3.123  0.00  0.00    -0.252 OA
ATOM      7  N   UNL     1      13.209   6.578   4.239  0.00  0.00    -0.294 N 
ATOM      9  N   UNL     1      13.370   5.521   2.208  0.00  0.00    -0.269 N 
ATOM     20  C   UNL     1      12.492   6.030   3.170  0.00  0.00    +0.304 C 
ATOM     40  H   UNL     1      14.222   6.612   4.172  0.00  0.00    +0.151 HD
ATOM     42  H   UNL     1      14.364   5.612   2.403  0.00  0.00    +0.156 HD
BRANCH   9  26
ATOM     26  C   UNL     1      13.045   4.888   0.986  0.00  0.00    +0.038 A 
ATOM     30  C   UNL     1      12.655   5.655  -0.113  0.00  0.00    +0.069 A 
ATOM     32  C   UNL     1      13.114   3.500   0.879  0.00  0.00    +0.023 A 
ATOM     36  C   UNL     1      12.334   5.031  -1.319  0.00  0.00    +0.122 A 
ATOM     37  C   UNL     1      12.793   2.877  -0.328  0.00  0.00    +0.005 A 
ATOM     38  C   UNL     1      12.403   3.642  -1.426  0.00  0.00    +0.046 A 
BRANCH  36   5
ATOM      5  O   UNL     1      11.952   5.778  -2.391  0.00  0.00    -0.495 OA
ATOM     39  C   UNL     1      11.394   5.079  -3.503  0.00  0.00    +0.277 C 
ENDBRANCH  36   5
ENDBRANCH   9  26
ENDBRANCH  13   7
BRANCH  18  21
ATOM     10  N   UNL     1      16.557  10.418   5.297  0.00  0.00    -0.247 NA
ATOM     12  N   UNL     1      16.937  11.829   7.690  0.00  0.00    -0.259 NA
ATOM     21  C   UNL     1      15.521  10.824   6.056  0.00  0.00    +0.144 A 
ATOM     25  C   UNL     1      15.708  11.519   7.232  0.00  0.00    +0.143 A 
ATOM     29  C   UNL     1      17.786  10.729   5.754  0.00  0.00    +0.131 A 
ATOM     31  C   UNL     1      17.972  11.422   6.930  0.00  0.00    +0.130 A 
ENDBRANCH  18  21
BRANCH  14  17
ATOM      1  O   UNL     1      11.512   9.878   7.071  0.00  0.00    -0.274 OA
ATOM      8  N   UNL     1      10.112   8.996   5.433  0.00  0.00    -0.302 N 
ATOM     17  C   UNL     1      11.337   9.267   6.020  0.00  0.00    +0.236 C 
ATOM     41  H   UNL     1      10.094   8.549   4.520  0.00  0.00    +0.150 HD
BRANCH   8  19
ATOM     19  C   UNL     1       8.852   9.413   6.004  0.00  0.00    +0.163 C 
BRANCH  19  23
ATOM      4  O   UNL     1       7.291  10.078   4.265  0.00  0.00    -0.274 OA
ATOM     11  N   UNL     1       8.743  11.651   5.097  0.00  0.00    -0.328 N 
ATOM     23  C   UNL     1       8.212  10.380   5.019  0.00  0.00    +0.231 C 
ATOM     43  H   UNL     1       9.489  11.891   5.741  0.00  0.00    +0.145 HD
ATOM     44  H   UNL     1       8.397  12.398   4.504  0.00  0.00    +0.145 HD
ENDBRANCH  19  23
BRANCH  19  22
ATOM     22  C   UNL     1       7.918   8.229   6.273  0.00  0.00    +0.067 C 
BRANCH  22  24
ATOM     24  C   UNL     1       8.654   7.001   6.753  0.00  0.00    -0.045 A 
ATOM     27  C   UNL     1       8.944   5.969   5.860  0.00  0.00    +0.004 A 
ATOM     28  C   UNL     1       9.043   6.899   8.089  0.00  0.00    +0.004 A 
ATOM     33  C   UNL     1       9.625   4.835   6.304  0.00  0.00    +0.000 A 
ATOM     34  C   UNL     1       9.724   5.765   8.531  0.00  0.00    +0.000 A 
ATOM     35  C   UNL     1      10.014   4.733   7.639  0.00  0.00    +0.000 A 
ENDBRANCH  22  24
ENDBRANCH  19  22
ENDBRANCH   8  19
ENDBRANCH  14  17
TORSDOF 9
ENDMDL
