MODEL 1
REMARK VINA RESULT:      -6.7      0.000      0.000
REMARK  Name = 75367101
REMARK  8 active torsions:
REMARK  status: ('A' for Active; 'I' for Inactive)
REMARK    1  A    between atoms: O_2  and  C_9
REMARK    2  A    between atoms: N_4  and  C_7
REMARK    3  A    between atoms: N_4  and  C_8
REMARK    4  A    between atoms: N_5  and  C_17
REMARK    5  A    between atoms: N_6  and  C_19
REMARK    6  A    between atoms: C_12  and  C_17
REMARK    7  A    between atoms: C_19  and  C_20
REMARK    8  A    between atoms: C_19  and  C_21
REMARK                            x       y       z     vdW  Elec       q    Type
REMARK                         _______ _______ _______ _____ _____    ______ ____
ROOT
ATOM      1  O   UNL     1      10.604   8.510  20.023  0.00  0.00    -0.371 OA
ATOM      7  C   UNL     1      12.437   7.165  19.336  0.00  0.00    +0.111 C 
ATOM      9  C   UNL     1      12.323   7.109  20.847  0.00  0.00    +0.164 C 
ATOM     12  C   UNL     1      10.876   7.540  21.048  0.00  0.00    +0.165 C 
ATOM     13  C   UNL     1      11.628   8.412  19.018  0.00  0.00    +0.181 C 
ENDROOT
BRANCH   9   2
ATOM      2  O   UNL     1      12.565   5.816  21.367  0.00  0.00    -0.388 OA
ATOM     23  H   UNL     1      12.478   5.855  22.335  0.00  0.00    +0.210 HD
ENDBRANCH   9   2
BRANCH   7   4
ATOM      4  N   UNL     1      13.807   7.241  18.855  0.00  0.00    -0.306 NA
ATOM     22  H   UNL     1      13.888   7.960  18.136  0.00  0.00    +0.123 HD
BRANCH   4   8
ATOM      8  C   UNL     1      14.725   7.532  19.954  0.00  0.00    +0.054 C 
ATOM     10  C   UNL     1      15.805   6.446  20.032  0.00  0.00    +0.019 C 
ATOM     11  C   UNL     1      15.349   8.919  19.758  0.00  0.00    +0.019 C 
ATOM     14  C   UNL     1      16.829   6.758  21.122  0.00  0.00    +0.002 C 
ATOM     15  C   UNL     1      16.374   9.228  20.849  0.00  0.00    +0.002 C 
ATOM     16  C   UNL     1      17.444   8.142  20.937  0.00  0.00    +0.000 C 
ENDBRANCH   4   8
ENDBRANCH   7   4
BRANCH  12  17
ATOM     17  C   UNL     1      10.616   8.150  22.414  0.00  0.00    +0.140 C 
BRANCH  17   5
ATOM      3  O   UNL     1      12.326  10.398  23.007  0.00  0.00    -0.253 OA
ATOM      5  N   UNL     1      10.282   9.541  22.309  0.00  0.00    -0.297 N 
ATOM      6  N   UNL     1      10.591  11.825  22.428  0.00  0.00    -0.297 N 
ATOM     18  C   UNL     1      11.171  10.574  22.617  0.00  0.00    +0.300 C 
ATOM     24  H   UNL     1       9.343   9.788  22.009  0.00  0.00    +0.150 HD
ATOM     25  H   UNL     1       9.657  11.868  22.031  0.00  0.00    +0.150 HD
BRANCH   6  19
ATOM     19  C   UNL     1      11.295  13.062  22.673  0.00  0.00    +0.068 C 
ATOM     20  C   UNL     1      11.308  13.928  21.420  0.00  0.00    +0.027 C 
ATOM     21  C   UNL     1      10.672  13.801  23.850  0.00  0.00    +0.027 C 
ENDBRANCH   6  19
ENDBRANCH  17   5
ENDBRANCH  12  17
TORSDOF 6
ENDMDL
MODEL 2
REMARK VINA RESULT:      -6.4     27.358     29.776
REMARK  Name = 75367101
REMARK  8 active torsions:
REMARK  status: ('A' for Active; 'I' for Inactive)
REMARK    1  A    between atoms: O_2  and  C_9
REMARK    2  A    between atoms: N_4  and  C_7
REMARK    3  A    between atoms: N_4  and  C_8
REMARK    4  A    between atoms: N_5  and  C_17
REMARK    5  A    between atoms: N_6  and  C_19
REMARK    6  A    between atoms: C_12  and  C_17
REMARK    7  A    between atoms: C_19  and  C_20
REMARK    8  A    between atoms: C_19  and  C_21
REMARK                            x       y       z     vdW  Elec       q    Type
REMARK                         _______ _______ _______ _____ _____    ______ ____
ROOT
ATOM      1  O   UNL     1     -16.123   0.597  28.256  0.00  0.00    -0.371 OA
ATOM      7  C   UNL     1     -14.846   1.957  29.727  0.00  0.00    +0.111 C 
ATOM      9  C   UNL     1     -15.217   2.769  28.500  0.00  0.00    +0.164 C 
ATOM     12  C   UNL     1     -16.407   1.977  27.973  0.00  0.00    +0.165 C 
ATOM     13  C   UNL     1     -15.063   0.538  29.226  0.00  0.00    +0.181 C 
ENDROOT
BRANCH   9   2
ATOM      2  O   UNL     1     -15.567   4.103  28.812  0.00  0.00    -0.388 OA
ATOM     23  H   UNL     1     -15.158   4.689  28.152  0.00  0.00    +0.210 HD
ENDBRANCH   9   2
BRANCH   7   4
ATOM      4  N   UNL     1     -13.490   2.191  30.194  0.00  0.00    -0.306 NA
ATOM     22  H   UNL     1     -13.061   2.948  29.662  0.00  0.00    +0.123 HD
BRANCH   4   8
ATOM      8  C   UNL     1     -13.483   2.520  31.618  0.00  0.00    +0.054 C 
ATOM     10  C   UNL     1     -13.801   4.007  31.810  0.00  0.00    +0.019 C 
ATOM     11  C   UNL     1     -14.493   1.639  32.362  0.00  0.00    +0.019 C 
ATOM     14  C   UNL     1     -13.877   4.373  33.292  0.00  0.00    +0.002 C 
ATOM     15  C   UNL     1     -14.568   2.007  33.844  0.00  0.00    +0.002 C 
ATOM     16  C   UNL     1     -14.873   3.490  34.039  0.00  0.00    +0.000 C 
ENDBRANCH   4   8
ENDBRANCH   7   4
BRANCH  12  17
ATOM     17  C   UNL     1     -16.637   2.159  26.483  0.00  0.00    +0.140 C 
BRANCH  17   5
ATOM      3  O   UNL     1     -16.101   2.802  23.721  0.00  0.00    -0.253 OA
ATOM      5  N   UNL     1     -15.936   3.306  25.984  0.00  0.00    -0.297 N 
ATOM      6  N   UNL     1     -15.011   4.728  24.418  0.00  0.00    -0.297 N 
ATOM     18  C   UNL     1     -15.716   3.546  24.624  0.00  0.00    +0.300 C 
ATOM     24  H   UNL     1     -15.565   3.973  26.655  0.00  0.00    +0.150 HD
ATOM     25  H   UNL     1     -14.804   5.312  25.222  0.00  0.00    +0.150 HD
BRANCH   6  19
ATOM     19  C   UNL     1     -14.653   5.209  23.104  0.00  0.00    +0.068 C 
ATOM     20  C   UNL     1     -14.897   6.709  22.999  0.00  0.00    +0.027 C 
ATOM     21  C   UNL     1     -13.205   4.861  22.789  0.00  0.00    +0.027 C 
ENDBRANCH   6  19
ENDBRANCH  17   5
ENDBRANCH  12  17
TORSDOF 6
ENDMDL
MODEL 3
REMARK VINA RESULT:      -6.3     25.792     28.213
REMARK  Name = 75367101
REMARK  8 active torsions:
REMARK  status: ('A' for Active; 'I' for Inactive)
REMARK    1  A    between atoms: O_2  and  C_9
REMARK    2  A    between atoms: N_4  and  C_7
REMARK    3  A    between atoms: N_4  and  C_8
REMARK    4  A    between atoms: N_5  and  C_17
REMARK    5  A    between atoms: N_6  and  C_19
REMARK    6  A    between atoms: C_12  and  C_17
REMARK    7  A    between atoms: C_19  and  C_20
REMARK    8  A    between atoms: C_19  and  C_21
REMARK                            x       y       z     vdW  Elec       q    Type
REMARK                         _______ _______ _______ _____ _____    ______ ____
ROOT
ATOM      1  O   UNL     1     -16.608   4.160  22.465  0.00  0.00    -0.371 OA
ATOM      7  C   UNL     1     -14.701   5.575  22.438  0.00  0.00    +0.111 C 
ATOM      9  C   UNL     1     -14.736   4.818  23.752  0.00  0.00    +0.164 C 
ATOM     12  C   UNL     1     -15.637   3.645  23.391  0.00  0.00    +0.165 C 
ATOM     13  C   UNL     1     -16.137   5.423  21.964  0.00  0.00    +0.181 C 
ENDROOT
BRANCH   9   2
ATOM      2  O   UNL     1     -13.455   4.390  24.171  0.00  0.00    -0.388 OA
ATOM     23  H   UNL     1     -13.137   3.717  23.545  0.00  0.00    +0.210 HD
ENDBRANCH   9   2
BRANCH   7   4
ATOM      4  N   UNL     1     -14.294   6.964  22.574  0.00  0.00    -0.306 NA
ATOM     22  H   UNL     1     -13.690   7.075  23.388  0.00  0.00    +0.123 HD
BRANCH   4   8
ATOM      8  C   UNL     1     -13.596   7.419  21.373  0.00  0.00    +0.054 C 
ATOM     10  C   UNL     1     -13.149   8.875  21.551  0.00  0.00    +0.019 C 
ATOM     11  C   UNL     1     -12.399   6.505  21.088  0.00  0.00    +0.019 C 
ATOM     14  C   UNL     1     -12.348   9.362  20.345  0.00  0.00    +0.002 C 
ATOM     15  C   UNL     1     -11.599   6.995  19.881  0.00  0.00    +0.002 C 
ATOM     16  C   UNL     1     -11.163   8.448  20.050  0.00  0.00    +0.000 C 
ENDBRANCH   4   8
ENDBRANCH   7   4
BRANCH  12  17
ATOM     17  C   UNL     1     -16.343   3.039  24.591  0.00  0.00    +0.140 C 
BRANCH  17   5
ATOM      3  O   UNL     1     -16.870   2.004  27.234  0.00  0.00    -0.253 OA
ATOM      5  N   UNL     1     -15.735   3.459  25.821  0.00  0.00    -0.297 N 
ATOM      6  N   UNL     1     -15.314   3.496  28.089  0.00  0.00    -0.297 N 
ATOM     18  C   UNL     1     -16.048   2.905  27.066  0.00  0.00    +0.300 C 
ATOM     24  H   UNL     1     -15.052   4.210  25.786  0.00  0.00    +0.150 HD
ATOM     25  H   UNL     1     -14.603   4.179  27.842  0.00  0.00    +0.150 HD
BRANCH   6  19
ATOM     19  C   UNL     1     -15.445   3.107  29.474  0.00  0.00    +0.068 C 
ATOM     20  C   UNL     1     -14.423   2.034  29.827  0.00  0.00    +0.027 C 
ATOM     21  C   UNL     1     -15.306   4.322  30.381  0.00  0.00    +0.027 C 
ENDBRANCH   6  19
ENDBRANCH  17   5
ENDBRANCH  12  17
TORSDOF 6
ENDMDL
MODEL 4
REMARK VINA RESULT:      -6.2      4.879      9.259
REMARK  Name = 75367101
REMARK  8 active torsions:
REMARK  status: ('A' for Active; 'I' for Inactive)
REMARK    1  A    between atoms: O_2  and  C_9
REMARK    2  A    between atoms: N_4  and  C_7
REMARK    3  A    between atoms: N_4  and  C_8
REMARK    4  A    between atoms: N_5  and  C_17
REMARK    5  A    between atoms: N_6  and  C_19
REMARK    6  A    between atoms: C_12  and  C_17
REMARK    7  A    between atoms: C_19  and  C_20
REMARK    8  A    between atoms: C_19  and  C_21
REMARK                            x       y       z     vdW  Elec       q    Type
REMARK                         _______ _______ _______ _____ _____    ______ ____
ROOT
ATOM      1  O   UNL     1      18.187   6.016  19.327  0.00  0.00    -0.371 OA
ATOM      7  C   UNL     1      15.981   6.743  19.823  0.00  0.00    +0.111 C 
ATOM      9  C   UNL     1      16.805   6.761  21.097  0.00  0.00    +0.164 C 
ATOM     12  C   UNL     1      18.218   6.801  20.531  0.00  0.00    +0.165 C 
ATOM     13  C   UNL     1      16.815   5.832  18.937  0.00  0.00    +0.181 C 
ENDROOT
BRANCH   9   2
ATOM      2  O   UNL     1      16.531   7.885  21.910  0.00  0.00    -0.388 OA
ATOM     23  H   UNL     1      17.321   8.452  21.924  0.00  0.00    +0.210 HD
ENDBRANCH   9   2
BRANCH   7   4
ATOM      4  N   UNL     1      14.623   6.260  20.013  0.00  0.00    -0.306 NA
ATOM     22  H   UNL     1      14.570   5.680  20.851  0.00  0.00    +0.123 HD
BRANCH   4   8
ATOM      8  C   UNL     1      13.687   7.376  20.122  0.00  0.00    +0.054 C 
ATOM     10  C   UNL     1      12.697   7.341  18.952  0.00  0.00    +0.019 C 
ATOM     11  C   UNL     1      12.954   7.313  21.467  0.00  0.00    +0.019 C 
ATOM     14  C   UNL     1      11.653   8.450  19.073  0.00  0.00    +0.002 C 
ATOM     15  C   UNL     1      11.911   8.423  21.586  0.00  0.00    +0.002 C 
ATOM     16  C   UNL     1      10.930   8.399  20.416  0.00  0.00    +0.000 C 
ENDBRANCH   4   8
ENDBRANCH   7   4
BRANCH  12  17
ATOM     17  C   UNL     1      19.262   6.242  21.481  0.00  0.00    +0.140 C 
BRANCH  17   5
ATOM      3  O   UNL     1      21.534   4.862  22.607  0.00  0.00    -0.253 OA
ATOM      5  N   UNL     1      20.358   5.654  20.766  0.00  0.00    -0.297 N 
ATOM      6  N   UNL     1      22.348   4.525  20.461  0.00  0.00    -0.297 N 
ATOM     18  C   UNL     1      21.425   5.000  21.389  0.00  0.00    +0.300 C 
ATOM     24  H   UNL     1      20.366   5.730  19.753  0.00  0.00    +0.150 HD
ATOM     25  H   UNL     1      22.132   4.622  19.473  0.00  0.00    +0.150 HD
BRANCH   6  19
ATOM     19  C   UNL     1      23.544   3.811  20.840  0.00  0.00    +0.068 C 
ATOM     20  C   UNL     1      23.291   2.309  20.847  0.00  0.00    +0.027 C 
ATOM     21  C   UNL     1      24.694   4.173  19.911  0.00  0.00    +0.027 C 
ENDBRANCH   6  19
ENDBRANCH  17   5
ENDBRANCH  12  17
TORSDOF 6
ENDMDL
MODEL 5
REMARK VINA RESULT:      -6.1      3.236      5.124
REMARK  Name = 75367101
REMARK  8 active torsions:
REMARK  status: ('A' for Active; 'I' for Inactive)
REMARK    1  A    between atoms: O_2  and  C_9
REMARK    2  A    between atoms: N_4  and  C_7
REMARK    3  A    between atoms: N_4  and  C_8
REMARK    4  A    between atoms: N_5  and  C_17
REMARK    5  A    between atoms: N_6  and  C_19
REMARK    6  A    between atoms: C_12  and  C_17
REMARK    7  A    between atoms: C_19  and  C_20
REMARK    8  A    between atoms: C_19  and  C_21
REMARK                            x       y       z     vdW  Elec       q    Type
REMARK                         _______ _______ _______ _____ _____    ______ ____
ROOT
ATOM      1  O   UNL     1      11.652   6.886  19.789  0.00  0.00    -0.371 OA
ATOM      7  C   UNL     1      12.862   8.103  21.430  0.00  0.00    +0.111 C 
ATOM      9  C   UNL     1      13.015   8.796  20.089  0.00  0.00    +0.164 C 
ATOM     12  C   UNL     1      11.816   8.239  19.333  0.00  0.00    +0.165 C 
ATOM     13  C   UNL     1      12.402   6.719  21.004  0.00  0.00    +0.181 C 
ENDROOT
BRANCH   9   2
ATOM      2  O   UNL     1      12.966  10.205  20.193  0.00  0.00    -0.388 OA
ATOM     23  H   UNL     1      13.849  10.525  20.445  0.00  0.00    +0.210 HD
ENDBRANCH   9   2
BRANCH   7   4
ATOM      4  N   UNL     1      14.084   8.077  22.218  0.00  0.00    -0.306 NA
ATOM     22  H   UNL     1      14.082   7.270  22.842  0.00  0.00    +0.123 HD
BRANCH   4   8
ATOM      8  C   UNL     1      15.258   8.030  21.349  0.00  0.00    +0.054 C 
ATOM     10  C   UNL     1      16.246   9.132  21.750  0.00  0.00    +0.019 C 
ATOM     11  C   UNL     1      15.912   6.646  21.431  0.00  0.00    +0.019 C 
ATOM     14  C   UNL     1      17.522   9.065  20.912  0.00  0.00    +0.002 C 
ATOM     15  C   UNL     1      17.188   6.582  20.593  0.00  0.00    +0.002 C 
ATOM     16  C   UNL     1      18.170   7.685  20.981  0.00  0.00    +0.000 C 
ENDBRANCH   4   8
ENDBRANCH   7   4
BRANCH  12  17
ATOM     17  C   UNL     1      11.996   8.256  17.826  0.00  0.00    +0.140 C 
BRANCH  17   5
ATOM      3  O   UNL     1      13.177   8.814  15.252  0.00  0.00    -0.253 OA
ATOM      5  N   UNL     1      12.548   9.503  17.380  0.00  0.00    -0.297 N 
ATOM      6  N   UNL     1      13.565  10.994  15.942  0.00  0.00    -0.297 N 
ATOM     18  C   UNL     1      13.105   9.692  16.112  0.00  0.00    +0.300 C 
ATOM     24  H   UNL     1      12.548  10.286  18.027  0.00  0.00    +0.150 HD
ATOM     25  H   UNL     1      13.392  11.668  16.683  0.00  0.00    +0.150 HD
BRANCH   6  19
ATOM     19  C   UNL     1      14.184  11.455  14.721  0.00  0.00    +0.068 C 
ATOM     20  C   UNL     1      13.846  12.918  14.469  0.00  0.00    +0.027 C 
ATOM     21  C   UNL     1      15.689  11.237  14.776  0.00  0.00    +0.027 C 
ENDBRANCH   6  19
ENDBRANCH  17   5
ENDBRANCH  12  17
TORSDOF 6
ENDMDL
MODEL 6
REMARK VINA RESULT:      -5.9      4.565      6.925
REMARK  Name = 75367101
REMARK  8 active torsions:
REMARK  status: ('A' for Active; 'I' for Inactive)
REMARK    1  A    between atoms: O_2  and  C_9
REMARK    2  A    between atoms: N_4  and  C_7
REMARK    3  A    between atoms: N_4  and  C_8
REMARK    4  A    between atoms: N_5  and  C_17
REMARK    5  A    between atoms: N_6  and  C_19
REMARK    6  A    between atoms: C_12  and  C_17
REMARK    7  A    between atoms: C_19  and  C_20
REMARK    8  A    between atoms: C_19  and  C_21
REMARK                            x       y       z     vdW  Elec       q    Type
REMARK                         _______ _______ _______ _____ _____    ______ ____
ROOT
ATOM      1  O   UNL     1      17.207   6.111  20.029  0.00  0.00    -0.371 OA
ATOM      7  C   UNL     1      19.471   5.906  20.716  0.00  0.00    +0.111 C 
ATOM      9  C   UNL     1      18.805   7.000  21.529  0.00  0.00    +0.164 C 
ATOM     12  C   UNL     1      17.336   6.638  21.359  0.00  0.00    +0.165 C 
ATOM     13  C   UNL     1      18.519   5.784  19.538  0.00  0.00    +0.181 C 
ENDROOT
BRANCH   9   2
ATOM      2  O   UNL     1      19.197   6.989  22.888  0.00  0.00    -0.388 OA
ATOM     23  H   UNL     1      20.101   6.632  22.942  0.00  0.00    +0.210 HD
ENDBRANCH   9   2
BRANCH   7   4
ATOM      4  N   UNL     1      20.831   6.223  20.314  0.00  0.00    -0.306 NA
ATOM     22  H   UNL     1      21.191   6.999  20.870  0.00  0.00    +0.123 HD
BRANCH   4   8
ATOM      8  C   UNL     1      21.701   5.059  20.466  0.00  0.00    +0.054 C 
ATOM     10  C   UNL     1      23.168   5.483  20.323  0.00  0.00    +0.019 C 
ATOM     11  C   UNL     1      21.449   4.393  21.824  0.00  0.00    +0.019 C 
ATOM     14  C   UNL     1      24.112   4.304  20.552  0.00  0.00    +0.002 C 
ATOM     15  C   UNL     1      22.395   3.215  22.051  0.00  0.00    +0.002 C 
ATOM     16  C   UNL     1      23.856   3.630  21.897  0.00  0.00    +0.000 C 
ENDBRANCH   4   8
ENDBRANCH   7   4
BRANCH  12  17
ATOM     17  C   UNL     1      16.401   7.822  21.536  0.00  0.00    +0.140 C 
BRANCH  17   5
ATOM      3  O   UNL     1      14.059   7.454  19.889  0.00  0.00    -0.253 OA
ATOM      5  N   UNL     1      15.100   7.399  21.966  0.00  0.00    -0.297 N 
ATOM      6  N   UNL     1      12.872   6.826  21.781  0.00  0.00    -0.297 N 
ATOM     18  C   UNL     1      14.012   7.245  21.102  0.00  0.00    +0.300 C 
ATOM     24  H   UNL     1      14.957   7.217  22.955  0.00  0.00    +0.150 HD
ATOM     25  H   UNL     1      12.952   6.607  22.770  0.00  0.00    +0.150 HD
BRANCH   6  19
ATOM     19  C   UNL     1      11.609   6.590  21.122  0.00  0.00    +0.068 C 
ATOM     20  C   UNL     1      10.957   5.320  21.653  0.00  0.00    +0.027 C 
ATOM     21  C   UNL     1      10.691   7.793  21.289  0.00  0.00    +0.027 C 
ENDBRANCH   6  19
ENDBRANCH  17   5
ENDBRANCH  12  17
TORSDOF 6
ENDMDL
MODEL 7
REMARK VINA RESULT:      -5.8     26.514     28.913
REMARK  Name = 75367101
REMARK  8 active torsions:
REMARK  status: ('A' for Active; 'I' for Inactive)
REMARK    1  A    between atoms: O_2  and  C_9
REMARK    2  A    between atoms: N_4  and  C_7
REMARK    3  A    between atoms: N_4  and  C_8
REMARK    4  A    between atoms: N_5  and  C_17
REMARK    5  A    between atoms: N_6  and  C_19
REMARK    6  A    between atoms: C_12  and  C_17
REMARK    7  A    between atoms: C_19  and  C_20
REMARK    8  A    between atoms: C_19  and  C_21
REMARK                            x       y       z     vdW  Elec       q    Type
REMARK                         _______ _______ _______ _____ _____    ______ ____
ROOT
ATOM      1  O   UNL     1     -16.505   4.953  25.101  0.00  0.00    -0.371 OA
ATOM      7  C   UNL     1     -15.789   4.515  22.879  0.00  0.00    +0.111 C 
ATOM      9  C   UNL     1     -16.042   3.197  23.586  0.00  0.00    +0.164 C 
ATOM     12  C   UNL     1     -16.955   3.643  24.721  0.00  0.00    +0.165 C 
ATOM     13  C   UNL     1     -15.662   5.468  24.056  0.00  0.00    +0.181 C 
ENDROOT
BRANCH   9   2
ATOM      2  O   UNL     1     -16.666   2.240  22.752  0.00  0.00    -0.388 OA
ATOM     23  H   UNL     1     -16.025   1.959  22.077  0.00  0.00    +0.210 HD
ENDBRANCH   9   2
BRANCH   7   4
ATOM      4  N   UNL     1     -14.611   4.505  22.028  0.00  0.00    -0.306 NA
ATOM     22  H   UNL     1     -14.800   3.984  21.172  0.00  0.00    +0.123 HD
BRANCH   4   8
ATOM      8  C   UNL     1     -14.199   5.868  21.698  0.00  0.00    +0.054 C 
ATOM     10  C   UNL     1     -12.687   5.909  21.450  0.00  0.00    +0.019 C 
ATOM     11  C   UNL     1     -14.974   6.365  20.473  0.00  0.00    +0.019 C 
ATOM     14  C   UNL     1     -12.230   7.304  21.027  0.00  0.00    +0.002 C 
ATOM     15  C   UNL     1     -14.515   7.760  20.052  0.00  0.00    +0.002 C 
ATOM     16  C   UNL     1     -13.008   7.808  19.814  0.00  0.00    +0.000 C 
ENDBRANCH   4   8
ENDBRANCH   7   4
BRANCH  12  17
ATOM     17  C   UNL     1     -16.915   2.717  25.923  0.00  0.00    +0.140 C 
BRANCH  17   5
ATOM      3  O   UNL     1     -16.968   2.352  28.786  0.00  0.00    -0.253 OA
ATOM      5  N   UNL     1     -15.915   3.128  26.865  0.00  0.00    -0.297 N 
ATOM      6  N   UNL     1     -14.909   3.412  28.923  0.00  0.00    -0.297 N 
ATOM     18  C   UNL     1     -16.016   2.914  28.243  0.00  0.00    +0.300 C 
ATOM     24  H   UNL     1     -15.096   3.616  26.514  0.00  0.00    +0.150 HD
ATOM     25  H   UNL     1     -14.139   3.792  28.380  0.00  0.00    +0.150 HD
BRANCH   6  19
ATOM     19  C   UNL     1     -14.762   3.319  30.357  0.00  0.00    +0.068 C 
ATOM     20  C   UNL     1     -13.330   2.953  30.725  0.00  0.00    +0.027 C 
ATOM     21  C   UNL     1     -15.186   4.624  31.018  0.00  0.00    +0.027 C 
ENDBRANCH   6  19
ENDBRANCH  17   5
ENDBRANCH  12  17
TORSDOF 6
ENDMDL
MODEL 8
REMARK VINA RESULT:      -5.7     27.779     30.336
REMARK  Name = 75367101
REMARK  8 active torsions:
REMARK  status: ('A' for Active; 'I' for Inactive)
REMARK    1  A    between atoms: O_2  and  C_9
REMARK    2  A    between atoms: N_4  and  C_7
REMARK    3  A    between atoms: N_4  and  C_8
REMARK    4  A    between atoms: N_5  and  C_17
REMARK    5  A    between atoms: N_6  and  C_19
REMARK    6  A    between atoms: C_12  and  C_17
REMARK    7  A    between atoms: C_19  and  C_20
REMARK    8  A    between atoms: C_19  and  C_21
REMARK                            x       y       z     vdW  Elec       q    Type
REMARK                         _______ _______ _______ _____ _____    ______ ____
ROOT
ATOM      1  O   UNL     1       0.551   3.485  -4.156  0.00  0.00    -0.371 OA
ATOM      7  C   UNL     1       1.675   4.774  -5.804  0.00  0.00    +0.111 C 
ATOM      9  C   UNL     1       1.838   3.302  -6.132  0.00  0.00    +0.164 C 
ATOM     12  C   UNL     1       0.678   2.697  -5.351  0.00  0.00    +0.165 C 
ATOM     13  C   UNL     1       1.275   4.714  -4.339  0.00  0.00    +0.181 C 
ENDROOT
BRANCH   9   2
ATOM      2  O   UNL     1       1.736   3.035  -7.517  0.00  0.00    -0.388 OA
ATOM     23  H   UNL     1       0.851   3.307  -7.817  0.00  0.00    +0.210 HD
ENDBRANCH   9   2
BRANCH   7   4
ATOM      4  N   UNL     1       2.876   5.560  -6.031  0.00  0.00    -0.306 NA
ATOM     22  H   UNL     1       2.745   6.180  -6.830  0.00  0.00    +0.123 HD
BRANCH   4   8
ATOM      8  C   UNL     1       3.214   6.344  -4.845  0.00  0.00    +0.054 C 
ATOM     10  C   UNL     1       4.597   5.934  -4.326  0.00  0.00    +0.019 C 
ATOM     11  C   UNL     1       3.171   7.840  -5.180  0.00  0.00    +0.019 C 
ATOM     14  C   UNL     1       5.017   6.787  -3.131  0.00  0.00    +0.002 C 
ATOM     15  C   UNL     1       3.593   8.691  -3.983  0.00  0.00    +0.002 C 
ATOM     16  C   UNL     1       4.964   8.277  -3.456  0.00  0.00    +0.000 C 
ENDBRANCH   4   8
ENDBRANCH   7   4
BRANCH  12  17
ATOM     17  C   UNL     1       0.897   1.240  -4.985  0.00  0.00    +0.140 C 
BRANCH  17   5
ATOM      3  O   UNL     1      -0.187   0.471  -7.547  0.00  0.00    -0.253 OA
ATOM      5  N   UNL     1      -0.283   0.460  -5.225  0.00  0.00    -0.297 N 
ATOM      6  N   UNL     1      -1.906  -0.634  -6.449  0.00  0.00    -0.297 N 
ATOM     18  C   UNL     1      -0.743   0.129  -6.503  0.00  0.00    +0.300 C 
ATOM     24  H   UNL     1      -0.821   0.143  -4.424  0.00  0.00    +0.150 HD
ATOM     25  H   UNL     1      -2.247  -0.929  -5.539  0.00  0.00    +0.150 HD
BRANCH   6  19
ATOM     19  C   UNL     1      -2.588  -1.109  -7.630  0.00  0.00    +0.068 C 
ATOM     20  C   UNL     1      -2.699  -2.628  -7.608  0.00  0.00    +0.027 C 
ATOM     21  C   UNL     1      -3.959  -0.456  -7.748  0.00  0.00    +0.027 C 
ENDBRANCH   6  19
ENDBRANCH  17   5
ENDBRANCH  12  17
TORSDOF 6
ENDMDL
MODEL 9
REMARK VINA RESULT:      -5.5      4.640      7.111
REMARK  Name = 75367101
REMARK  8 active torsions:
REMARK  status: ('A' for Active; 'I' for Inactive)
REMARK    1  A    between atoms: O_2  and  C_9
REMARK    2  A    between atoms: N_4  and  C_7
REMARK    3  A    between atoms: N_4  and  C_8
REMARK    4  A    between atoms: N_5  and  C_17
REMARK    5  A    between atoms: N_6  and  C_19
REMARK    6  A    between atoms: C_12  and  C_17
REMARK    7  A    between atoms: C_19  and  C_20
REMARK    8  A    between atoms: C_19  and  C_21
REMARK                            x       y       z     vdW  Elec       q    Type
REMARK                         _______ _______ _______ _____ _____    ______ ____
ROOT
ATOM      1  O   UNL     1      18.050   7.114  21.531  0.00  0.00    -0.371 OA
ATOM      7  C   UNL     1      19.509   5.912  20.093  0.00  0.00    +0.111 C 
ATOM      9  C   UNL     1      18.073   5.602  19.712  0.00  0.00    +0.164 C 
ATOM     12  C   UNL     1      17.345   6.793  20.320  0.00  0.00    +0.165 C 
ATOM     13  C   UNL     1      19.334   6.468  21.496  0.00  0.00    +0.181 C 
ENDROOT
BRANCH   9   2
ATOM      2  O   UNL     1      17.883   5.526  18.312  0.00  0.00    -0.388 OA
ATOM     23  H   UNL     1      17.118   4.951  18.139  0.00  0.00    +0.210 HD
ENDBRANCH   9   2
BRANCH   7   4
ATOM      4  N   UNL     1      20.388   4.756  20.047  0.00  0.00    -0.306 NA
ATOM     22  H   UNL     1      20.835   4.690  19.132  0.00  0.00    +0.123 HD
BRANCH   4   8
ATOM      8  C   UNL     1      21.407   4.838  21.091  0.00  0.00    +0.054 C 
ATOM     10  C   UNL     1      21.668   3.445  21.676  0.00  0.00    +0.019 C 
ATOM     11  C   UNL     1      22.692   5.447  20.519  0.00  0.00    +0.019 C 
ATOM     14  C   UNL     1      22.783   3.480  22.719  0.00  0.00    +0.002 C 
ATOM     15  C   UNL     1      23.806   5.480  21.565  0.00  0.00    +0.002 C 
ATOM     16  C   UNL     1      24.061   4.096  22.157  0.00  0.00    +0.000 C 
ENDBRANCH   4   8
ENDBRANCH   7   4
BRANCH  12  17
ATOM     17  C   UNL     1      15.887   6.508  20.635  0.00  0.00    +0.140 C 
BRANCH  17   5
ATOM      3  O   UNL     1      15.163   6.729  17.850  0.00  0.00    -0.253 OA
ATOM      5  N   UNL     1      15.024   7.487  20.042  0.00  0.00    -0.297 N 
ATOM      6  N   UNL     1      13.862   8.577  18.372  0.00  0.00    -0.297 N 
ATOM     18  C   UNL     1      14.722   7.526  18.677  0.00  0.00    +0.300 C 
ATOM     24  H   UNL     1      14.622   8.200  20.644  0.00  0.00    +0.150 HD
ATOM     25  H   UNL     1      13.493   9.136  19.135  0.00  0.00    +0.150 HD
BRANCH   6  19
ATOM     19  C   UNL     1      13.393   8.842  17.032  0.00  0.00    +0.068 C 
ATOM     20  C   UNL     1      11.872   8.913  17.002  0.00  0.00    +0.027 C 
ATOM     21  C   UNL     1      14.017  10.123  16.496  0.00  0.00    +0.027 C 
ENDBRANCH   6  19
ENDBRANCH  17   5
ENDBRANCH  12  17
TORSDOF 6
ENDMDL
MODEL 10
REMARK VINA RESULT:      -5.5     25.407     27.815
REMARK  Name = 75367101
REMARK  8 active torsions:
REMARK  status: ('A' for Active; 'I' for Inactive)
REMARK    1  A    between atoms: O_2  and  C_9
REMARK    2  A    between atoms: N_4  and  C_7
REMARK    3  A    between atoms: N_4  and  C_8
REMARK    4  A    between atoms: N_5  and  C_17
REMARK    5  A    between atoms: N_6  and  C_19
REMARK    6  A    between atoms: C_12  and  C_17
REMARK    7  A    between atoms: C_19  and  C_20
REMARK    8  A    between atoms: C_19  and  C_21
REMARK                            x       y       z     vdW  Elec       q    Type
REMARK                         _______ _______ _______ _____ _____    ______ ____
ROOT
ATOM      1  O   UNL     1     -15.539   6.675  21.571  0.00  0.00    -0.371 OA
ATOM      7  C   UNL     1     -13.478   7.524  20.750  0.00  0.00    +0.111 C 
ATOM      9  C   UNL     1     -13.195   6.423  21.755  0.00  0.00    +0.164 C 
ATOM     12  C   UNL     1     -14.522   5.677  21.755  0.00  0.00    +0.165 C 
ATOM     13  C   UNL     1     -14.916   7.879  21.090  0.00  0.00    +0.181 C 
ENDROOT
BRANCH   9   2
ATOM      2  O   UNL     1     -12.121   5.589  21.365  0.00  0.00    -0.388 OA
ATOM     23  H   UNL     1     -12.341   5.189  20.506  0.00  0.00    +0.210 HD
ENDBRANCH   9   2
BRANCH   7   4
ATOM      4  N   UNL     1     -12.575   8.658  20.854  0.00  0.00    -0.306 NA
ATOM     22  H   UNL     1     -11.789   8.426  21.461  0.00  0.00    +0.123 HD
BRANCH   4   8
ATOM      8  C   UNL     1     -12.084   9.052  19.536  0.00  0.00    +0.054 C 
ATOM     10  C   UNL     1     -10.575   9.312  19.599  0.00  0.00    +0.019 C 
ATOM     11  C   UNL     1     -12.415   7.963  18.509  0.00  0.00    +0.019 C 
ATOM     14  C   UNL     1     -10.011   9.653  18.220  0.00  0.00    +0.002 C 
ATOM     15  C   UNL     1     -11.850   8.307  17.131  0.00  0.00    +0.002 C 
ATOM     16  C   UNL     1     -10.349   8.578  17.192  0.00  0.00    +0.000 C 
ENDBRANCH   4   8
ENDBRANCH   7   4
BRANCH  12  17
ATOM     17  C   UNL     1     -14.781   4.912  23.041  0.00  0.00    +0.140 C 
BRANCH  17   5
ATOM      3  O   UNL     1     -17.138   3.860  24.332  0.00  0.00    -0.253 OA
ATOM      5  N   UNL     1     -15.421   3.655  22.780  0.00  0.00    -0.297 N 
ATOM      6  N   UNL     1     -16.976   1.964  23.005  0.00  0.00    -0.297 N 
ATOM     18  C   UNL     1     -16.565   3.217  23.453  0.00  0.00    +0.300 C 
ATOM     24  H   UNL     1     -15.011   3.044  22.080  0.00  0.00    +0.150 HD
ATOM     25  H   UNL     1     -16.482   1.546  22.223  0.00  0.00    +0.150 HD
BRANCH   6  19
ATOM     19  C   UNL     1     -18.134   1.283  23.535  0.00  0.00    +0.068 C 
ATOM     20  C   UNL     1     -18.822   0.472  22.445  0.00  0.00    +0.027 C 
ATOM     21  C   UNL     1     -17.737   0.403  24.712  0.00  0.00    +0.027 C 
ENDBRANCH   6  19
ENDBRANCH  17   5
ENDBRANCH  12  17
TORSDOF 6
ENDMDL
