MODEL 1
REMARK VINA RESULT:      -6.9      0.000      0.000
REMARK  Name = 7050336
REMARK  9 active torsions:
REMARK  status: ('A' for Active; 'I' for Inactive)
REMARK    1  A    between atoms: S_1  and  C_30
REMARK    2  A    between atoms: S_1  and  C_33
REMARK    3  A    between atoms: O_5  and  C_25
REMARK    4  A    between atoms: O_5  and  C_32
REMARK    5  A    between atoms: N_8  and  C_17
REMARK    6  A    between atoms: N_9  and  C_11
REMARK    7  A    between atoms: C_18  and  C_21
REMARK    8  A    between atoms: C_22  and  C_27
REMARK    9  A    between atoms: C_27  and  C_31
REMARK                            x       y       z     vdW  Elec       q    Type
REMARK                         _______ _______ _______ _____ _____    ______ ____
ROOT
ATOM      2  O   UNL     1      15.665   8.665  21.787  0.00  0.00    -0.273 OA
ATOM      3  O   UNL     1      16.873   5.587  18.526  0.00  0.00    -0.252 OA
ATOM      7  N   UNL     1      17.854   6.329  20.493  0.00  0.00    -0.273 N 
ATOM      8  N   UNL     1      15.853   7.180  19.953  0.00  0.00    -0.193 N 
ATOM     10  C   UNL     1      17.598   7.264  21.554  0.00  0.00    +0.166 C 
ATOM     11  C   UNL     1      20.095   7.698  21.627  0.00  0.00    +0.077 C 
ATOM     12  C   UNL     1      18.691   8.326  21.620  0.00  0.00    +0.054 C 
ATOM     13  C   UNL     1      20.267   6.691  20.477  0.00  0.00    +0.041 C 
ATOM     14  C   UNL     1      19.139   5.657  20.434  0.00  0.00    +0.112 C 
ATOM     15  C   UNL     1      16.251   7.818  21.123  0.00  0.00    +0.248 C 
ATOM     16  C   UNL     1      16.835   6.274  19.540  0.00  0.00    +0.316 C 
ENDROOT
BRANCH   8  17
ATOM     17  C   UNL     1      14.628   7.429  19.257  0.00  0.00    +0.046 A 
ATOM     19  C   UNL     1      14.625   8.197  18.090  0.00  0.00    +0.035 A 
ATOM     20  C   UNL     1      13.427   6.903  19.740  0.00  0.00    +0.024 A 
ATOM     22  C   UNL     1      13.431   8.437  17.411  0.00  0.00    +0.019 A 
ATOM     23  C   UNL     1      12.233   7.144  19.062  0.00  0.00    +0.003 A 
ATOM     24  C   UNL     1      12.234   7.911  17.897  0.00  0.00    +0.011 A 
BRANCH  22  27
ATOM      6  O   UNL     1      13.052   8.766  15.106  0.00  0.00    -0.292 OA
ATOM     27  C   UNL     1      13.433   9.237  16.197  0.00  0.00    +0.160 C 
ATOM     31  C   UNL     1      13.907  10.686  16.231  0.00  0.00    +0.091 C 
ENDBRANCH  22  27
ENDBRANCH   8  17
BRANCH  11   9
ATOM      4  O   UNL     1      20.829   9.042  24.056  0.00  0.00    -0.270 OA
ATOM      9  N   UNL     1      20.386   7.081  22.901  0.00  0.00    -0.308 N 
ATOM     18  C   UNL     1      20.734   7.819  24.022  0.00  0.00    +0.248 C 
ATOM     34  H   UNL     1      20.442   6.068  22.921  0.00  0.00    +0.149 HD
BRANCH  18  21
ATOM     21  C   UNL     1      21.029   7.033  25.248  0.00  0.00    +0.078 A 
ATOM     25  C   UNL     1      22.045   6.099  25.236  0.00  0.00    +0.133 A 
ATOM     26  C   UNL     1      20.263   7.271  26.371  0.00  0.00    +0.018 A 
ATOM     28  C   UNL     1      22.305   5.372  26.397  0.00  0.00    +0.061 A 
ATOM     29  C   UNL     1      20.524   6.543  27.532  0.00  0.00    +0.015 A 
ATOM     30  C   UNL     1      21.545   5.594  27.545  0.00  0.00    +0.011 A 
BRANCH  30   1
ATOM      1  S   UNL     1      21.879   4.665  29.029  0.00  0.00    -0.128 S 
ATOM     33  C   UNL     1      20.804   5.494  30.234  0.00  0.00    +0.090 C 
ENDBRANCH  30   1
BRANCH  25   5
ATOM      5  O   UNL     1      22.800   5.869  24.126  0.00  0.00    -0.494 OA
ATOM     32  C   UNL     1      22.850   4.528  23.644  0.00  0.00    +0.277 C 
ENDBRANCH  25   5
ENDBRANCH  18  21
ENDBRANCH  11   9
TORSDOF 6
ENDMDL
MODEL 2
REMARK VINA RESULT:      -6.8     30.449     34.095
REMARK  Name = 7050336
REMARK  9 active torsions:
REMARK  status: ('A' for Active; 'I' for Inactive)
REMARK    1  A    between atoms: S_1  and  C_30
REMARK    2  A    between atoms: S_1  and  C_33
REMARK    3  A    between atoms: O_5  and  C_25
REMARK    4  A    between atoms: O_5  and  C_32
REMARK    5  A    between atoms: N_8  and  C_17
REMARK    6  A    between atoms: N_9  and  C_11
REMARK    7  A    between atoms: C_18  and  C_21
REMARK    8  A    between atoms: C_22  and  C_27
REMARK    9  A    between atoms: C_27  and  C_31
REMARK                            x       y       z     vdW  Elec       q    Type
REMARK                         _______ _______ _______ _____ _____    ______ ____
ROOT
ATOM      2  O   UNL     1     -13.746   4.378  23.238  0.00  0.00    -0.273 OA
ATOM      3  O   UNL     1     -17.797   6.647  23.272  0.00  0.00    -0.252 OA
ATOM      7  N   UNL     1     -16.803   5.090  24.676  0.00  0.00    -0.273 N 
ATOM      8  N   UNL     1     -15.632   5.765  22.889  0.00  0.00    -0.193 N 
ATOM     10  C   UNL     1     -15.593   4.318  24.766  0.00  0.00    +0.166 C 
ATOM     11  C   UNL     1     -16.989   2.447  25.756  0.00  0.00    +0.077 C 
ATOM     12  C   UNL     1     -15.896   2.824  24.740  0.00  0.00    +0.054 C 
ATOM     13  C   UNL     1     -18.231   3.343  25.605  0.00  0.00    +0.041 C 
ATOM     14  C   UNL     1     -17.880   4.832  25.615  0.00  0.00    +0.112 C 
ATOM     15  C   UNL     1     -14.858   4.801  23.528  0.00  0.00    +0.248 C 
ATOM     16  C   UNL     1     -16.841   5.942  23.571  0.00  0.00    +0.316 C 
ENDROOT
BRANCH   8  17
ATOM     17  C   UNL     1     -15.260   6.460  21.695  0.00  0.00    +0.046 A 
ATOM     19  C   UNL     1     -14.080   7.207  21.655  0.00  0.00    +0.035 A 
ATOM     20  C   UNL     1     -16.073   6.392  20.560  0.00  0.00    +0.024 A 
ATOM     22  C   UNL     1     -13.717   7.882  20.491  0.00  0.00    +0.019 A 
ATOM     23  C   UNL     1     -15.710   7.068  19.396  0.00  0.00    +0.003 A 
ATOM     24  C   UNL     1     -14.531   7.813  19.361  0.00  0.00    +0.011 A 
BRANCH  22  27
ATOM      6  O   UNL     1     -12.460   9.850  20.824  0.00  0.00    -0.292 OA
ATOM     27  C   UNL     1     -12.488   8.659  20.453  0.00  0.00    +0.160 C 
ATOM     31  C   UNL     1     -11.193   8.027  19.955  0.00  0.00    +0.091 C 
ENDBRANCH  22  27
ENDBRANCH   8  17
BRANCH  11   9
ATOM      4  O   UNL     1     -17.456   0.511  27.825  0.00  0.00    -0.270 OA
ATOM      9  N   UNL     1     -16.483   2.491  27.109  0.00  0.00    -0.308 N 
ATOM     18  C   UNL     1     -16.765   1.504  28.040  0.00  0.00    +0.248 C 
ATOM     34  H   UNL     1     -16.002   3.337  27.395  0.00  0.00    +0.149 HD
BRANCH  18  21
ATOM     21  C   UNL     1     -16.193   1.709  29.395  0.00  0.00    +0.078 A 
ATOM     25  C   UNL     1     -15.286   0.801  29.902  0.00  0.00    +0.133 A 
ATOM     26  C   UNL     1     -16.597   2.819  30.110  0.00  0.00    +0.018 A 
ATOM     28  C   UNL     1     -14.761   1.011  31.177  0.00  0.00    +0.061 A 
ATOM     29  C   UNL     1     -16.072   3.029  31.384  0.00  0.00    +0.015 A 
ATOM     30  C   UNL     1     -15.154   2.126  31.918  0.00  0.00    +0.011 A 
BRANCH  30   1
ATOM      1  S   UNL     1     -14.482   2.394  33.547  0.00  0.00    -0.128 S 
ATOM     33  C   UNL     1     -14.506   4.206  33.662  0.00  0.00    +0.090 C 
ENDBRANCH  30   1
BRANCH  25   5
ATOM      5  O   UNL     1     -14.887  -0.293  29.193  0.00  0.00    -0.494 OA
ATOM     32  C   UNL     1     -13.571  -0.781  29.443  0.00  0.00    +0.277 C 
ENDBRANCH  25   5
ENDBRANCH  18  21
ENDBRANCH  11   9
TORSDOF 6
ENDMDL
MODEL 3
REMARK VINA RESULT:      -6.6     29.789     33.716
REMARK  Name = 7050336
REMARK  9 active torsions:
REMARK  status: ('A' for Active; 'I' for Inactive)
REMARK    1  A    between atoms: S_1  and  C_30
REMARK    2  A    between atoms: S_1  and  C_33
REMARK    3  A    between atoms: O_5  and  C_25
REMARK    4  A    between atoms: O_5  and  C_32
REMARK    5  A    between atoms: N_8  and  C_17
REMARK    6  A    between atoms: N_9  and  C_11
REMARK    7  A    between atoms: C_18  and  C_21
REMARK    8  A    between atoms: C_22  and  C_27
REMARK    9  A    between atoms: C_27  and  C_31
REMARK                            x       y       z     vdW  Elec       q    Type
REMARK                         _______ _______ _______ _____ _____    ______ ____
ROOT
ATOM      2  O   UNL     1     -13.259   4.892  22.257  0.00  0.00    -0.273 OA
ATOM      3  O   UNL     1     -16.813   7.860  22.612  0.00  0.00    -0.252 OA
ATOM      7  N   UNL     1     -16.130   6.002  23.822  0.00  0.00    -0.273 N 
ATOM      8  N   UNL     1     -14.852   6.636  22.095  0.00  0.00    -0.193 N 
ATOM     10  C   UNL     1     -15.086   5.013  23.806  0.00  0.00    +0.166 C 
ATOM     11  C   UNL     1     -16.809   3.340  24.619  0.00  0.00    +0.077 C 
ATOM     12  C   UNL     1     -15.664   3.614  23.628  0.00  0.00    +0.054 C 
ATOM     13  C   UNL     1     -17.861   4.462  24.588  0.00  0.00    +0.041 C 
ATOM     14  C   UNL     1     -17.236   5.850  24.749  0.00  0.00    +0.112 C 
ATOM     15  C   UNL     1     -14.273   5.481  22.612  0.00  0.00    +0.248 C 
ATOM     16  C   UNL     1     -16.006   6.961  22.815  0.00  0.00    +0.316 C 
ENDROOT
BRANCH   8  17
ATOM     17  C   UNL     1     -14.354   7.374  20.974  0.00  0.00    +0.046 A 
ATOM     19  C   UNL     1     -13.248   8.215  21.121  0.00  0.00    +0.035 A 
ATOM     20  C   UNL     1     -14.971   7.255  19.726  0.00  0.00    +0.024 A 
ATOM     22  C   UNL     1     -12.763   8.932  20.028  0.00  0.00    +0.019 A 
ATOM     23  C   UNL     1     -14.486   7.973  18.633  0.00  0.00    +0.003 A 
ATOM     24  C   UNL     1     -13.382   8.811  18.784  0.00  0.00    +0.011 A 
BRANCH  22  27
ATOM      6  O   UNL     1     -11.589  10.703  21.051  0.00  0.00    -0.292 OA
ATOM     27  C   UNL     1     -11.612   9.806  20.185  0.00  0.00    +0.160 C 
ATOM     31  C   UNL     1     -10.393   9.642  19.282  0.00  0.00    +0.091 C 
ENDBRANCH  22  27
ENDBRANCH   8  17
BRANCH  11   9
ATOM      4  O   UNL     1     -17.882   1.571  26.610  0.00  0.00    -0.270 OA
ATOM      9  N   UNL     1     -16.305   3.142  25.959  0.00  0.00    -0.308 N 
ATOM     18  C   UNL     1     -16.895   2.261  26.852  0.00  0.00    +0.248 C 
ATOM     34  H   UNL     1     -15.564   3.761  26.269  0.00  0.00    +0.149 HD
BRANCH  18  21
ATOM     21  C   UNL     1     -16.274   2.192  28.199  0.00  0.00    +0.078 A 
ATOM     25  C   UNL     1     -15.994   3.356  28.886  0.00  0.00    +0.133 A 
ATOM     26  C   UNL     1     -15.994   0.946  28.723  0.00  0.00    +0.018 A 
ATOM     28  C   UNL     1     -15.410   3.270  30.150  0.00  0.00    +0.061 A 
ATOM     29  C   UNL     1     -15.409   0.860  29.986  0.00  0.00    +0.015 A 
ATOM     30  C   UNL     1     -15.118   2.022  30.700  0.00  0.00    +0.011 A 
BRANCH  30   1
ATOM      1  S   UNL     1     -14.372   1.913  32.314  0.00  0.00    -0.128 S 
ATOM     33  C   UNL     1     -13.462   3.480  32.408  0.00  0.00    +0.090 C 
ENDBRANCH  30   1
BRANCH  25   5
ATOM      5  O   UNL     1     -16.274   4.585  28.368  0.00  0.00    -0.494 OA
ATOM     32  C   UNL     1     -17.298   5.341  29.010  0.00  0.00    +0.277 C 
ENDBRANCH  25   5
ENDBRANCH  18  21
ENDBRANCH  11   9
TORSDOF 6
ENDMDL
MODEL 4
REMARK VINA RESULT:      -6.5     29.165     31.616
REMARK  Name = 7050336
REMARK  9 active torsions:
REMARK  status: ('A' for Active; 'I' for Inactive)
REMARK    1  A    between atoms: S_1  and  C_30
REMARK    2  A    between atoms: S_1  and  C_33
REMARK    3  A    between atoms: O_5  and  C_25
REMARK    4  A    between atoms: O_5  and  C_32
REMARK    5  A    between atoms: N_8  and  C_17
REMARK    6  A    between atoms: N_9  and  C_11
REMARK    7  A    between atoms: C_18  and  C_21
REMARK    8  A    between atoms: C_22  and  C_27
REMARK    9  A    between atoms: C_27  and  C_31
REMARK                            x       y       z     vdW  Elec       q    Type
REMARK                         _______ _______ _______ _____ _____    ______ ____
ROOT
ATOM      2  O   UNL     1      -4.473  -9.983   8.716  0.00  0.00    -0.273 OA
ATOM      3  O   UNL     1      -4.201 -14.609   8.413  0.00  0.00    -0.252 OA
ATOM      7  N   UNL     1      -4.169 -13.098  10.173  0.00  0.00    -0.273 N 
ATOM      8  N   UNL     1      -4.426 -12.271   8.107  0.00  0.00    -0.193 N 
ATOM     10  C   UNL     1      -4.226 -11.678  10.394  0.00  0.00    +0.166 C 
ATOM     11  C   UNL     1      -2.606 -12.021  12.314  0.00  0.00    +0.077 C 
ATOM     12  C   UNL     1      -2.955 -11.181  11.073  0.00  0.00    +0.054 C 
ATOM     13  C   UNL     1      -2.597 -13.525  11.990  0.00  0.00    +0.041 C 
ATOM     14  C   UNL     1      -3.881 -13.978  11.291  0.00  0.00    +0.112 C 
ATOM     15  C   UNL     1      -4.378 -11.178   8.968  0.00  0.00    +0.248 C 
ATOM     16  C   UNL     1      -4.280 -13.459   8.829  0.00  0.00    +0.316 C 
ENDROOT
BRANCH   8  17
ATOM     17  C   UNL     1      -4.579 -12.192   6.687  0.00  0.00    +0.046 A 
ATOM     19  C   UNL     1      -3.533 -12.576   5.844  0.00  0.00    +0.035 A 
ATOM     20  C   UNL     1      -5.778 -11.732   6.134  0.00  0.00    +0.024 A 
ATOM     22  C   UNL     1      -3.683 -12.501   4.460  0.00  0.00    +0.019 A 
ATOM     23  C   UNL     1      -5.928 -11.656   4.750  0.00  0.00    +0.003 A 
ATOM     24  C   UNL     1      -4.881 -12.041   3.913  0.00  0.00    +0.011 A 
BRANCH  22  27
ATOM      6  O   UNL     1      -2.421 -12.369   2.472  0.00  0.00    -0.292 OA
ATOM     27  C   UNL     1      -2.592 -12.902   3.587  0.00  0.00    +0.160 C 
ATOM     31  C   UNL     1      -1.621 -13.995   4.022  0.00  0.00    +0.091 C 
ENDBRANCH  22  27
ENDBRANCH   8  17
BRANCH  11   9
ATOM      4  O   UNL     1      -2.088 -10.290  14.546  0.00  0.00    -0.270 OA
ATOM      9  N   UNL     1      -3.503 -11.734  13.409  0.00  0.00    -0.308 N 
ATOM     18  C   UNL     1      -3.161 -10.880  14.446  0.00  0.00    +0.248 C 
ATOM     34  H   UNL     1      -4.361 -12.273  13.457  0.00  0.00    +0.149 HD
BRANCH  18  21
ATOM     21  C   UNL     1      -4.183 -10.711  15.511  0.00  0.00    +0.078 A 
ATOM     25  C   UNL     1      -5.416 -10.175  15.199  0.00  0.00    +0.133 A 
ATOM     26  C   UNL     1      -3.855 -11.102  16.794  0.00  0.00    +0.018 A 
ATOM     28  C   UNL     1      -6.362 -10.024  16.213  0.00  0.00    +0.061 A 
ATOM     29  C   UNL     1      -4.801 -10.951  17.807  0.00  0.00    +0.015 A 
ATOM     30  C   UNL     1      -6.054 -10.412  17.517  0.00  0.00    +0.011 A 
BRANCH  30   1
ATOM      1  S   UNL     1      -7.263 -10.220  18.812  0.00  0.00    -0.128 S 
ATOM     33  C   UNL     1      -7.166 -11.827  19.651  0.00  0.00    +0.090 C 
ENDBRANCH  30   1
BRANCH  25   5
ATOM      5  O   UNL     1      -5.737  -9.792  13.931  0.00  0.00    -0.494 OA
ATOM     32  C   UNL     1      -6.965 -10.283  13.398  0.00  0.00    +0.277 C 
ENDBRANCH  25   5
ENDBRANCH  18  21
ENDBRANCH  11   9
TORSDOF 6
ENDMDL
MODEL 5
REMARK VINA RESULT:      -6.5      3.742      9.751
REMARK  Name = 7050336
REMARK  9 active torsions:
REMARK  status: ('A' for Active; 'I' for Inactive)
REMARK    1  A    between atoms: S_1  and  C_30
REMARK    2  A    between atoms: S_1  and  C_33
REMARK    3  A    between atoms: O_5  and  C_25
REMARK    4  A    between atoms: O_5  and  C_32
REMARK    5  A    between atoms: N_8  and  C_17
REMARK    6  A    between atoms: N_9  and  C_11
REMARK    7  A    between atoms: C_18  and  C_21
REMARK    8  A    between atoms: C_22  and  C_27
REMARK    9  A    between atoms: C_27  and  C_31
REMARK                            x       y       z     vdW  Elec       q    Type
REMARK                         _______ _______ _______ _____ _____    ______ ____
ROOT
ATOM      2  O   UNL     1      21.890   5.141  20.076  0.00  0.00    -0.273 OA
ATOM      3  O   UNL     1      22.914   5.477  24.593  0.00  0.00    -0.252 OA
ATOM      7  N   UNL     1      21.163   6.231  23.270  0.00  0.00    -0.273 N 
ATOM      8  N   UNL     1      22.763   5.021  22.273  0.00  0.00    -0.193 N 
ATOM     10  C   UNL     1      20.748   6.209  21.894  0.00  0.00    +0.166 C 
ATOM     11  C   UNL     1      19.819   8.541  22.251  0.00  0.00    +0.077 C 
ATOM     12  C   UNL     1      20.646   7.624  21.334  0.00  0.00    +0.054 C 
ATOM     13  C   UNL     1      20.315   8.477  23.706  0.00  0.00    +0.041 C 
ATOM     14  C   UNL     1      20.423   7.040  24.221  0.00  0.00    +0.112 C 
ATOM     15  C   UNL     1      21.874   5.401  21.273  0.00  0.00    +0.248 C 
ATOM     16  C   UNL     1      22.353   5.538  23.506  0.00  0.00    +0.316 C 
ENDROOT
BRANCH   8  17
ATOM     17  C   UNL     1      23.941   4.234  22.070  0.00  0.00    +0.046 A 
ATOM     19  C   UNL     1      23.977   2.901  22.488  0.00  0.00    +0.035 A 
ATOM     20  C   UNL     1      25.062   4.795  21.452  0.00  0.00    +0.024 A 
ATOM     22  C   UNL     1      25.125   2.134  22.288  0.00  0.00    +0.019 A 
ATOM     23  C   UNL     1      26.210   4.028  21.253  0.00  0.00    +0.003 A 
ATOM     24  C   UNL     1      26.241   2.698  21.670  0.00  0.00    +0.011 A 
BRANCH  22  27
ATOM      6  O   UNL     1      25.675  -0.143  22.020  0.00  0.00    -0.292 OA
ATOM     27  C   UNL     1      25.158   0.747  22.723  0.00  0.00    +0.160 C 
ATOM     31  C   UNL     1      24.553   0.348  24.065  0.00  0.00    +0.091 C 
ENDBRANCH  22  27
ENDBRANCH   8  17
BRANCH  11   9
ATOM      4  O   UNL     1      17.823   9.979  20.769  0.00  0.00    -0.270 OA
ATOM      9  N   UNL     1      18.410   8.229  22.172  0.00  0.00    -0.308 N 
ATOM     18  C   UNL     1      17.521   8.987  21.426  0.00  0.00    +0.248 C 
ATOM     34  H   UNL     1      18.066   7.493  22.780  0.00  0.00    +0.149 HD
BRANCH  18  21
ATOM     21  C   UNL     1      16.102   8.550  21.470  0.00  0.00    +0.078 A 
ATOM     25  C   UNL     1      15.760   7.285  21.038  0.00  0.00    +0.133 A 
ATOM     26  C   UNL     1      15.162   9.442  21.948  0.00  0.00    +0.018 A 
ATOM     28  C   UNL     1      14.422   6.894  21.087  0.00  0.00    +0.061 A 
ATOM     29  C   UNL     1      13.825   9.051  21.996  0.00  0.00    +0.015 A 
ATOM     30  C   UNL     1      13.454   7.777  21.566  0.00  0.00    +0.011 A 
BRANCH  30   1
ATOM      1  S   UNL     1      11.745   7.277  21.629  0.00  0.00    -0.128 S 
ATOM     33  C   UNL     1      10.978   8.439  20.463  0.00  0.00    +0.090 C 
ENDBRANCH  30   1
BRANCH  25   5
ATOM      5  O   UNL     1      16.690   6.406  20.568  0.00  0.00    -0.494 OA
ATOM     32  C   UNL     1      16.680   6.140  19.168  0.00  0.00    +0.277 C 
ENDBRANCH  25   5
ENDBRANCH  18  21
ENDBRANCH  11   9
TORSDOF 6
ENDMDL
MODEL 6
REMARK VINA RESULT:      -6.4     29.380     32.088
REMARK  Name = 7050336
REMARK  9 active torsions:
REMARK  status: ('A' for Active; 'I' for Inactive)
REMARK    1  A    between atoms: S_1  and  C_30
REMARK    2  A    between atoms: S_1  and  C_33
REMARK    3  A    between atoms: O_5  and  C_25
REMARK    4  A    between atoms: O_5  and  C_32
REMARK    5  A    between atoms: N_8  and  C_17
REMARK    6  A    between atoms: N_9  and  C_11
REMARK    7  A    between atoms: C_18  and  C_21
REMARK    8  A    between atoms: C_22  and  C_27
REMARK    9  A    between atoms: C_27  and  C_31
REMARK                            x       y       z     vdW  Elec       q    Type
REMARK                         _______ _______ _______ _____ _____    ______ ____
ROOT
ATOM      2  O   UNL     1      -5.404  -9.527  15.068  0.00  0.00    -0.273 OA
ATOM      3  O   UNL     1      -3.937 -13.647  13.507  0.00  0.00    -0.252 OA
ATOM      7  N   UNL     1      -5.199 -12.964  15.330  0.00  0.00    -0.273 N 
ATOM      8  N   UNL     1      -4.506 -11.382  13.902  0.00  0.00    -0.193 N 
ATOM     10  C   UNL     1      -5.695 -11.750  15.919  0.00  0.00    +0.166 C 
ATOM     11  C   UNL     1      -5.313 -12.823  18.185  0.00  0.00    +0.077 C 
ATOM     12  C   UNL     1      -5.136 -11.559  17.325  0.00  0.00    +0.054 C 
ATOM     13  C   UNL     1      -4.782 -14.073  17.463  0.00  0.00    +0.041 C 
ATOM     14  C   UNL     1      -5.350 -14.215  16.049  0.00  0.00    +0.112 C 
ATOM     15  C   UNL     1      -5.179 -10.723  14.926  0.00  0.00    +0.248 C 
ATOM     16  C   UNL     1      -4.491 -12.760  14.143  0.00  0.00    +0.316 C 
ENDROOT
BRANCH   8  17
ATOM     17  C   UNL     1      -3.895 -10.744  12.776  0.00  0.00    +0.046 A 
ATOM     19  C   UNL     1      -4.687 -10.193  11.765  0.00  0.00    +0.035 A 
ATOM     20  C   UNL     1      -2.503 -10.667  12.683  0.00  0.00    +0.024 A 
ATOM     22  C   UNL     1      -4.091  -9.570  10.670  0.00  0.00    +0.019 A 
ATOM     23  C   UNL     1      -1.908 -10.044  11.587  0.00  0.00    +0.003 A 
ATOM     24  C   UNL     1      -2.701  -9.495  10.580  0.00  0.00    +0.011 A 
BRANCH  22  27
ATOM      6  O   UNL     1      -5.585  -7.960   9.809  0.00  0.00    -0.292 OA
ATOM     27  C   UNL     1      -4.919  -8.998   9.620  0.00  0.00    +0.160 C 
ATOM     31  C   UNL     1      -4.991  -9.663   8.249  0.00  0.00    +0.091 C 
ENDBRANCH  22  27
ENDBRANCH   8  17
BRANCH  11   9
ATOM      4  O   UNL     1      -6.648 -11.549  20.385  0.00  0.00    -0.270 OA
ATOM      9  N   UNL     1      -6.692 -13.001  18.577  0.00  0.00    -0.308 N 
ATOM     18  C   UNL     1      -7.249 -12.338  19.660  0.00  0.00    +0.248 C 
ATOM     34  H   UNL     1      -7.219 -13.724  18.098  0.00  0.00    +0.149 HD
BRANCH  18  21
ATOM     21  C   UNL     1      -8.672 -12.650  19.949  0.00  0.00    +0.078 A 
ATOM     25  C   UNL     1      -9.653 -11.733  19.633  0.00  0.00    +0.133 A 
ATOM     26  C   UNL     1      -8.965 -13.867  20.532  0.00  0.00    +0.018 A 
ATOM     28  C   UNL     1     -10.984 -12.045  19.913  0.00  0.00    +0.061 A 
ATOM     29  C   UNL     1     -10.295 -14.178  20.812  0.00  0.00    +0.015 A 
ATOM     30  C   UNL     1     -11.304 -13.267  20.502  0.00  0.00    +0.011 A 
BRANCH  30   1
ATOM      1  S   UNL     1     -13.004 -13.666  20.860  0.00  0.00    -0.128 S 
ATOM     33  C   UNL     1     -13.209 -12.957  22.518  0.00  0.00    +0.090 C 
ENDBRANCH  30   1
BRANCH  25   5
ATOM      5  O   UNL     1      -9.361 -10.534  19.055  0.00  0.00    -0.494 OA
ATOM     32  C   UNL     1     -10.463  -9.736  18.628  0.00  0.00    +0.277 C 
ENDBRANCH  25   5
ENDBRANCH  18  21
ENDBRANCH  11   9
TORSDOF 6
ENDMDL
MODEL 7
REMARK VINA RESULT:      -6.2     28.565     32.812
REMARK  Name = 7050336
REMARK  9 active torsions:
REMARK  status: ('A' for Active; 'I' for Inactive)
REMARK    1  A    between atoms: S_1  and  C_30
REMARK    2  A    between atoms: S_1  and  C_33
REMARK    3  A    between atoms: O_5  and  C_25
REMARK    4  A    between atoms: O_5  and  C_32
REMARK    5  A    between atoms: N_8  and  C_17
REMARK    6  A    between atoms: N_9  and  C_11
REMARK    7  A    between atoms: C_18  and  C_21
REMARK    8  A    between atoms: C_22  and  C_27
REMARK    9  A    between atoms: C_27  and  C_31
REMARK                            x       y       z     vdW  Elec       q    Type
REMARK                         _______ _______ _______ _____ _____    ______ ____
ROOT
ATOM      2  O   UNL     1      -5.709  -8.944  16.769  0.00  0.00    -0.273 OA
ATOM      3  O   UNL     1      -5.365 -13.508  15.982  0.00  0.00    -0.252 OA
ATOM      7  N   UNL     1      -6.993 -12.146  16.919  0.00  0.00    -0.273 N 
ATOM      8  N   UNL     1      -5.140 -11.155  16.143  0.00  0.00    -0.193 N 
ATOM     10  C   UNL     1      -7.208 -10.758  17.228  0.00  0.00    +0.166 C 
ATOM     11  C   UNL     1      -8.446 -11.526  19.304  0.00  0.00    +0.077 C 
ATOM     12  C   UNL     1      -7.398 -10.558  18.728  0.00  0.00    +0.054 C 
ATOM     13  C   UNL     1      -8.152 -12.980  18.897  0.00  0.00    +0.041 C 
ATOM     14  C   UNL     1      -7.947 -13.134  17.389  0.00  0.00    +0.112 C 
ATOM     15  C   UNL     1      -5.921 -10.148  16.702  0.00  0.00    +0.248 C 
ATOM     16  C   UNL     1      -5.774 -12.393  16.284  0.00  0.00    +0.316 C 
ENDROOT
BRANCH   8  17
ATOM     17  C   UNL     1      -3.861 -10.959  15.531  0.00  0.00    +0.046 A 
ATOM     19  C   UNL     1      -3.752 -10.869  14.141  0.00  0.00    +0.035 A 
ATOM     20  C   UNL     1      -2.713 -10.853  16.322  0.00  0.00    +0.024 A 
ATOM     22  C   UNL     1      -2.505 -10.676  13.547  0.00  0.00    +0.019 A 
ATOM     23  C   UNL     1      -1.467 -10.661  15.727  0.00  0.00    +0.003 A 
ATOM     24  C   UNL     1      -1.363 -10.572  14.339  0.00  0.00    +0.011 A 
BRANCH  22  27
ATOM      6  O   UNL     1      -3.046 -11.339  11.348  0.00  0.00    -0.292 OA
ATOM     27  C   UNL     1      -2.397 -10.583  12.099  0.00  0.00    +0.160 C 
ATOM     31  C   UNL     1      -1.476  -9.548  11.462  0.00  0.00    +0.091 C 
ENDBRANCH  22  27
ENDBRANCH   8  17
BRANCH  11   9
ATOM      4  O   UNL     1     -10.281  -9.922  20.822  0.00  0.00    -0.270 OA
ATOM      9  N   UNL     1      -9.784 -11.142  18.914  0.00  0.00    -0.308 N 
ATOM     18  C   UNL     1     -10.597 -10.361  19.720  0.00  0.00    +0.248 C 
ATOM     34  H   UNL     1     -10.157 -11.564  18.070  0.00  0.00    +0.149 HD
BRANCH  18  21
ATOM     21  C   UNL     1     -11.955 -10.077  19.188  0.00  0.00    +0.078 A 
ATOM     25  C   UNL     1     -12.096  -9.458  17.963  0.00  0.00    +0.133 A 
ATOM     26  C   UNL     1     -13.043 -10.449  19.952  0.00  0.00    +0.018 A 
ATOM     28  C   UNL     1     -13.379  -9.199  17.481  0.00  0.00    +0.061 A 
ATOM     29  C   UNL     1     -14.326 -10.190  19.470  0.00  0.00    +0.015 A 
ATOM     30  C   UNL     1     -14.494  -9.566  18.235  0.00  0.00    +0.011 A 
BRANCH  30   1
ATOM      1  S   UNL     1     -16.134  -9.236  17.619  0.00  0.00    -0.128 S 
ATOM     33  C   UNL     1     -16.575  -7.730  18.532  0.00  0.00    +0.090 C 
ENDBRANCH  30   1
BRANCH  25   5
ATOM      5  O   UNL     1     -11.020  -9.094  17.210  0.00  0.00    -0.494 OA
ATOM     32  C   UNL     1     -10.761  -7.697  17.083  0.00  0.00    +0.277 C 
ENDBRANCH  25   5
ENDBRANCH  18  21
ENDBRANCH  11   9
TORSDOF 6
ENDMDL
MODEL 8
REMARK VINA RESULT:      -6.2     29.515     32.788
REMARK  Name = 7050336
REMARK  9 active torsions:
REMARK  status: ('A' for Active; 'I' for Inactive)
REMARK    1  A    between atoms: S_1  and  C_30
REMARK    2  A    between atoms: S_1  and  C_33
REMARK    3  A    between atoms: O_5  and  C_25
REMARK    4  A    between atoms: O_5  and  C_32
REMARK    5  A    between atoms: N_8  and  C_17
REMARK    6  A    between atoms: N_9  and  C_11
REMARK    7  A    between atoms: C_18  and  C_21
REMARK    8  A    between atoms: C_22  and  C_27
REMARK    9  A    between atoms: C_27  and  C_31
REMARK                            x       y       z     vdW  Elec       q    Type
REMARK                         _______ _______ _______ _____ _____    ______ ____
ROOT
ATOM      2  O   UNL     1      -8.229 -14.545  17.497  0.00  0.00    -0.273 OA
ATOM      3  O   UNL     1      -7.492 -10.793  20.132  0.00  0.00    -0.252 OA
ATOM      7  N   UNL     1      -6.670 -11.522  18.088  0.00  0.00    -0.273 N 
ATOM      8  N   UNL     1      -8.201 -12.805  19.102  0.00  0.00    -0.193 N 
ATOM     10  C   UNL     1      -6.801 -12.642  17.197  0.00  0.00    +0.166 C 
ATOM     11  C   UNL     1      -4.338 -12.366  16.663  0.00  0.00    +0.077 C 
ATOM     12  C   UNL     1      -5.465 -13.353  17.015  0.00  0.00    +0.054 C 
ATOM     13  C   UNL     1      -4.293 -11.188  17.652  0.00  0.00    +0.041 C 
ATOM     14  C   UNL     1      -5.657 -10.517  17.820  0.00  0.00    +0.112 C 
ATOM     15  C   UNL     1      -7.827 -13.478  17.943  0.00  0.00    +0.248 C 
ATOM     16  C   UNL     1      -7.486 -11.609  19.218  0.00  0.00    +0.316 C 
ENDROOT
BRANCH   8  17
ATOM     17  C   UNL     1      -9.161 -13.277  20.052  0.00  0.00    +0.046 A 
ATOM     19  C   UNL     1     -10.418 -12.672  20.143  0.00  0.00    +0.035 A 
ATOM     20  C   UNL     1      -8.848 -14.348  20.894  0.00  0.00    +0.024 A 
ATOM     22  C   UNL     1     -11.353 -13.134  21.068  0.00  0.00    +0.019 A 
ATOM     23  C   UNL     1      -9.784 -14.809  21.820  0.00  0.00    +0.003 A 
ATOM     24  C   UNL     1     -11.037 -14.203  21.906  0.00  0.00    +0.011 A 
BRANCH  22  27
ATOM      6  O   UNL     1     -13.138 -11.858  20.203  0.00  0.00    -0.292 OA
ATOM     27  C   UNL     1     -12.660 -12.502  21.158  0.00  0.00    +0.160 C 
ATOM     31  C   UNL     1     -13.481 -12.615  22.438  0.00  0.00    +0.091 C 
ENDBRANCH  22  27
ENDBRANCH   8  17
BRANCH  11   9
ATOM      4  O   UNL     1      -2.348 -10.950  15.153  0.00  0.00    -0.270 OA
ATOM      9  N   UNL     1      -4.461 -11.894  15.303  0.00  0.00    -0.308 N 
ATOM     18  C   UNL     1      -3.439 -11.216  14.656  0.00  0.00    +0.248 C 
ATOM     34  H   UNL     1      -5.374 -11.974  14.868  0.00  0.00    +0.149 HD
BRANCH  18  21
ATOM     21  C   UNL     1      -3.733 -10.773  13.269  0.00  0.00    +0.078 A 
ATOM     25  C   UNL     1      -4.915 -10.116  12.994  0.00  0.00    +0.133 A 
ATOM     26  C   UNL     1      -2.797 -11.041  12.290  0.00  0.00    +0.018 A 
ATOM     28  C   UNL     1      -5.172  -9.709  11.685  0.00  0.00    +0.061 A 
ATOM     29  C   UNL     1      -3.055 -10.634  10.981  0.00  0.00    +0.015 A 
ATOM     30  C   UNL     1      -4.241  -9.968  10.679  0.00  0.00    +0.011 A 
BRANCH  30   1
ATOM      1  S   UNL     1      -4.570  -9.447   9.007  0.00  0.00    -0.128 S 
ATOM     33  C   UNL     1      -6.109  -8.505   9.208  0.00  0.00    +0.090 C 
ENDBRANCH  30   1
BRANCH  25   5
ATOM      5  O   UNL     1      -5.835  -9.851  13.964  0.00  0.00    -0.494 OA
ATOM     32  C   UNL     1      -7.191 -10.189  13.678  0.00  0.00    +0.277 C 
ENDBRANCH  25   5
ENDBRANCH  18  21
ENDBRANCH  11   9
TORSDOF 6
ENDMDL
MODEL 9
REMARK VINA RESULT:      -6.1     29.599     33.733
REMARK  Name = 7050336
REMARK  9 active torsions:
REMARK  status: ('A' for Active; 'I' for Inactive)
REMARK    1  A    between atoms: S_1  and  C_30
REMARK    2  A    between atoms: S_1  and  C_33
REMARK    3  A    between atoms: O_5  and  C_25
REMARK    4  A    between atoms: O_5  and  C_32
REMARK    5  A    between atoms: N_8  and  C_17
REMARK    6  A    between atoms: N_9  and  C_11
REMARK    7  A    between atoms: C_18  and  C_21
REMARK    8  A    between atoms: C_22  and  C_27
REMARK    9  A    between atoms: C_27  and  C_31
REMARK                            x       y       z     vdW  Elec       q    Type
REMARK                         _______ _______ _______ _____ _____    ______ ____
ROOT
ATOM      2  O   UNL     1     -14.369   4.985  21.268  0.00  0.00    -0.273 OA
ATOM      3  O   UNL     1     -15.839   9.359  21.780  0.00  0.00    -0.252 OA
ATOM      7  N   UNL     1     -15.870   7.474  23.131  0.00  0.00    -0.273 N 
ATOM      8  N   UNL     1     -14.905   7.286  21.118  0.00  0.00    -0.193 N 
ATOM     10  C   UNL     1     -15.474   6.092  23.085  0.00  0.00    +0.166 C 
ATOM     11  C   UNL     1     -17.538   5.567  24.462  0.00  0.00    +0.077 C 
ATOM     12  C   UNL     1     -16.681   5.174  23.247  0.00  0.00    +0.054 C 
ATOM     13  C   UNL     1     -17.887   7.066  24.442  0.00  0.00    +0.041 C 
ATOM     14  C   UNL     1     -16.652   7.950  24.257  0.00  0.00    +0.112 C 
ATOM     15  C   UNL     1     -14.851   6.023  21.701  0.00  0.00    +0.248 C 
ATOM     16  C   UNL     1     -15.545   8.186  21.975  0.00  0.00    +0.316 C 
ENDROOT
BRANCH   8  17
ATOM     17  C   UNL     1     -14.400   7.613  19.820  0.00  0.00    +0.046 A 
ATOM     19  C   UNL     1     -13.032   7.832  19.632  0.00  0.00    +0.035 A 
ATOM     20  C   UNL     1     -15.271   7.715  18.732  0.00  0.00    +0.024 A 
ATOM     22  C   UNL     1     -12.541   8.149  18.366  0.00  0.00    +0.019 A 
ATOM     23  C   UNL     1     -14.779   8.033  17.467  0.00  0.00    +0.003 A 
ATOM     24  C   UNL     1     -13.414   8.249  17.283  0.00  0.00    +0.011 A 
BRANCH  22  27
ATOM      6  O   UNL     1     -10.484   7.804  17.264  0.00  0.00    -0.292 OA
ATOM     27  C   UNL     1     -11.117   8.375  18.175  0.00  0.00    +0.160 C 
ATOM     31  C   UNL     1     -10.359   9.327  19.094  0.00  0.00    +0.091 C 
ENDBRANCH  22  27
ENDBRANCH   8  17
BRANCH  11   9
ATOM      4  O   UNL     1     -18.821   4.881  26.937  0.00  0.00    -0.270 OA
ATOM      9  N   UNL     1     -16.886   5.206  25.701  0.00  0.00    -0.308 N 
ATOM     18  C   UNL     1     -17.596   4.889  26.849  0.00  0.00    +0.248 C 
ATOM     34  H   UNL     1     -15.877   5.305  25.737  0.00  0.00    +0.149 HD
BRANCH  18  21
ATOM     21  C   UNL     1     -16.779   4.566  28.046  0.00  0.00    +0.078 A 
ATOM     25  C   UNL     1     -16.045   3.398  28.082  0.00  0.00    +0.133 A 
ATOM     26  C   UNL     1     -16.786   5.462  29.098  0.00  0.00    +0.018 A 
ATOM     28  C   UNL     1     -15.285   3.113  29.217  0.00  0.00    +0.061 A 
ATOM     29  C   UNL     1     -16.026   5.176  30.231  0.00  0.00    +0.015 A 
ATOM     30  C   UNL     1     -15.276   4.002  30.291  0.00  0.00    +0.011 A 
BRANCH  30   1
ATOM      1  S   UNL     1     -14.304   3.638  31.740  0.00  0.00    -0.128 S 
ATOM     33  C   UNL     1     -14.330   5.230  32.612  0.00  0.00    +0.090 C 
ENDBRANCH  30   1
BRANCH  25   5
ATOM      5  O   UNL     1     -16.040   2.518  27.042  0.00  0.00    -0.494 OA
ATOM     32  C   UNL     1     -16.698   1.270  27.247  0.00  0.00    +0.277 C 
ENDBRANCH  25   5
ENDBRANCH  18  21
ENDBRANCH  11   9
TORSDOF 6
ENDMDL
MODEL 10
REMARK VINA RESULT:      -6.1     28.575     31.454
REMARK  Name = 7050336
REMARK  9 active torsions:
REMARK  status: ('A' for Active; 'I' for Inactive)
REMARK    1  A    between atoms: S_1  and  C_30
REMARK    2  A    between atoms: S_1  and  C_33
REMARK    3  A    between atoms: O_5  and  C_25
REMARK    4  A    between atoms: O_5  and  C_32
REMARK    5  A    between atoms: N_8  and  C_17
REMARK    6  A    between atoms: N_9  and  C_11
REMARK    7  A    between atoms: C_18  and  C_21
REMARK    8  A    between atoms: C_22  and  C_27
REMARK    9  A    between atoms: C_27  and  C_31
REMARK                            x       y       z     vdW  Elec       q    Type
REMARK                         _______ _______ _______ _____ _____    ______ ____
ROOT
ATOM      2  O   UNL     1      -6.030  -7.678   9.312  0.00  0.00    -0.273 OA
ATOM      3  O   UNL     1      -6.745 -11.858   7.420  0.00  0.00    -0.252 OA
ATOM      7  N   UNL     1      -5.774 -11.120   9.394  0.00  0.00    -0.273 N 
ATOM      8  N   UNL     1      -6.636  -9.570   8.025  0.00  0.00    -0.193 N 
ATOM     10  C   UNL     1      -5.483  -9.886  10.071  0.00  0.00    +0.166 C 
ATOM     11  C   UNL     1      -3.349 -10.973  10.905  0.00  0.00    +0.077 C 
ATOM     12  C   UNL     1      -3.981  -9.718  10.277  0.00  0.00    +0.054 C 
ATOM     13  C   UNL     1      -3.739 -12.246  10.133  0.00  0.00    +0.041 C 
ATOM     14  C   UNL     1      -5.251 -12.363   9.930  0.00  0.00    +0.112 C 
ATOM     15  C   UNL     1      -6.067  -8.882   9.092  0.00  0.00    +0.248 C 
ATOM     16  C   UNL     1      -6.449 -10.947   8.184  0.00  0.00    +0.316 C 
ENDROOT
BRANCH   8  17
ATOM     17  C   UNL     1      -7.298  -8.959   6.913  0.00  0.00    +0.046 A 
ATOM     19  C   UNL     1      -8.505  -8.280   7.098  0.00  0.00    +0.035 A 
ATOM     20  C   UNL     1      -6.738  -9.038   5.634  0.00  0.00    +0.024 A 
ATOM     22  C   UNL     1      -9.147  -7.684   6.014  0.00  0.00    +0.019 A 
ATOM     23  C   UNL     1      -7.382  -8.442   4.550  0.00  0.00    +0.003 A 
ATOM     24  C   UNL     1      -8.586  -7.764   4.739  0.00  0.00    +0.011 A 
BRANCH  22  27
ATOM      6  O   UNL     1     -11.281  -6.951   5.325  0.00  0.00    -0.292 OA
ATOM     27  C   UNL     1     -10.403  -6.978   6.211  0.00  0.00    +0.160 C 
ATOM     31  C   UNL     1     -10.677  -6.247   7.521  0.00  0.00    +0.091 C 
ENDBRANCH  22  27
ENDBRANCH   8  17
BRANCH  11   9
ATOM      4  O   UNL     1      -1.813 -10.029  13.139  0.00  0.00    -0.270 OA
ATOM      9  N   UNL     1      -3.697 -11.091  12.302  0.00  0.00    -0.308 N 
ATOM     18  C   UNL     1      -2.885 -10.601  13.314  0.00  0.00    +0.248 C 
ATOM     34  H   UNL     1      -4.510 -11.653  12.530  0.00  0.00    +0.149 HD
BRANCH  18  21
ATOM     21  C   UNL     1      -3.371 -10.826  14.700  0.00  0.00    +0.078 A 
ATOM     25  C   UNL     1      -4.725 -10.924  14.945  0.00  0.00    +0.133 A 
ATOM     26  C   UNL     1      -2.433 -10.929  15.708  0.00  0.00    +0.018 A 
ATOM     28  C   UNL     1      -5.161 -11.134  16.253  0.00  0.00    +0.061 A 
ATOM     29  C   UNL     1      -2.869 -11.139  17.016  0.00  0.00    +0.015 A 
ATOM     30  C   UNL     1      -4.232 -11.242  17.288  0.00  0.00    +0.011 A 
BRANCH  30   1
ATOM      1  S   UNL     1      -4.789 -11.511  18.960  0.00  0.00    -0.128 S 
ATOM     33  C   UNL     1      -6.257 -10.446  19.036  0.00  0.00    +0.090 C 
ENDBRANCH  30   1
BRANCH  25   5
ATOM      5  O   UNL     1      -5.648 -10.824  13.947  0.00  0.00    -0.494 OA
ATOM     32  C   UNL     1      -6.838 -10.094  14.237  0.00  0.00    +0.277 C 
ENDBRANCH  25   5
ENDBRANCH  18  21
ENDBRANCH  11   9
TORSDOF 6
ENDMDL
