MODEL 1
REMARK VINA RESULT:      -7.3      0.000      0.000
REMARK  Name = 75536988
REMARK  3 active torsions:
REMARK  status: ('A' for Active; 'I' for Inactive)
REMARK    1  A    between atoms: N_6  and  C_17
REMARK    2  A    between atoms: C_7  and  C_13
REMARK    3  A    between atoms: C_17  and  C_18
REMARK                            x       y       z     vdW  Elec       q    Type
REMARK                         _______ _______ _______ _____ _____    ______ ____
ROOT
ATOM      2  O   UNL     1      10.604  11.573  24.860  0.00  0.00    -0.275 OA
ATOM      3  O   UNL     1      11.915   6.406  20.371  0.00  0.00    -0.252 OA
ATOM      4  N   UNL     1      11.684  10.695  22.995  0.00  0.00    -0.298 N 
ATOM      5  N   UNL     1      12.275   8.293  21.724  0.00  0.00    -0.278 N 
ATOM      6  N   UNL     1      13.860   7.731  20.234  0.00  0.00    -0.279 N 
ATOM      8  C   UNL     1      13.364   9.219  21.980  0.00  0.00    +0.112 C 
ATOM     11  C   UNL     1      12.837  10.649  22.077  0.00  0.00    +0.132 C 
ATOM     12  C   UNL     1      14.332   8.970  20.826  0.00  0.00    +0.133 C 
ATOM     13  C   UNL     1      11.577  11.528  24.111  0.00  0.00    +0.219 C 
ATOM     14  C   UNL     1      10.582   9.786  22.647  0.00  0.00    +0.127 C 
ATOM     15  C   UNL     1      11.075   8.346  22.540  0.00  0.00    +0.128 C 
ATOM     16  C   UNL     1      12.598   7.355  20.734  0.00  0.00    +0.306 C 
ENDROOT
BRANCH  13   7
ATOM      7  C   UNL     1      12.734  12.424  24.409  0.00  0.00    +0.075 C 
ATOM      9  C   UNL     1      13.701  12.009  25.466  0.00  0.00    +0.013 C 
ATOM     10  C   UNL     1      12.755  13.146  25.714  0.00  0.00    +0.013 C 
ENDBRANCH  13   7
BRANCH   6  17
ATOM     17  C   UNL     1      14.573   7.076  19.159  0.00  0.00    +0.144 C 
BRANCH  17  18
ATOM      1  F   UNL     1      19.763   5.536  20.708  0.00  0.00    -0.205 F 
ATOM     18  C   UNL     1      15.957   6.666  19.572  0.00  0.00    -0.030 A 
ATOM     19  C   UNL     1      16.766   5.951  18.689  0.00  0.00    +0.008 A 
ATOM     20  C   UNL     1      16.435   6.998  20.841  0.00  0.00    +0.008 A 
ATOM     21  C   UNL     1      18.051   5.570  19.072  0.00  0.00    +0.038 A 
ATOM     22  C   UNL     1      17.720   6.616  21.224  0.00  0.00    +0.038 A 
ATOM     23  C   UNL     1      18.528   5.901  20.340  0.00  0.00    +0.123 A 
ENDBRANCH  17  18
ENDBRANCH   6  17
TORSDOF 3
ENDMDL
MODEL 2
REMARK VINA RESULT:      -7.0      4.374      7.936
REMARK  Name = 75536988
REMARK  3 active torsions:
REMARK  status: ('A' for Active; 'I' for Inactive)
REMARK    1  A    between atoms: N_6  and  C_17
REMARK    2  A    between atoms: C_7  and  C_13
REMARK    3  A    between atoms: C_17  and  C_18
REMARK                            x       y       z     vdW  Elec       q    Type
REMARK                         _______ _______ _______ _____ _____    ______ ____
ROOT
ATOM      2  O   UNL     1      21.743   6.790  22.657  0.00  0.00    -0.275 OA
ATOM      3  O   UNL     1      15.795   9.729  20.525  0.00  0.00    -0.252 OA
ATOM      4  N   UNL     1      19.951   6.967  21.183  0.00  0.00    -0.298 N 
ATOM      5  N   UNL     1      17.412   8.073  20.932  0.00  0.00    -0.278 N 
ATOM      6  N   UNL     1      15.675   7.562  19.601  0.00  0.00    -0.279 N 
ATOM      8  C   UNL     1      17.576   6.659  20.641  0.00  0.00    +0.112 C 
ATOM     11  C   UNL     1      19.013   6.365  20.218  0.00  0.00    +0.132 C 
ATOM     12  C   UNL     1      16.524   6.385  19.568  0.00  0.00    +0.133 C 
ATOM     13  C   UNL     1      20.954   6.277  21.867  0.00  0.00    +0.219 C 
ATOM     14  C   UNL     1      19.784   8.413  21.387  0.00  0.00    +0.127 C 
ATOM     15  C   UNL     1      18.355   8.744  21.809  0.00  0.00    +0.128 C 
ATOM     16  C   UNL     1      16.237   8.597  20.375  0.00  0.00    +0.306 C 
ENDROOT
BRANCH  13   7
ATOM      7  C   UNL     1      21.067   4.808  21.617  0.00  0.00    +0.075 C 
ATOM      9  C   UNL     1      22.072   4.030  22.396  0.00  0.00    +0.013 C 
ATOM     10  C   UNL     1      22.292   4.297  20.938  0.00  0.00    +0.013 C 
ENDBRANCH  13   7
BRANCH   6  17
ATOM     17  C   UNL     1      14.475   7.663  18.800  0.00  0.00    +0.144 C 
BRANCH  17  18
ATOM      1  F   UNL     1       9.815   7.472  21.955  0.00  0.00    -0.205 F 
ATOM     18  C   UNL     1      13.233   7.612  19.641  0.00  0.00    -0.030 A 
ATOM     19  C   UNL     1      13.137   6.697  20.690  0.00  0.00    +0.008 A 
ATOM     20  C   UNL     1      12.172   8.479  19.374  0.00  0.00    +0.008 A 
ATOM     21  C   UNL     1      11.983   6.650  21.472  0.00  0.00    +0.038 A 
ATOM     22  C   UNL     1      11.019   8.432  20.156  0.00  0.00    +0.038 A 
ATOM     23  C   UNL     1      10.923   7.517  21.204  0.00  0.00    +0.123 A 
ENDBRANCH  17  18
ENDBRANCH   6  17
TORSDOF 3
ENDMDL
MODEL 3
REMARK VINA RESULT:      -6.9      4.338      6.089
REMARK  Name = 75536988
REMARK  3 active torsions:
REMARK  status: ('A' for Active; 'I' for Inactive)
REMARK    1  A    between atoms: N_6  and  C_17
REMARK    2  A    between atoms: C_7  and  C_13
REMARK    3  A    between atoms: C_17  and  C_18
REMARK                            x       y       z     vdW  Elec       q    Type
REMARK                         _______ _______ _______ _____ _____    ______ ____
ROOT
ATOM      2  O   UNL     1      12.794  11.907  13.717  0.00  0.00    -0.275 OA
ATOM      3  O   UNL     1      12.043   7.141  18.746  0.00  0.00    -0.252 OA
ATOM      4  N   UNL     1      13.640  10.568  15.423  0.00  0.00    -0.298 N 
ATOM      5  N   UNL     1      12.856   9.024  17.599  0.00  0.00    -0.278 N 
ATOM      6  N   UNL     1      13.965   8.327  19.424  0.00  0.00    -0.279 N 
ATOM      8  C   UNL     1      13.889  10.023  17.805  0.00  0.00    +0.112 C 
ATOM     11  C   UNL     1      14.619  10.312  16.495  0.00  0.00    +0.132 C 
ATOM     12  C   UNL     1      14.762   9.423  18.904  0.00  0.00    +0.133 C 
ATOM     13  C   UNL     1      13.604  11.710  14.621  0.00  0.00    +0.219 C 
ATOM     14  C   UNL     1      12.659   9.492  15.214  0.00  0.00    +0.127 C 
ATOM     15  C   UNL     1      11.912   9.175  16.506  0.00  0.00    +0.128 C 
ATOM     16  C   UNL     1      12.850   8.051  18.608  0.00  0.00    +0.306 C 
ENDROOT
BRANCH  13   7
ATOM      7  C   UNL     1      14.626  12.766  14.888  0.00  0.00    +0.075 C 
ATOM      9  C   UNL     1      14.191  14.193  14.890  0.00  0.00    +0.013 C 
ATOM     10  C   UNL     1      15.031  13.662  13.767  0.00  0.00    +0.013 C 
ENDBRANCH  13   7
BRANCH   6  17
ATOM     17  C   UNL     1      14.387   7.550  20.570  0.00  0.00    +0.144 C 
BRANCH  17  18
ATOM      1  F   UNL     1      19.708   5.782  20.068  0.00  0.00    -0.205 F 
ATOM     18  C   UNL     1      15.806   7.078  20.436  0.00  0.00    -0.030 A 
ATOM     19  C   UNL     1      16.772   7.505  21.347  0.00  0.00    +0.008 A 
ATOM     20  C   UNL     1      16.159   6.213  19.400  0.00  0.00    +0.008 A 
ATOM     21  C   UNL     1      18.090   7.068  21.223  0.00  0.00    +0.038 A 
ATOM     22  C   UNL     1      17.477   5.775  19.276  0.00  0.00    +0.038 A 
ATOM     23  C   UNL     1      18.443   6.203  20.187  0.00  0.00    +0.123 A 
ENDBRANCH  17  18
ENDBRANCH   6  17
TORSDOF 3
ENDMDL
MODEL 4
REMARK VINA RESULT:      -6.7     27.068     28.357
REMARK  Name = 75536988
REMARK  3 active torsions:
REMARK  status: ('A' for Active; 'I' for Inactive)
REMARK    1  A    between atoms: N_6  and  C_17
REMARK    2  A    between atoms: C_7  and  C_13
REMARK    3  A    between atoms: C_17  and  C_18
REMARK                            x       y       z     vdW  Elec       q    Type
REMARK                         _______ _______ _______ _____ _____    ______ ____
ROOT
ATOM      2  O   UNL     1      -6.806 -10.741  19.090  0.00  0.00    -0.275 OA
ATOM      3  O   UNL     1      -1.173 -11.504  15.060  0.00  0.00    -0.252 OA
ATOM      4  N   UNL     1      -5.774 -11.347  17.095  0.00  0.00    -0.298 N 
ATOM      5  N   UNL     1      -3.398 -11.070  15.675  0.00  0.00    -0.278 N 
ATOM      6  N   UNL     1      -2.919 -11.283  13.491  0.00  0.00    -0.279 N 
ATOM      8  C   UNL     1      -4.644 -10.761  14.994  0.00  0.00    +0.112 C 
ATOM     11  C   UNL     1      -5.803 -11.525  15.631  0.00  0.00    +0.132 C 
ATOM     12  C   UNL     1      -4.362 -11.124  13.539  0.00  0.00    +0.133 C 
ATOM     13  C   UNL     1      -6.833 -10.868  17.868  0.00  0.00    +0.219 C 
ATOM     14  C   UNL     1      -4.512 -11.740  17.739  0.00  0.00    +0.127 C 
ATOM     15  C   UNL     1      -3.330 -10.996  17.124  0.00  0.00    +0.128 C 
ATOM     16  C   UNL     1      -2.348 -11.307  14.779  0.00  0.00    +0.306 C 
ENDROOT
BRANCH  13   7
ATOM      7  C   UNL     1      -8.086 -10.484  17.150  0.00  0.00    +0.075 C 
ATOM      9  C   UNL     1      -8.369  -9.035  16.942  0.00  0.00    +0.013 C 
ATOM     10  C   UNL     1      -9.175  -9.826  17.927  0.00  0.00    +0.013 C 
ENDBRANCH  13   7
BRANCH   6  17
ATOM     17  C   UNL     1      -2.217 -11.529  12.250  0.00  0.00    +0.144 C 
BRANCH  17  18
ATOM      1  F   UNL     1      -4.986  -9.440   7.815  0.00  0.00    -0.205 F 
ATOM     18  C   UNL     1      -2.955 -10.972  11.068  0.00  0.00    -0.030 A 
ATOM     19  C   UNL     1      -2.876  -9.611  10.773  0.00  0.00    +0.008 A 
ATOM     20  C   UNL     1      -3.722 -11.815  10.262  0.00  0.00    +0.008 A 
ATOM     21  C   UNL     1      -3.562  -9.093   9.675  0.00  0.00    +0.038 A 
ATOM     22  C   UNL     1      -4.407 -11.298   9.164  0.00  0.00    +0.038 A 
ATOM     23  C   UNL     1      -4.328  -9.936   8.871  0.00  0.00    +0.123 A 
ENDBRANCH  17  18
ENDBRANCH   6  17
TORSDOF 3
ENDMDL
MODEL 5
REMARK VINA RESULT:      -6.6      3.423      7.374
REMARK  Name = 75536988
REMARK  3 active torsions:
REMARK  status: ('A' for Active; 'I' for Inactive)
REMARK    1  A    between atoms: N_6  and  C_17
REMARK    2  A    between atoms: C_7  and  C_13
REMARK    3  A    between atoms: C_17  and  C_18
REMARK                            x       y       z     vdW  Elec       q    Type
REMARK                         _______ _______ _______ _____ _____    ______ ____
ROOT
ATOM      2  O   UNL     1      18.444   5.793  20.020  0.00  0.00    -0.275 OA
ATOM      3  O   UNL     1      12.412   9.021  18.693  0.00  0.00    -0.252 OA
ATOM      4  N   UNL     1      16.761   7.307  20.560  0.00  0.00    -0.298 N 
ATOM      5  N   UNL     1      14.606   8.681  19.464  0.00  0.00    -0.278 N 
ATOM      6  N   UNL     1      13.527  10.543  20.108  0.00  0.00    -0.279 N 
ATOM      8  C   UNL     1      15.596   9.440  20.209  0.00  0.00    +0.112 C 
ATOM     11  C   UNL     1      16.304   8.543  21.221  0.00  0.00    +0.132 C 
ATOM     12  C   UNL     1      14.791  10.585  20.820  0.00  0.00    +0.133 C 
ATOM     13  C   UNL     1      18.075   6.834  20.559  0.00  0.00    +0.219 C 
ATOM     14  C   UNL     1      15.705   6.544  19.880  0.00  0.00    +0.127 C 
ATOM     15  C   UNL     1      14.973   7.413  18.860  0.00  0.00    +0.128 C 
ATOM     16  C   UNL     1      13.393   9.372  19.337  0.00  0.00    +0.306 C 
ENDROOT
BRANCH  13   7
ATOM      7  C   UNL     1      19.100   7.660  21.265  0.00  0.00    +0.075 C 
ATOM      9  C   UNL     1      20.525   7.222  21.212  0.00  0.00    +0.013 C 
ATOM     10  C   UNL     1      19.746   7.098  22.486  0.00  0.00    +0.013 C 
ENDBRANCH  13   7
BRANCH   6  17
ATOM     17  C   UNL     1      12.500  11.543  20.312  0.00  0.00    +0.144 C 
BRANCH  17  18
ATOM      1  F   UNL     1      10.733  11.683  25.656  0.00  0.00    -0.205 F 
ATOM     18  C   UNL     1      12.029  11.581  21.737  0.00  0.00    -0.030 A 
ATOM     19  C   UNL     1      12.280  12.703  22.526  0.00  0.00    +0.008 A 
ATOM     20  C   UNL     1      11.341  10.492  22.274  0.00  0.00    +0.008 A 
ATOM     21  C   UNL     1      11.842  12.739  23.849  0.00  0.00    +0.038 A 
ATOM     22  C   UNL     1      10.903  10.527  23.597  0.00  0.00    +0.038 A 
ATOM     23  C   UNL     1      11.154  11.650  24.385  0.00  0.00    +0.123 A 
ENDBRANCH  17  18
ENDBRANCH   6  17
TORSDOF 3
ENDMDL
MODEL 6
REMARK VINA RESULT:      -6.5     26.784     28.552
REMARK  Name = 75536988
REMARK  3 active torsions:
REMARK  status: ('A' for Active; 'I' for Inactive)
REMARK    1  A    between atoms: N_6  and  C_17
REMARK    2  A    between atoms: C_7  and  C_13
REMARK    3  A    between atoms: C_17  and  C_18
REMARK                            x       y       z     vdW  Elec       q    Type
REMARK                         _______ _______ _______ _____ _____    ______ ____
ROOT
ATOM      2  O   UNL     1     -10.524 -10.369  18.894  0.00  0.00    -0.275 OA
ATOM      3  O   UNL     1      -3.721 -11.881  18.933  0.00  0.00    -0.252 OA
ATOM      4  N   UNL     1      -8.495 -10.741  17.817  0.00  0.00    -0.298 N 
ATOM      5  N   UNL     1      -5.758 -10.908  18.280  0.00  0.00    -0.278 N 
ATOM      6  N   UNL     1      -3.987 -10.691  16.914  0.00  0.00    -0.279 N 
ATOM      8  C   UNL     1      -6.221 -10.037  17.213  0.00  0.00    +0.112 C 
ATOM     11  C   UNL     1      -7.574 -10.511  16.688  0.00  0.00    +0.132 C 
ATOM     12  C   UNL     1      -5.088 -10.080  16.191  0.00  0.00    +0.133 C 
ATOM     13  C   UNL     1      -9.755 -10.157  17.959  0.00  0.00    +0.219 C 
ATOM     14  C   UNL     1      -8.003 -11.684  18.832  0.00  0.00    +0.127 C 
ATOM     15  C   UNL     1      -6.648 -11.242  19.377  0.00  0.00    +0.128 C 
ATOM     16  C   UNL     1      -4.402 -11.238  18.144  0.00  0.00    +0.306 C 
ENDROOT
BRANCH  13   7
ATOM      7  C   UNL     1     -10.193  -9.205  16.894  0.00  0.00    +0.075 C 
ATOM      9  C   UNL     1     -10.061  -7.742  17.150  0.00  0.00    +0.013 C 
ATOM     10  C   UNL     1     -11.415  -8.385  17.133  0.00  0.00    +0.013 C 
ENDBRANCH  13   7
BRANCH   6  17
ATOM     17  C   UNL     1      -2.669 -10.823  16.332  0.00  0.00    +0.144 C 
BRANCH  17  18
ATOM      1  F   UNL     1      -2.895 -12.520  10.969  0.00  0.00    -0.205 F 
ATOM     18  C   UNL     1      -2.729 -11.275  14.902  0.00  0.00    -0.030 A 
ATOM     19  C   UNL     1      -2.284 -10.432  13.884  0.00  0.00    +0.008 A 
ATOM     20  C   UNL     1      -3.231 -12.540  14.590  0.00  0.00    +0.008 A 
ATOM     21  C   UNL     1      -2.339 -10.852  12.556  0.00  0.00    +0.038 A 
ATOM     22  C   UNL     1      -3.286 -12.960  13.262  0.00  0.00    +0.038 A 
ATOM     23  C   UNL     1      -2.842 -12.116  12.245  0.00  0.00    +0.123 A 
ENDBRANCH  17  18
ENDBRANCH   6  17
TORSDOF 3
ENDMDL
MODEL 7
REMARK VINA RESULT:      -6.4     28.068     30.813
REMARK  Name = 75536988
REMARK  3 active torsions:
REMARK  status: ('A' for Active; 'I' for Inactive)
REMARK    1  A    between atoms: N_6  and  C_17
REMARK    2  A    between atoms: C_7  and  C_13
REMARK    3  A    between atoms: C_17  and  C_18
REMARK                            x       y       z     vdW  Elec       q    Type
REMARK                         _______ _______ _______ _____ _____    ______ ____
ROOT
ATOM      2  O   UNL     1     -16.373   1.347  29.377  0.00  0.00    -0.275 OA
ATOM      3  O   UNL     1     -16.009   8.017  31.364  0.00  0.00    -0.252 OA
ATOM      4  N   UNL     1     -15.998   2.999  30.974  0.00  0.00    -0.298 N 
ATOM      5  N   UNL     1     -15.512   5.724  31.246  0.00  0.00    -0.278 N 
ATOM      6  N   UNL     1     -14.597   6.928  32.907  0.00  0.00    -0.279 N 
ATOM      8  C   UNL     1     -14.621   4.797  31.923  0.00  0.00    +0.112 C 
ATOM     11  C   UNL     1     -15.337   3.477  32.201  0.00  0.00    +0.132 C 
ATOM     12  C   UNL     1     -14.181   5.561  33.169  0.00  0.00    +0.133 C 
ATOM     13  C   UNL     1     -15.803   1.745  30.391  0.00  0.00    +0.219 C 
ATOM     14  C   UNL     1     -16.941   3.952  30.369  0.00  0.00    +0.127 C 
ATOM     15  C   UNL     1     -16.258   5.286  30.079  0.00  0.00    +0.128 C 
ATOM     16  C   UNL     1     -15.442   7.016  31.783  0.00  0.00    +0.306 C 
ENDROOT
BRANCH  13   7
ATOM      7  C   UNL     1     -14.830   0.826  31.054  0.00  0.00    +0.075 C 
ATOM      9  C   UNL     1     -14.046  -0.114  30.202  0.00  0.00    +0.013 C 
ATOM     10  C   UNL     1     -15.139  -0.632  31.087  0.00  0.00    +0.013 C 
ENDBRANCH  13   7
BRANCH   6  17
ATOM     17  C   UNL     1     -14.270   8.013  33.806  0.00  0.00    +0.144 C 
BRANCH  17  18
ATOM      1  F   UNL     1      -9.140  10.106  32.802  0.00  0.00    -0.205 F 
ATOM     18  C   UNL     1     -12.902   8.571  33.539  0.00  0.00    -0.030 A 
ATOM     19  C   UNL     1     -12.185   9.183  34.566  0.00  0.00    +0.008 A 
ATOM     20  C   UNL     1     -12.348   8.479  32.261  0.00  0.00    +0.008 A 
ATOM     21  C   UNL     1     -10.914   9.702  34.318  0.00  0.00    +0.038 A 
ATOM     22  C   UNL     1     -11.077   8.997  32.013  0.00  0.00    +0.038 A 
ATOM     23  C   UNL     1     -10.361   9.610  33.041  0.00  0.00    +0.123 A 
ENDBRANCH  17  18
ENDBRANCH   6  17
TORSDOF 3
ENDMDL
MODEL 8
REMARK VINA RESULT:      -6.2     27.477     29.465
REMARK  Name = 75536988
REMARK  3 active torsions:
REMARK  status: ('A' for Active; 'I' for Inactive)
REMARK    1  A    between atoms: N_6  and  C_17
REMARK    2  A    between atoms: C_7  and  C_13
REMARK    3  A    between atoms: C_17  and  C_18
REMARK                            x       y       z     vdW  Elec       q    Type
REMARK                         _______ _______ _______ _____ _____    ______ ____
ROOT
ATOM      2  O   UNL     1     -13.032  -8.777  16.992  0.00  0.00    -0.275 OA
ATOM      3  O   UNL     1      -7.551 -11.859  19.997  0.00  0.00    -0.252 OA
ATOM      4  N   UNL     1     -10.824  -9.514  16.976  0.00  0.00    -0.298 N 
ATOM      5  N   UNL     1      -8.781 -10.371  18.657  0.00  0.00    -0.278 N 
ATOM      6  N   UNL     1      -6.551 -10.448  18.393  0.00  0.00    -0.279 N 
ATOM      8  C   UNL     1      -8.487  -9.315  17.704  0.00  0.00    +0.112 C 
ATOM     11  C   UNL     1      -9.431  -9.399  16.507  0.00  0.00    +0.132 C 
ATOM     12  C   UNL     1      -7.012  -9.525  17.372  0.00  0.00    +0.133 C 
ATOM     13  C   UNL     1     -11.870  -8.663  16.610  0.00  0.00    +0.219 C 
ATOM     14  C   UNL     1     -11.079 -10.641  17.885  0.00  0.00    +0.127 C 
ATOM     15  C   UNL     1     -10.148 -10.589  19.094  0.00  0.00    +0.128 C 
ATOM     16  C   UNL     1      -7.620 -10.999  19.128  0.00  0.00    +0.306 C 
ENDROOT
BRANCH  13   7
ATOM      7  C   UNL     1     -11.542  -7.535  15.686  0.00  0.00    +0.075 C 
ATOM      9  C   UNL     1     -11.254  -6.196  16.275  0.00  0.00    +0.013 C 
ATOM     10  C   UNL     1     -12.535  -6.433  15.533  0.00  0.00    +0.013 C 
ENDBRANCH  13   7
BRANCH   6  17
ATOM     17  C   UNL     1      -5.161 -10.832  18.507  0.00  0.00    +0.144 C 
BRANCH  17  18
ATOM      1  F   UNL     1      -3.083 -12.694  13.617  0.00  0.00    -0.205 F 
ATOM     18  C   UNL     1      -4.607 -11.329  17.203  0.00  0.00    -0.030 A 
ATOM     19  C   UNL     1      -5.046 -12.543  16.675  0.00  0.00    +0.008 A 
ATOM     20  C   UNL     1      -3.652 -10.576  16.519  0.00  0.00    +0.008 A 
ATOM     21  C   UNL     1      -4.532 -13.004  15.464  0.00  0.00    +0.038 A 
ATOM     22  C   UNL     1      -3.137 -11.037  15.307  0.00  0.00    +0.038 A 
ATOM     23  C   UNL     1      -3.576 -12.252  14.780  0.00  0.00    +0.123 A 
ENDBRANCH  17  18
ENDBRANCH   6  17
TORSDOF 3
ENDMDL
MODEL 9
REMARK VINA RESULT:      -6.1      5.461      6.569
REMARK  Name = 75536988
REMARK  3 active torsions:
REMARK  status: ('A' for Active; 'I' for Inactive)
REMARK    1  A    between atoms: N_6  and  C_17
REMARK    2  A    between atoms: C_7  and  C_13
REMARK    3  A    between atoms: C_17  and  C_18
REMARK                            x       y       z     vdW  Elec       q    Type
REMARK                         _______ _______ _______ _____ _____    ______ ____
ROOT
ATOM      2  O   UNL     1      11.313   7.722  19.318  0.00  0.00    -0.275 OA
ATOM      3  O   UNL     1      15.173  10.492  14.220  0.00  0.00    -0.252 OA
ATOM      4  N   UNL     1      12.487   9.486  18.356  0.00  0.00    -0.298 N 
ATOM      5  N   UNL     1      14.359  10.065  16.382  0.00  0.00    -0.278 N 
ATOM      6  N   UNL     1      15.747  11.807  16.091  0.00  0.00    -0.279 N 
ATOM      8  C   UNL     1      14.597  10.572  17.722  0.00  0.00    +0.112 C 
ATOM     11  C   UNL     1      13.278  10.725  18.476  0.00  0.00    +0.132 C 
ATOM     12  C   UNL     1      15.355  11.876  17.488  0.00  0.00    +0.133 C 
ATOM     13  C   UNL     1      11.987   8.744  19.428  0.00  0.00    +0.219 C 
ATOM     14  C   UNL     1      12.219   9.057  16.976  0.00  0.00    +0.127 C 
ATOM     15  C   UNL     1      13.518   8.897  16.191  0.00  0.00    +0.128 C 
ATOM     16  C   UNL     1      15.104  10.752  15.414  0.00  0.00    +0.306 C 
ENDROOT
BRANCH  13   7
ATOM      7  C   UNL     1      12.300   9.234  20.804  0.00  0.00    +0.075 C 
ATOM      9  C   UNL     1      13.400   8.570  21.562  0.00  0.00    +0.013 C 
ATOM     10  C   UNL     1      11.972   8.353  21.962  0.00  0.00    +0.013 C 
ENDBRANCH  13   7
BRANCH   6  17
ATOM     17  C   UNL     1      16.589  12.814  15.482  0.00  0.00    +0.144 C 
BRANCH  17  18
ATOM      1  F   UNL     1      22.039  11.421  15.716  0.00  0.00    -0.205 F 
ATOM     18  C   UNL     1      18.042  12.442  15.545  0.00  0.00    -0.030 A 
ATOM     19  C   UNL     1      18.826  12.868  16.617  0.00  0.00    +0.008 A 
ATOM     20  C   UNL     1      18.611  11.672  14.529  0.00  0.00    +0.008 A 
ATOM     21  C   UNL     1      20.176  12.523  16.676  0.00  0.00    +0.038 A 
ATOM     22  C   UNL     1      19.960  11.327  14.588  0.00  0.00    +0.038 A 
ATOM     23  C   UNL     1      20.743  11.754  15.660  0.00  0.00    +0.123 A 
ENDBRANCH  17  18
ENDBRANCH   6  17
TORSDOF 3
ENDMDL
MODEL 10
REMARK VINA RESULT:      -6.0      5.352      7.657
REMARK  Name = 75536988
REMARK  3 active torsions:
REMARK  status: ('A' for Active; 'I' for Inactive)
REMARK    1  A    between atoms: N_6  and  C_17
REMARK    2  A    between atoms: C_7  and  C_13
REMARK    3  A    between atoms: C_17  and  C_18
REMARK                            x       y       z     vdW  Elec       q    Type
REMARK                         _______ _______ _______ _____ _____    ______ ____
ROOT
ATOM      2  O   UNL     1      14.535  11.977  12.913  0.00  0.00    -0.275 OA
ATOM      3  O   UNL     1      14.408   7.321  18.097  0.00  0.00    -0.252 OA
ATOM      4  N   UNL     1      14.863  11.365  15.135  0.00  0.00    -0.298 N 
ATOM      5  N   UNL     1      14.239   9.384  16.984  0.00  0.00    -0.278 N 
ATOM      6  N   UNL     1      14.212   9.380  19.230  0.00  0.00    -0.279 N 
ATOM      8  C   UNL     1      13.989  10.767  17.351  0.00  0.00    +0.112 C 
ATOM     11  C   UNL     1      14.911  11.700  16.570  0.00  0.00    +0.132 C 
ATOM     12  C   UNL     1      14.192  10.784  18.863  0.00  0.00    +0.133 C 
ATOM     13  C   UNL     1      14.555  12.261  14.109  0.00  0.00    +0.219 C 
ATOM     14  C   UNL     1      15.192   9.968  14.816  0.00  0.00    +0.127 C 
ATOM     15  C   UNL     1      14.288   9.005  15.583  0.00  0.00    +0.128 C 
ATOM     16  C   UNL     1      14.297   8.540  18.102  0.00  0.00    +0.306 C 
ENDROOT
BRANCH  13   7
ATOM      7  C   UNL     1      14.227  13.665  14.502  0.00  0.00    +0.075 C 
ATOM      9  C   UNL     1      14.051  14.682  13.425  0.00  0.00    +0.013 C 
ATOM     10  C   UNL     1      15.264  14.718  14.305  0.00  0.00    +0.013 C 
ENDBRANCH  13   7
BRANCH   6  17
ATOM     17  C   UNL     1      14.279   8.950  20.610  0.00  0.00    +0.144 C 
BRANCH  17  18
ATOM      1  F   UNL     1       9.388   6.802  22.388  0.00  0.00    -0.205 F 
ATOM     18  C   UNL     1      12.975   8.377  21.084  0.00  0.00    -0.030 A 
ATOM     19  C   UNL     1      12.813   6.995  21.178  0.00  0.00    +0.008 A 
ATOM     20  C   UNL     1      11.924   9.227  21.430  0.00  0.00    +0.008 A 
ATOM     21  C   UNL     1      11.602   6.463  21.619  0.00  0.00    +0.038 A 
ATOM     22  C   UNL     1      10.713   8.695  21.871  0.00  0.00    +0.038 A 
ATOM     23  C   UNL     1      10.551   7.313  21.964  0.00  0.00    +0.123 A 
ENDBRANCH  17  18
ENDBRANCH   6  17
TORSDOF 3
ENDMDL
