MODEL 1
REMARK VINA RESULT:      -7.9      0.000      0.000
REMARK  Name = 11879598
REMARK  6 active torsions:
REMARK  status: ('A' for Active; 'I' for Inactive)
REMARK    1  A    between atoms: O_3  and  C_18
REMARK    2  A    between atoms: O_3  and  C_21
REMARK    3  A    between atoms: N_6  and  C_14
REMARK    4  A    between atoms: N_7  and  C_15
REMARK    5  A    between atoms: N_11  and  C_24
REMARK    6  A    between atoms: C_19  and  C_20
REMARK                            x       y       z     vdW  Elec       q    Type
REMARK                         _______ _______ _______ _____ _____    ______ ____
ROOT
ATOM      6  N   UNL     1      12.414  12.333  23.917  0.00  0.00    -0.187 N 
ATOM      8  N   UNL     1      12.361  12.407  25.250  0.00  0.00    -0.041 NA
ATOM      9  N   UNL     1      10.591  11.307  24.459  0.00  0.00    -0.071 NA
ATOM     10  N   UNL     1      11.240  11.777  25.578  0.00  0.00    -0.020 NA
ATOM     18  C   UNL     1      11.338  11.665  23.440  0.00  0.00    +0.342 A 
ENDROOT
BRANCH   6  14
ATOM      1  O   UNL     1      15.668  12.626  24.187  0.00  0.00    -0.370 OA
ATOM      2  O   UNL     1      14.810  12.498  21.165  0.00  0.00    -0.370 OA
ATOM     12  C   UNL     1      14.305  11.898  22.373  0.00  0.00    +0.176 C 
ATOM     13  C   UNL     1      15.503  11.560  23.239  0.00  0.00    +0.171 C 
ATOM     14  C   UNL     1      13.528  12.926  23.172  0.00  0.00    +0.171 C 
ATOM     15  C   UNL     1      16.667  11.533  22.273  0.00  0.00    +0.130 C 
ATOM     16  C   UNL     1      14.605  13.576  24.034  0.00  0.00    +0.190 C 
ATOM     17  C   UNL     1      16.241  12.545  21.225  0.00  0.00    +0.185 C 
BRANCH  15   7
ATOM      4  O   UNL     1      19.064   9.954  22.276  0.00  0.00    -0.270 OA
ATOM      7  N   UNL     1      16.835  10.222  21.696  0.00  0.00    -0.304 N 
ATOM     19  C   UNL     1      18.038   9.533  21.747  0.00  0.00    +0.244 C 
ATOM     36  H   UNL     1      16.064   9.862  21.143  0.00  0.00    +0.149 HD
BRANCH  19  20
ATOM     20  C   UNL     1      18.056   8.204  21.083  0.00  0.00    +0.037 A 
ATOM     22  C   UNL     1      19.204   7.442  21.150  0.00  0.00    +0.013 A 
ATOM     23  C   UNL     1      16.925   7.774  20.421  0.00  0.00    +0.013 A 
ATOM     32  C   UNL     1      19.221   6.194  20.526  0.00  0.00    +0.001 A 
ATOM     33  C   UNL     1      16.942   6.527  19.798  0.00  0.00    +0.001 A 
ATOM     35  C   UNL     1      18.090   5.737  19.850  0.00  0.00    +0.000 A 
ENDBRANCH  19  20
ENDBRANCH  15   7
ENDBRANCH   6  14
BRANCH  18   3
ATOM      3  O   UNL     1      11.099  11.422  22.165  0.00  0.00    -0.423 OA
BRANCH   3  21
ATOM     21  C   UNL     1      11.195  10.152  21.614  0.00  0.00    +0.134 A 
ATOM     24  C   UNL     1      11.932   8.716  19.847  0.00  0.00    +0.033 A 
ATOM     25  C   UNL     1      11.835   9.994  20.400  0.00  0.00    +0.069 A 
ATOM     28  C   UNL     1      10.648   9.082  22.297  0.00  0.00    +0.046 A 
ATOM     31  C   UNL     1      11.386   7.622  20.519  0.00  0.00    +0.023 A 
ATOM     34  C   UNL     1      10.744   7.805  21.744  0.00  0.00    +0.005 A 
BRANCH  24  11
ATOM      5  O   UNL     1      13.655   7.998  16.080  0.00  0.00    -0.377 OA
ATOM     11  N   UNL     1      12.575   8.532  18.619  0.00  0.00    -0.325 N 
ATOM     26  C   UNL     1      11.924   9.056  17.410  0.00  0.00    +0.133 C 
ATOM     27  C   UNL     1      13.430   7.359  18.410  0.00  0.00    +0.133 C 
ATOM     29  C   UNL     1      12.956   9.223  16.301  0.00  0.00    +0.178 C 
ATOM     30  C   UNL     1      14.383   7.617  17.247  0.00  0.00    +0.178 C 
ENDBRANCH  24  11
ENDBRANCH   3  21
ENDBRANCH  18   3
TORSDOF 6
ENDMDL
MODEL 2
REMARK VINA RESULT:      -7.3     27.830     29.991
REMARK  Name = 11879598
REMARK  6 active torsions:
REMARK  status: ('A' for Active; 'I' for Inactive)
REMARK    1  A    between atoms: O_3  and  C_18
REMARK    2  A    between atoms: O_3  and  C_21
REMARK    3  A    between atoms: N_6  and  C_14
REMARK    4  A    between atoms: N_7  and  C_15
REMARK    5  A    between atoms: N_11  and  C_24
REMARK    6  A    between atoms: C_19  and  C_20
REMARK                            x       y       z     vdW  Elec       q    Type
REMARK                         _______ _______ _______ _____ _____    ______ ____
ROOT
ATOM      6  N   UNL     1      -6.658 -11.186  18.934  0.00  0.00    -0.187 N 
ATOM      8  N   UNL     1      -7.161 -12.018  19.851  0.00  0.00    -0.041 NA
ATOM      9  N   UNL     1      -8.759 -10.688  19.045  0.00  0.00    -0.071 NA
ATOM     10  N   UNL     1      -8.450 -11.708  19.916  0.00  0.00    -0.020 NA
ATOM     18  C   UNL     1      -7.631 -10.380  18.447  0.00  0.00    +0.342 A 
ENDROOT
BRANCH   6  14
ATOM      1  O   UNL     1      -4.615 -13.062  17.186  0.00  0.00    -0.370 OA
ATOM      2  O   UNL     1      -3.689 -10.057  17.132  0.00  0.00    -0.370 OA
ATOM     12  C   UNL     1      -4.974 -10.705  17.179  0.00  0.00    +0.176 C 
ATOM     13  C   UNL     1      -4.879 -11.949  16.317  0.00  0.00    +0.171 C 
ATOM     14  C   UNL     1      -5.237 -11.225  18.579  0.00  0.00    +0.171 C 
ATOM     15  C   UNL     1      -3.689 -11.692  15.419  0.00  0.00    +0.130 C 
ATOM     16  C   UNL     1      -4.618 -12.619  18.550  0.00  0.00    +0.190 C 
ATOM     17  C   UNL     1      -2.810 -10.814  16.290  0.00  0.00    +0.185 C 
BRANCH  15   7
ATOM      4  O   UNL     1      -2.133 -11.398  13.024  0.00  0.00    -0.270 OA
ATOM      7  N   UNL     1      -4.085 -11.003  14.214  0.00  0.00    -0.304 N 
ATOM     19  C   UNL     1      -3.260 -10.913  13.102  0.00  0.00    +0.244 C 
ATOM     36  H   UNL     1      -4.954 -10.481  14.248  0.00  0.00    +0.149 HD
BRANCH  19  20
ATOM     20  C   UNL     1      -3.802 -10.148  11.950  0.00  0.00    +0.037 A 
ATOM     22  C   UNL     1      -5.114  -9.725  11.990  0.00  0.00    +0.013 A 
ATOM     23  C   UNL     1      -2.976  -9.884  10.877  0.00  0.00    +0.013 A 
ATOM     32  C   UNL     1      -5.624  -9.007  10.908  0.00  0.00    +0.001 A 
ATOM     33  C   UNL     1      -3.486  -9.165   9.796  0.00  0.00    +0.001 A 
ATOM     35  C   UNL     1      -4.809  -8.727   9.811  0.00  0.00    +0.000 A 
ENDBRANCH  19  20
ENDBRANCH  15   7
ENDBRANCH   6  14
BRANCH  18   3
ATOM      3  O   UNL     1      -7.456  -9.451  17.527  0.00  0.00    -0.423 OA
BRANCH   3  21
ATOM     21  C   UNL     1      -8.209  -9.399  16.363  0.00  0.00    +0.134 A 
ATOM     24  C   UNL     1     -10.083  -8.537  15.151  0.00  0.00    +0.033 A 
ATOM     25  C   UNL     1      -9.327  -8.588  16.322  0.00  0.00    +0.069 A 
ATOM     28  C   UNL     1      -7.818 -10.161  15.278  0.00  0.00    +0.046 A 
ATOM     31  C   UNL     1      -9.708  -9.297  14.043  0.00  0.00    +0.023 A 
ATOM     34  C   UNL     1      -8.575 -10.109  14.107  0.00  0.00    +0.005 A 
BRANCH  24  11
ATOM      5  O   UNL     1     -13.453  -6.022  15.220  0.00  0.00    -0.377 OA
ATOM     11  N   UNL     1     -11.219  -7.723  15.086  0.00  0.00    -0.325 N 
ATOM     26  C   UNL     1     -11.039  -6.270  15.220  0.00  0.00    +0.133 C 
ATOM     27  C   UNL     1     -12.515  -8.237  15.540  0.00  0.00    +0.133 C 
ATOM     29  C   UNL     1     -12.243  -5.546  14.630  0.00  0.00    +0.178 C 
ATOM     30  C   UNL     1     -13.640  -7.407  14.932  0.00  0.00    +0.178 C 
ENDBRANCH  24  11
ENDBRANCH   3  21
ENDBRANCH  18   3
TORSDOF 6
ENDMDL
MODEL 3
REMARK VINA RESULT:      -7.2      3.792      7.262
REMARK  Name = 11879598
REMARK  6 active torsions:
REMARK  status: ('A' for Active; 'I' for Inactive)
REMARK    1  A    between atoms: O_3  and  C_18
REMARK    2  A    between atoms: O_3  and  C_21
REMARK    3  A    between atoms: N_6  and  C_14
REMARK    4  A    between atoms: N_7  and  C_15
REMARK    5  A    between atoms: N_11  and  C_24
REMARK    6  A    between atoms: C_19  and  C_20
REMARK                            x       y       z     vdW  Elec       q    Type
REMARK                         _______ _______ _______ _____ _____    ______ ____
ROOT
ATOM      6  N   UNL     1      12.428   7.346  19.510  0.00  0.00    -0.187 N 
ATOM      8  N   UNL     1      11.301   7.637  20.165  0.00  0.00    -0.041 NA
ATOM      9  N   UNL     1      12.880   6.967  21.589  0.00  0.00    -0.071 NA
ATOM     10  N   UNL     1      11.583   7.402  21.441  0.00  0.00    -0.020 NA
ATOM     18  C   UNL     1      13.385   6.940  20.377  0.00  0.00    +0.342 A 
ENDROOT
BRANCH   6  14
ATOM      1  O   UNL     1      11.764   9.591  17.215  0.00  0.00    -0.370 OA
ATOM      2  O   UNL     1      14.196   7.797  16.346  0.00  0.00    -0.370 OA
ATOM     12  C   UNL     1      13.719   8.287  17.613  0.00  0.00    +0.176 C 
ATOM     13  C   UNL     1      13.188   9.688  17.379  0.00  0.00    +0.171 C 
ATOM     14  C   UNL     1      12.510   7.484  18.053  0.00  0.00    +0.171 C 
ATOM     15  C   UNL     1      13.837  10.123  16.085  0.00  0.00    +0.130 C 
ATOM     16  C   UNL     1      11.348   8.234  17.410  0.00  0.00    +0.190 C 
ATOM     17  C   UNL     1      14.003   8.807  15.347  0.00  0.00    +0.185 C 
BRANCH  15   7
ATOM      4  O   UNL     1      14.332  12.931  16.416  0.00  0.00    -0.270 OA
ATOM      7  N   UNL     1      15.114  10.750  16.326  0.00  0.00    -0.304 N 
ATOM     19  C   UNL     1      15.255  12.122  16.473  0.00  0.00    +0.244 C 
ATOM     36  H   UNL     1      15.935  10.156  16.271  0.00  0.00    +0.149 HD
BRANCH  19  20
ATOM     20  C   UNL     1      16.640  12.614  16.692  0.00  0.00    +0.037 A 
ATOM     22  C   UNL     1      17.432  12.882  15.595  0.00  0.00    +0.013 A 
ATOM     23  C   UNL     1      17.090  12.788  17.984  0.00  0.00    +0.013 A 
ATOM     32  C   UNL     1      18.733  13.343  15.799  0.00  0.00    +0.001 A 
ATOM     33  C   UNL     1      18.389  13.251  18.189  0.00  0.00    +0.001 A 
ATOM     35  C   UNL     1      19.211  13.528  17.097  0.00  0.00    +0.000 A 
ENDBRANCH  19  20
ENDBRANCH  15   7
ENDBRANCH   6  14
BRANCH  18   3
ATOM      3  O   UNL     1      14.610   6.583  20.042  0.00  0.00    -0.423 OA
BRANCH   3  21
ATOM     21  C   UNL     1      15.734   7.278  20.466  0.00  0.00    +0.134 A 
ATOM     24  C   UNL     1      18.039   7.284  21.109  0.00  0.00    +0.033 A 
ATOM     25  C   UNL     1      16.909   6.584  20.684  0.00  0.00    +0.069 A 
ATOM     28  C   UNL     1      15.645   8.643  20.656  0.00  0.00    +0.046 A 
ATOM     31  C   UNL     1      17.972   8.663  21.309  0.00  0.00    +0.023 A 
ATOM     34  C   UNL     1      16.775   9.343  21.081  0.00  0.00    +0.005 A 
BRANCH  24  11
ATOM      5  O   UNL     1      21.498   5.020  21.878  0.00  0.00    -0.377 OA
ATOM     11  N   UNL     1      19.240   6.603  21.337  0.00  0.00    -0.325 N 
ATOM     26  C   UNL     1      19.534   5.423  20.512  0.00  0.00    +0.133 C 
ATOM     27  C   UNL     1      19.831   6.591  22.679  0.00  0.00    +0.133 C 
ATOM     29  C   UNL     1      21.032   5.141  20.534  0.00  0.00    +0.178 C 
ATOM     30  C   UNL     1      21.313   6.246  22.585  0.00  0.00    +0.178 C 
ENDBRANCH  24  11
ENDBRANCH   3  21
ENDBRANCH  18   3
TORSDOF 6
ENDMDL
MODEL 4
REMARK VINA RESULT:      -7.1     27.903     30.137
REMARK  Name = 11879598
REMARK  6 active torsions:
REMARK  status: ('A' for Active; 'I' for Inactive)
REMARK    1  A    between atoms: O_3  and  C_18
REMARK    2  A    between atoms: O_3  and  C_21
REMARK    3  A    between atoms: N_6  and  C_14
REMARK    4  A    between atoms: N_7  and  C_15
REMARK    5  A    between atoms: N_11  and  C_24
REMARK    6  A    between atoms: C_19  and  C_20
REMARK                            x       y       z     vdW  Elec       q    Type
REMARK                         _______ _______ _______ _____ _____    ______ ____
ROOT
ATOM      6  N   UNL     1      -6.967 -11.455  18.684  0.00  0.00    -0.187 N 
ATOM      8  N   UNL     1      -7.462 -12.510  19.339  0.00  0.00    -0.041 NA
ATOM      9  N   UNL     1      -9.091 -11.077  18.824  0.00  0.00    -0.071 NA
ATOM     10  N   UNL     1      -8.765 -12.273  19.423  0.00  0.00    -0.020 NA
ATOM     18  C   UNL     1      -7.958 -10.587  18.374  0.00  0.00    +0.342 A 
ENDROOT
BRANCH   6  14
ATOM      1  O   UNL     1      -4.682 -13.085  16.990  0.00  0.00    -0.370 OA
ATOM      2  O   UNL     1      -4.042 -10.007  17.046  0.00  0.00    -0.370 OA
ATOM     12  C   UNL     1      -5.260 -10.773  17.020  0.00  0.00    +0.176 C 
ATOM     13  C   UNL     1      -5.011 -11.979  16.135  0.00  0.00    +0.171 C 
ATOM     14  C   UNL     1      -5.534 -11.353  18.394  0.00  0.00    +0.171 C 
ATOM     15  C   UNL     1      -3.813 -11.589  15.298  0.00  0.00    +0.130 C 
ATOM     16  C   UNL     1      -4.786 -12.681  18.362  0.00  0.00    +0.190 C 
ATOM     17  C   UNL     1      -3.059 -10.657  16.229  0.00  0.00    +0.185 C 
BRANCH  15   7
ATOM      4  O   UNL     1      -2.250 -11.249  12.914  0.00  0.00    -0.270 OA
ATOM      7  N   UNL     1      -4.219 -10.908  14.093  0.00  0.00    -0.304 N 
ATOM     19  C   UNL     1      -3.390 -10.793  12.986  0.00  0.00    +0.244 C 
ATOM     36  H   UNL     1      -5.102 -10.409  14.122  0.00  0.00    +0.149 HD
BRANCH  19  20
ATOM     20  C   UNL     1      -3.945 -10.040  11.832  0.00  0.00    +0.037 A 
ATOM     22  C   UNL     1      -3.135  -9.802  10.741  0.00  0.00    +0.013 A 
ATOM     23  C   UNL     1      -5.252  -9.602  11.888  0.00  0.00    +0.013 A 
ATOM     32  C   UNL     1      -3.655  -9.094   9.658  0.00  0.00    +0.001 A 
ATOM     33  C   UNL     1      -5.772  -8.896  10.805  0.00  0.00    +0.001 A 
ATOM     35  C   UNL     1      -4.974  -8.641   9.690  0.00  0.00    +0.000 A 
ENDBRANCH  19  20
ENDBRANCH  15   7
ENDBRANCH   6  14
BRANCH  18   3
ATOM      3  O   UNL     1      -7.794  -9.449  17.726  0.00  0.00    -0.423 OA
BRANCH   3  21
ATOM     21  C   UNL     1      -8.764  -8.920  16.887  0.00  0.00    +0.134 A 
ATOM     24  C   UNL     1      -9.862  -8.887  14.761  0.00  0.00    +0.033 A 
ATOM     25  C   UNL     1      -8.886  -9.419  15.604  0.00  0.00    +0.069 A 
ATOM     28  C   UNL     1      -9.580  -7.909  17.358  0.00  0.00    +0.046 A 
ATOM     31  C   UNL     1     -10.696  -7.865  15.216  0.00  0.00    +0.023 A 
ATOM     34  C   UNL     1     -10.556  -7.377  16.515  0.00  0.00    +0.005 A 
BRANCH  24  11
ATOM      5  O   UNL     1     -10.427 -10.573  10.950  0.00  0.00    -0.377 OA
ATOM     11  N   UNL     1     -10.004  -9.376  13.458  0.00  0.00    -0.325 N 
ATOM     26  C   UNL     1     -11.357  -9.451  12.890  0.00  0.00    +0.133 C 
ATOM     27  C   UNL     1      -9.053 -10.363  12.939  0.00  0.00    +0.133 C 
ATOM     29  C   UNL     1     -11.276  -9.503  11.369  0.00  0.00    +0.178 C 
ATOM     30  C   UNL     1      -9.094 -10.367  11.415  0.00  0.00    +0.178 C 
ENDBRANCH  24  11
ENDBRANCH   3  21
ENDBRANCH  18   3
TORSDOF 6
ENDMDL
MODEL 5
REMARK VINA RESULT:      -6.9     30.772     32.839
REMARK  Name = 11879598
REMARK  6 active torsions:
REMARK  status: ('A' for Active; 'I' for Inactive)
REMARK    1  A    between atoms: O_3  and  C_18
REMARK    2  A    between atoms: O_3  and  C_21
REMARK    3  A    between atoms: N_6  and  C_14
REMARK    4  A    between atoms: N_7  and  C_15
REMARK    5  A    between atoms: N_11  and  C_24
REMARK    6  A    between atoms: C_19  and  C_20
REMARK                            x       y       z     vdW  Elec       q    Type
REMARK                         _______ _______ _______ _____ _____    ______ ____
ROOT
ATOM      6  N   UNL     1     -17.404   3.210  23.950  0.00  0.00    -0.187 N 
ATOM      8  N   UNL     1     -16.399   2.807  23.167  0.00  0.00    -0.041 NA
ATOM      9  N   UNL     1     -16.751   4.995  22.920  0.00  0.00    -0.071 NA
ATOM     10  N   UNL     1     -16.002   3.906  22.537  0.00  0.00    -0.020 NA
ATOM     18  C   UNL     1     -17.615   4.538  23.798  0.00  0.00    +0.342 A 
ENDROOT
BRANCH   6  14
ATOM      1  O   UNL     1     -16.859   0.308  25.375  0.00  0.00    -0.370 OA
ATOM      2  O   UNL     1     -18.786   2.065  27.131  0.00  0.00    -0.370 OA
ATOM     12  C   UNL     1     -17.675   2.363  26.265  0.00  0.00    +0.176 C 
ATOM     13  C   UNL     1     -16.660   1.250  26.441  0.00  0.00    +0.171 C 
ATOM     14  C   UNL     1     -18.111   2.262  24.815  0.00  0.00    +0.171 C 
ATOM     15  C   UNL     1     -17.020   0.622  27.769  0.00  0.00    +0.130 C 
ATOM     16  C   UNL     1     -17.876   0.791  24.488  0.00  0.00    +0.190 C 
ATOM     17  C   UNL     1     -18.520   0.846  27.837  0.00  0.00    +0.185 C 
BRANCH  15   7
ATOM      4  O   UNL     1     -14.688  -0.315  29.157  0.00  0.00    -0.270 OA
ATOM      7  N   UNL     1     -16.344   1.282  28.859  0.00  0.00    -0.304 N 
ATOM     19  C   UNL     1     -15.218   0.749  29.470  0.00  0.00    +0.244 C 
ATOM     36  H   UNL     1     -16.791   2.106  29.245  0.00  0.00    +0.149 HD
BRANCH  19  20
ATOM     20  C   UNL     1     -14.653   1.538  30.594  0.00  0.00    +0.037 A 
ATOM     22  C   UNL     1     -13.745   2.538  30.316  0.00  0.00    +0.013 A 
ATOM     23  C   UNL     1     -15.053   1.245  31.881  0.00  0.00    +0.013 A 
ATOM     32  C   UNL     1     -13.214   3.279  31.372  0.00  0.00    +0.001 A 
ATOM     33  C   UNL     1     -14.523   1.986  32.937  0.00  0.00    +0.001 A 
ATOM     35  C   UNL     1     -13.603   3.002  32.683  0.00  0.00    +0.000 A 
ENDBRANCH  19  20
ENDBRANCH  15   7
ENDBRANCH   6  14
BRANCH  18   3
ATOM      3  O   UNL     1     -18.537   5.237  24.433  0.00  0.00    -0.423 OA
BRANCH   3  21
ATOM     21  C   UNL     1     -18.225   6.177  25.405  0.00  0.00    +0.134 A 
ATOM     24  C   UNL     1     -17.552   6.688  27.644  0.00  0.00    +0.033 A 
ATOM     25  C   UNL     1     -17.866   5.743  26.667  0.00  0.00    +0.069 A 
ATOM     28  C   UNL     1     -18.281   7.519  25.083  0.00  0.00    +0.046 A 
ATOM     31  C   UNL     1     -17.603   8.049  27.341  0.00  0.00    +0.023 A 
ATOM     34  C   UNL     1     -17.967   8.465  26.059  0.00  0.00    +0.005 A 
BRANCH  24  11
ATOM      5  O   UNL     1     -16.191   5.505  31.443  0.00  0.00    -0.377 OA
ATOM     11  N   UNL     1     -17.187   6.273  28.929  0.00  0.00    -0.325 N 
ATOM     26  C   UNL     1     -16.665   7.283  29.861  0.00  0.00    +0.133 C 
ATOM     27  C   UNL     1     -16.694   4.909  29.145  0.00  0.00    +0.133 C 
ATOM     29  C   UNL     1     -16.809   6.784  31.294  0.00  0.00    +0.178 C 
ATOM     30  C   UNL     1     -16.837   4.537  30.617  0.00  0.00    +0.178 C 
ENDBRANCH  24  11
ENDBRANCH   3  21
ENDBRANCH  18   3
TORSDOF 6
ENDMDL
MODEL 6
REMARK VINA RESULT:      -6.9     25.210     28.850
REMARK  Name = 11879598
REMARK  6 active torsions:
REMARK  status: ('A' for Active; 'I' for Inactive)
REMARK    1  A    between atoms: O_3  and  C_18
REMARK    2  A    between atoms: O_3  and  C_21
REMARK    3  A    between atoms: N_6  and  C_14
REMARK    4  A    between atoms: N_7  and  C_15
REMARK    5  A    between atoms: N_11  and  C_24
REMARK    6  A    between atoms: C_19  and  C_20
REMARK                            x       y       z     vdW  Elec       q    Type
REMARK                         _______ _______ _______ _____ _____    ______ ____
ROOT
ATOM      6  N   UNL     1     -16.894   6.772  21.398  0.00  0.00    -0.187 N 
ATOM      8  N   UNL     1     -17.479   5.734  22.004  0.00  0.00    -0.041 NA
ATOM      9  N   UNL     1     -16.128   5.027  20.378  0.00  0.00    -0.071 NA
ATOM     10  N   UNL     1     -17.006   4.666  21.374  0.00  0.00    -0.020 NA
ATOM     18  C   UNL     1     -16.075   6.339  20.411  0.00  0.00    +0.342 A 
ENDROOT
BRANCH   6  14
ATOM      1  O   UNL     1     -17.937   8.353  24.074  0.00  0.00    -0.370 OA
ATOM      2  O   UNL     1     -15.950  10.147  22.424  0.00  0.00    -0.370 OA
ATOM     12  C   UNL     1     -16.053   8.731  22.663  0.00  0.00    +0.176 C 
ATOM     13  C   UNL     1     -16.514   8.552  24.097  0.00  0.00    +0.171 C 
ATOM     14  C   UNL     1     -17.172   8.147  21.822  0.00  0.00    +0.171 C 
ATOM     15  C   UNL     1     -16.180   9.867  24.765  0.00  0.00    +0.130 C 
ATOM     16  C   UNL     1     -18.396   8.311  22.716  0.00  0.00    +0.190 C 
ATOM     17  C   UNL     1     -16.310  10.854  23.619  0.00  0.00    +0.185 C 
BRANCH  15   7
ATOM      4  O   UNL     1     -15.197  11.422  26.969  0.00  0.00    -0.270 OA
ATOM      7  N   UNL     1     -14.839   9.857  25.295  0.00  0.00    -0.304 N 
ATOM     19  C   UNL     1     -14.455  10.648  26.369  0.00  0.00    +0.244 C 
ATOM     36  H   UNL     1     -14.144   9.328  24.778  0.00  0.00    +0.149 HD
BRANCH  19  20
ATOM     20  C   UNL     1     -13.032  10.541  26.780  0.00  0.00    +0.037 A 
ATOM     22  C   UNL     1     -12.738  10.315  28.108  0.00  0.00    +0.013 A 
ATOM     23  C   UNL     1     -12.049  10.671  25.821  0.00  0.00    +0.013 A 
ATOM     32  C   UNL     1     -11.401  10.216  28.495  0.00  0.00    +0.001 A 
ATOM     33  C   UNL     1     -10.713  10.571  26.207  0.00  0.00    +0.001 A 
ATOM     35  C   UNL     1     -10.389  10.344  27.544  0.00  0.00    +0.000 A 
ENDBRANCH  19  20
ENDBRANCH  15   7
ENDBRANCH   6  14
BRANCH  18   3
ATOM      3  O   UNL     1     -15.353   7.118  19.628  0.00  0.00    -0.423 OA
BRANCH   3  21
ATOM     21  C   UNL     1     -13.995   7.323  19.824  0.00  0.00    +0.134 A 
ATOM     24  C   UNL     1     -11.948   8.373  19.166  0.00  0.00    +0.033 A 
ATOM     25  C   UNL     1     -13.313   8.167  18.968  0.00  0.00    +0.069 A 
ATOM     28  C   UNL     1     -13.363   6.677  20.870  0.00  0.00    +0.046 A 
ATOM     31  C   UNL     1     -11.290   7.731  20.215  0.00  0.00    +0.023 A 
ATOM     34  C   UNL     1     -11.998   6.883  21.068  0.00  0.00    +0.005 A 
BRANCH  24  11
ATOM      5  O   UNL     1      -9.586  10.774  16.648  0.00  0.00    -0.377 OA
ATOM     11  N   UNL     1     -11.237   9.224  18.313  0.00  0.00    -0.325 N 
ATOM     26  C   UNL     1     -10.721   8.668  17.054  0.00  0.00    +0.133 C 
ATOM     27  C   UNL     1     -10.463  10.338  18.868  0.00  0.00    +0.133 C 
ATOM     29  C   UNL     1     -10.450   9.796  16.066  0.00  0.00    +0.178 C 
ATOM     30  C   UNL     1     -10.205  11.378  17.783  0.00  0.00    +0.178 C 
ENDBRANCH  24  11
ENDBRANCH   3  21
ENDBRANCH  18   3
TORSDOF 6
ENDMDL
MODEL 7
REMARK VINA RESULT:      -6.8     27.293     30.726
REMARK  Name = 11879598
REMARK  6 active torsions:
REMARK  status: ('A' for Active; 'I' for Inactive)
REMARK    1  A    between atoms: O_3  and  C_18
REMARK    2  A    between atoms: O_3  and  C_21
REMARK    3  A    between atoms: N_6  and  C_14
REMARK    4  A    between atoms: N_7  and  C_15
REMARK    5  A    between atoms: N_11  and  C_24
REMARK    6  A    between atoms: C_19  and  C_20
REMARK                            x       y       z     vdW  Elec       q    Type
REMARK                         _______ _______ _______ _____ _____    ______ ____
ROOT
ATOM      6  N   UNL     1      -3.671 -10.053  11.191  0.00  0.00    -0.187 N 
ATOM      8  N   UNL     1      -3.265  -9.109  10.338  0.00  0.00    -0.041 NA
ATOM      9  N   UNL     1      -1.537  -9.904  11.501  0.00  0.00    -0.071 NA
ATOM     10  N   UNL     1      -1.955  -9.020  10.533  0.00  0.00    -0.020 NA
ATOM     18  C   UNL     1      -2.621 -10.534  11.896  0.00  0.00    +0.342 A 
ENDROOT
BRANCH   6  14
ATOM      1  O   UNL     1      -6.593  -8.615  11.571  0.00  0.00    -0.370 OA
ATOM      2  O   UNL     1      -6.848 -11.202   9.801  0.00  0.00    -0.370 OA
ATOM     12  C   UNL     1      -5.824 -10.204   9.969  0.00  0.00    +0.176 C 
ATOM     13  C   UNL     1      -6.524  -8.872  10.159  0.00  0.00    +0.171 C 
ATOM     14  C   UNL     1      -5.083 -10.439  11.271  0.00  0.00    +0.171 C 
ATOM     15  C   UNL     1      -7.911  -9.095   9.599  0.00  0.00    +0.130 C 
ATOM     16  C   UNL     1      -5.910  -9.654  12.284  0.00  0.00    +0.190 C 
ATOM     17  C   UNL     1      -8.134 -10.573   9.867  0.00  0.00    +0.185 C 
BRANCH  15   7
ATOM      4  O   UNL     1      -9.925  -7.583   8.220  0.00  0.00    -0.270 OA
ATOM      7  N   UNL     1      -7.956  -8.809   8.186  0.00  0.00    -0.304 N 
ATOM     19  C   UNL     1      -8.975  -8.066   7.607  0.00  0.00    +0.244 C 
ATOM     36  H   UNL     1      -7.267  -9.271   7.602  0.00  0.00    +0.149 HD
BRANCH  19  20
ATOM     20  C   UNL     1      -8.890  -7.880   6.136  0.00  0.00    +0.037 A 
ATOM     22  C   UNL     1      -7.757  -8.306   5.475  0.00  0.00    +0.013 A 
ATOM     23  C   UNL     1      -9.947  -7.288   5.477  0.00  0.00    +0.013 A 
ATOM     32  C   UNL     1      -7.676  -8.131   4.094  0.00  0.00    +0.001 A 
ATOM     33  C   UNL     1      -9.868  -7.115   4.095  0.00  0.00    +0.001 A 
ATOM     35  C   UNL     1      -8.732  -7.535   3.404  0.00  0.00    +0.000 A 
ENDBRANCH  19  20
ENDBRANCH  15   7
ENDBRANCH   6  14
BRANCH  18   3
ATOM      3  O   UNL     1      -2.692 -11.477  12.817  0.00  0.00    -0.423 OA
BRANCH   3  21
ATOM     21  C   UNL     1      -2.713 -11.195  14.175  0.00  0.00    +0.134 A 
ATOM     24  C   UNL     1      -3.950 -10.739  16.172  0.00  0.00    +0.033 A 
ATOM     25  C   UNL     1      -3.930 -11.021  14.806  0.00  0.00    +0.069 A 
ATOM     28  C   UNL     1      -1.516 -11.097  14.858  0.00  0.00    +0.046 A 
ATOM     31  C   UNL     1      -2.753 -10.635  16.881  0.00  0.00    +0.023 A 
ATOM     34  C   UNL     1      -1.536 -10.814  16.224  0.00  0.00    +0.005 A 
BRANCH  24  11
ATOM      5  O   UNL     1      -7.534  -9.943  18.223  0.00  0.00    -0.377 OA
ATOM     11  N   UNL     1      -5.170 -10.559  16.832  0.00  0.00    -0.325 N 
ATOM     26  C   UNL     1      -6.104  -9.556  16.301  0.00  0.00    +0.133 C 
ATOM     27  C   UNL     1      -5.263 -10.797  18.276  0.00  0.00    +0.133 C 
ATOM     29  C   UNL     1      -7.514  -9.851  16.798  0.00  0.00    +0.178 C 
ATOM     30  C   UNL     1      -6.719 -11.027  18.668  0.00  0.00    +0.178 C 
ENDBRANCH  24  11
ENDBRANCH   3  21
ENDBRANCH  18   3
TORSDOF 6
ENDMDL
MODEL 8
REMARK VINA RESULT:      -6.8     28.463     30.563
REMARK  Name = 11879598
REMARK  6 active torsions:
REMARK  status: ('A' for Active; 'I' for Inactive)
REMARK    1  A    between atoms: O_3  and  C_18
REMARK    2  A    between atoms: O_3  and  C_21
REMARK    3  A    between atoms: N_6  and  C_14
REMARK    4  A    between atoms: N_7  and  C_15
REMARK    5  A    between atoms: N_11  and  C_24
REMARK    6  A    between atoms: C_19  and  C_20
REMARK                            x       y       z     vdW  Elec       q    Type
REMARK                         _______ _______ _______ _____ _____    ______ ____
ROOT
ATOM      6  N   UNL     1      -3.730 -11.272  15.839  0.00  0.00    -0.187 N 
ATOM      8  N   UNL     1      -2.613 -10.738  16.341  0.00  0.00    -0.041 NA
ATOM      9  N   UNL     1      -2.671 -10.486  14.126  0.00  0.00    -0.071 NA
ATOM     10  N   UNL     1      -1.966 -10.258  15.286  0.00  0.00    -0.020 NA
ATOM     18  C   UNL     1      -3.762 -11.117  14.495  0.00  0.00    +0.342 A 
ENDROOT
BRANCH   6  14
ATOM      1  O   UNL     1      -5.150 -10.736  18.746  0.00  0.00    -0.370 OA
ATOM      2  O   UNL     1      -7.112 -12.250  16.810  0.00  0.00    -0.370 OA
ATOM     12  C   UNL     1      -6.085 -11.261  16.617  0.00  0.00    +0.176 C 
ATOM     13  C   UNL     1      -6.146 -10.315  17.800  0.00  0.00    +0.171 C 
ATOM     14  C   UNL     1      -4.718 -11.911  16.712  0.00  0.00    +0.171 C 
ATOM     15  C   UNL     1      -7.531 -10.520  18.372  0.00  0.00    +0.130 C 
ATOM     16  C   UNL     1      -4.406 -11.835  18.203  0.00  0.00    +0.190 C 
ATOM     17  C   UNL     1      -7.810 -11.973  18.032  0.00  0.00    +0.185 C 
BRANCH  15   7
ATOM      4  O   UNL     1     -10.295 -10.212  19.086  0.00  0.00    -0.270 OA
ATOM      7  N   UNL     1      -8.490  -9.644  17.744  0.00  0.00    -0.304 N 
ATOM     19  C   UNL     1      -9.811  -9.564  18.161  0.00  0.00    +0.244 C 
ATOM     36  H   UNL     1      -8.191  -9.165  16.901  0.00  0.00    +0.149 HD
BRANCH  19  20
ATOM     20  C   UNL     1     -10.679  -8.633  17.395  0.00  0.00    +0.037 A 
ATOM     22  C   UNL     1     -10.135  -7.463  16.908  0.00  0.00    +0.013 A 
ATOM     23  C   UNL     1     -12.002  -8.968  17.194  0.00  0.00    +0.013 A 
ATOM     32  C   UNL     1     -10.950  -6.588  16.190  0.00  0.00    +0.001 A 
ATOM     33  C   UNL     1     -12.817  -8.095  16.475  0.00  0.00    +0.001 A 
ATOM     35  C   UNL     1     -12.292  -6.905  15.973  0.00  0.00    +0.000 A 
ENDBRANCH  19  20
ENDBRANCH  15   7
ENDBRANCH   6  14
BRANCH  18   3
ATOM      3  O   UNL     1      -4.735 -11.535  13.706  0.00  0.00    -0.423 OA
BRANCH   3  21
ATOM     21  C   UNL     1      -5.234 -10.768  12.663  0.00  0.00    +0.134 A 
ATOM     24  C   UNL     1      -5.482 -10.388  10.314  0.00  0.00    +0.033 A 
ATOM     25  C   UNL     1      -4.980 -11.159  11.362  0.00  0.00    +0.069 A 
ATOM     28  C   UNL     1      -5.970  -9.636  12.955  0.00  0.00    +0.046 A 
ATOM     31  C   UNL     1      -6.228  -9.241  10.586  0.00  0.00    +0.023 A 
ATOM     34  C   UNL     1      -6.472  -8.865  11.907  0.00  0.00    +0.005 A 
BRANCH  24  11
ATOM      5  O   UNL     1      -4.492 -11.419   6.359  0.00  0.00    -0.377 OA
ATOM     11  N   UNL     1      -5.238 -10.764   8.988  0.00  0.00    -0.325 N 
ATOM     26  C   UNL     1      -4.245 -11.818   8.739  0.00  0.00    +0.133 C 
ATOM     27  C   UNL     1      -5.395  -9.784   7.909  0.00  0.00    +0.133 C 
ATOM     29  C   UNL     1      -4.480 -12.432   7.364  0.00  0.00    +0.178 C 
ATOM     30  C   UNL     1      -5.569 -10.508   6.578  0.00  0.00    +0.178 C 
ENDBRANCH  24  11
ENDBRANCH   3  21
ENDBRANCH  18   3
TORSDOF 6
ENDMDL
MODEL 9
REMARK VINA RESULT:      -6.8     28.767     30.406
REMARK  Name = 11879598
REMARK  6 active torsions:
REMARK  status: ('A' for Active; 'I' for Inactive)
REMARK    1  A    between atoms: O_3  and  C_18
REMARK    2  A    between atoms: O_3  and  C_21
REMARK    3  A    between atoms: N_6  and  C_14
REMARK    4  A    between atoms: N_7  and  C_15
REMARK    5  A    between atoms: N_11  and  C_24
REMARK    6  A    between atoms: C_19  and  C_20
REMARK                            x       y       z     vdW  Elec       q    Type
REMARK                         _______ _______ _______ _____ _____    ______ ____
ROOT
ATOM      6  N   UNL     1      -8.951 -11.189  17.999  0.00  0.00    -0.187 N 
ATOM      8  N   UNL     1      -9.489 -10.515  19.020  0.00  0.00    -0.041 NA
ATOM      9  N   UNL     1      -7.666 -11.613  19.685  0.00  0.00    -0.071 NA
ATOM     10  N   UNL     1      -8.697 -10.778  20.052  0.00  0.00    -0.020 NA
ATOM     18  C   UNL     1      -7.845 -11.855  18.406  0.00  0.00    +0.342 A 
ENDROOT
BRANCH   6  14
ATOM      1  O   UNL     1      -9.669  -8.964  15.700  0.00  0.00    -0.370 OA
ATOM      2  O   UNL     1      -8.988 -11.740  14.389  0.00  0.00    -0.370 OA
ATOM     12  C   UNL     1      -8.520 -11.048  15.561  0.00  0.00    +0.176 C 
ATOM     13  C   UNL     1      -8.461  -9.573  15.216  0.00  0.00    +0.171 C 
ATOM     14  C   UNL     1      -9.556 -11.145  16.665  0.00  0.00    +0.171 C 
ATOM     15  C   UNL     1      -8.429  -9.543  13.704  0.00  0.00    +0.130 C 
ATOM     16  C   UNL     1     -10.451  -9.939  16.402  0.00  0.00    +0.190 C 
ATOM     17  C   UNL     1      -9.214 -10.790  13.339  0.00  0.00    +0.185 C 
BRANCH  15   7
ATOM      4  O   UNL     1      -7.544  -8.942  11.040  0.00  0.00    -0.270 OA
ATOM      7  N   UNL     1      -7.075  -9.615  13.210  0.00  0.00    -0.304 N 
ATOM     19  C   UNL     1      -6.743  -9.304  11.899  0.00  0.00    +0.244 C 
ATOM     36  H   UNL     1      -6.381 -10.017  13.831  0.00  0.00    +0.149 HD
BRANCH  19  20
ATOM     20  C   UNL     1      -5.310  -9.453  11.538  0.00  0.00    +0.037 A 
ATOM     22  C   UNL     1      -4.488 -10.190  12.365  0.00  0.00    +0.013 A 
ATOM     23  C   UNL     1      -4.845  -8.851  10.388  0.00  0.00    +0.013 A 
ATOM     32  C   UNL     1      -3.142 -10.330  12.028  0.00  0.00    +0.001 A 
ATOM     33  C   UNL     1      -3.500  -8.991  10.049  0.00  0.00    +0.001 A 
ATOM     35  C   UNL     1      -2.648  -9.730  10.869  0.00  0.00    +0.000 A 
ENDBRANCH  19  20
ENDBRANCH  15   7
ENDBRANCH   6  14
BRANCH  18   3
ATOM      3  O   UNL     1      -7.088 -12.611  17.634  0.00  0.00    -0.423 OA
BRANCH   3  21
ATOM     21  C   UNL     1      -5.913 -12.150  17.057  0.00  0.00    +0.134 A 
ATOM     24  C   UNL     1      -4.119 -12.451  15.502  0.00  0.00    +0.033 A 
ATOM     25  C   UNL     1      -5.300 -12.915  16.082  0.00  0.00    +0.069 A 
ATOM     28  C   UNL     1      -5.391 -10.940  17.472  0.00  0.00    +0.046 A 
ATOM     31  C   UNL     1      -3.574 -11.232  15.907  0.00  0.00    +0.023 A 
ATOM     34  C   UNL     1      -4.210 -10.477  16.892  0.00  0.00    +0.005 A 
BRANCH  24  11
ATOM      5  O   UNL     1      -2.180 -14.494  12.379  0.00  0.00    -0.377 OA
ATOM     11  N   UNL     1      -3.480 -13.207  14.514  0.00  0.00    -0.325 N 
ATOM     26  C   UNL     1      -2.076 -12.900  14.206  0.00  0.00    +0.133 C 
ATOM     27  C   UNL     1      -4.257 -13.764  13.402  0.00  0.00    +0.133 C 
ATOM     29  C   UNL     1      -1.425 -14.097  13.524  0.00  0.00    +0.178 C 
ATOM     30  C   UNL     1      -3.488 -14.916  12.763  0.00  0.00    +0.178 C 
ENDBRANCH  24  11
ENDBRANCH   3  21
ENDBRANCH  18   3
TORSDOF 6
ENDMDL
MODEL 10
REMARK VINA RESULT:      -6.7     27.892     30.570
REMARK  Name = 11879598
REMARK  6 active torsions:
REMARK  status: ('A' for Active; 'I' for Inactive)
REMARK    1  A    between atoms: O_3  and  C_18
REMARK    2  A    between atoms: O_3  and  C_21
REMARK    3  A    between atoms: N_6  and  C_14
REMARK    4  A    between atoms: N_7  and  C_15
REMARK    5  A    between atoms: N_11  and  C_24
REMARK    6  A    between atoms: C_19  and  C_20
REMARK                            x       y       z     vdW  Elec       q    Type
REMARK                         _______ _______ _______ _____ _____    ______ ____
ROOT
ATOM      6  N   UNL     1      -3.385 -11.601  15.458  0.00  0.00    -0.187 N 
ATOM      8  N   UNL     1      -2.979 -11.029  16.595  0.00  0.00    -0.041 NA
ATOM      9  N   UNL     1      -1.667 -10.414  14.900  0.00  0.00    -0.071 NA
ATOM     10  N   UNL     1      -1.925 -10.302  16.248  0.00  0.00    -0.020 NA
ATOM     18  C   UNL     1      -2.587 -11.227  14.431  0.00  0.00    +0.342 A 
ENDROOT
BRANCH   6  14
ATOM      1  O   UNL     1      -5.836 -12.489  17.446  0.00  0.00    -0.370 OA
ATOM      2  O   UNL     1      -6.749 -12.593  14.439  0.00  0.00    -0.370 OA
ATOM     12  C   UNL     1      -5.845 -11.753  15.179  0.00  0.00    +0.176 C 
ATOM     13  C   UNL     1      -6.451 -11.546  16.554  0.00  0.00    +0.171 C 
ATOM     14  C   UNL     1      -4.547 -12.495  15.437  0.00  0.00    +0.171 C 
ATOM     15  C   UNL     1      -7.915 -11.874  16.371  0.00  0.00    +0.130 C 
ATOM     16  C   UNL     1      -4.823 -13.224  16.747  0.00  0.00    +0.190 C 
ATOM     17  C   UNL     1      -7.878 -12.912  15.264  0.00  0.00    +0.185 C 
BRANCH  15   7
ATOM      4  O   UNL     1      -9.500 -10.187  18.070  0.00  0.00    -0.270 OA
ATOM      7  N   UNL     1      -8.665 -10.709  15.970  0.00  0.00    -0.304 N 
ATOM     19  C   UNL     1      -9.405  -9.953  16.867  0.00  0.00    +0.244 C 
ATOM     36  H   UNL     1      -8.727 -10.523  14.974  0.00  0.00    +0.149 HD
BRANCH  19  20
ATOM     20  C   UNL     1     -10.142  -8.798  16.293  0.00  0.00    +0.037 A 
ATOM     22  C   UNL     1     -10.736  -8.936  15.056  0.00  0.00    +0.013 A 
ATOM     23  C   UNL     1     -10.210  -7.625  17.015  0.00  0.00    +0.013 A 
ATOM     32  C   UNL     1     -11.428  -7.852  14.515  0.00  0.00    +0.001 A 
ATOM     33  C   UNL     1     -10.902  -6.541  16.475  0.00  0.00    +0.001 A 
ATOM     35  C   UNL     1     -11.510  -6.654  15.226  0.00  0.00    +0.000 A 
ENDBRANCH  19  20
ENDBRANCH  15   7
ENDBRANCH   6  14
BRANCH  18   3
ATOM      3  O   UNL     1      -2.726 -11.620  13.179  0.00  0.00    -0.423 OA
BRANCH   3  21
ATOM     21  C   UNL     1      -3.175 -10.774  12.175  0.00  0.00    +0.134 A 
ATOM     24  C   UNL     1      -4.985  -9.753  10.990  0.00  0.00    +0.033 A 
ATOM     25  C   UNL     1      -4.535 -10.604  11.999  0.00  0.00    +0.069 A 
ATOM     28  C   UNL     1      -2.249 -10.125  11.381  0.00  0.00    +0.046 A 
ATOM     31  C   UNL     1      -4.068  -9.088  10.175  0.00  0.00    +0.023 A 
ATOM     34  C   UNL     1      -2.699  -9.274  10.371  0.00  0.00    +0.005 A 
BRANCH  24  11
ATOM      5  O   UNL     1      -9.119  -9.442  10.284  0.00  0.00    -0.377 OA
ATOM     11  N   UNL     1      -6.358  -9.565  10.792  0.00  0.00    -0.325 N 
ATOM     26  C   UNL     1      -7.288 -10.426  11.536  0.00  0.00    +0.133 C 
ATOM     27  C   UNL     1      -6.851  -9.080   9.500  0.00  0.00    +0.133 C 
ATOM     29  C   UNL     1      -8.661  -9.767  11.597  0.00  0.00    +0.178 C 
ATOM     30  C   UNL     1      -8.249  -8.493   9.670  0.00  0.00    +0.178 C 
ENDBRANCH  24  11
ENDBRANCH   3  21
ENDBRANCH  18   3
TORSDOF 6
ENDMDL
