MODEL 1
REMARK VINA RESULT:      -8.2      0.000      0.000
REMARK  Name = 7143710
REMARK  5 active torsions:
REMARK  status: ('A' for Active; 'I' for Inactive)
REMARK    1  A    between atoms: O_3  and  C_20
REMARK    2  A    between atoms: O_3  and  C_28
REMARK    3  A    between atoms: C_15  and  C_18
REMARK    4  A    between atoms: C_16  and  C_19
REMARK    5  A    between atoms: C_18  and  C_20
REMARK                            x       y       z     vdW  Elec       q    Type
REMARK                         _______ _______ _______ _____ _____    ______ ____
ROOT
ATOM      1  O   UNL     1      15.267   6.111  21.543  0.00  0.00    -0.267 OA
ATOM      2  O   UNL     1      11.926   7.244  17.524  0.00  0.00    -0.276 OA
ATOM      4  N   UNL     1      12.144   9.067  18.949  0.00  0.00    -0.300 N 
ATOM      5  N   UNL     1      14.297   8.194  21.141  0.00  0.00    -0.311 N 
ATOM      6  C   UNL     1      11.781   8.610  21.378  0.00  0.00    +0.027 C 
ATOM      7  C   UNL     1      13.264  10.447  20.690  0.00  0.00    +0.054 C 
ATOM      8  C   UNL     1      12.189  10.042  21.697  0.00  0.00    +0.018 C 
ATOM      9  C   UNL     1      11.226   8.513  19.946  0.00  0.00    +0.113 C 
ATOM     10  C   UNL     1      12.991   7.691  21.590  0.00  0.00    +0.130 C 
ATOM     11  C   UNL     1      12.680  10.400  19.265  0.00  0.00    +0.117 C 
ATOM     12  C   UNL     1      14.471   9.532  20.781  0.00  0.00    +0.027 A 
ATOM     13  C   UNL     1      15.697   9.998  20.491  0.00  0.00    +0.022 A 
ATOM     14  C   UNL     1      15.376   7.289  21.197  0.00  0.00    +0.259 A 
ATOM     15  C   UNL     1      12.386   8.363  17.770  0.00  0.00    +0.218 C 
ATOM     16  C   UNL     1      16.731   7.831  20.831  0.00  0.00    +0.047 A 
ATOM     17  C   UNL     1      16.839   9.130  20.512  0.00  0.00    +0.015 A 
ENDROOT
BRANCH  16  19
ATOM     19  C   UNL     1      17.920   6.962  20.811  0.00  0.00    -0.012 A 
ATOM     21  C   UNL     1      18.884   7.071  21.816  0.00  0.00    +0.017 A 
ATOM     22  C   UNL     1      18.086   6.031  19.789  0.00  0.00    +0.009 A 
ATOM     23  C   UNL     1      20.023   6.249  21.810  0.00  0.00    -0.017 A 
ATOM     24  C   UNL     1      19.210   5.207  19.768  0.00  0.00    +0.009 A 
ATOM     25  C   UNL     1      20.188   5.303  20.772  0.00  0.00    -0.018 A 
ATOM     26  C   UNL     1      21.000   6.346  22.814  0.00  0.00    +0.008 A 
ATOM     27  C   UNL     1      21.327   4.481  20.767  0.00  0.00    +0.008 A 
ATOM     29  C   UNL     1      22.125   5.521  22.794  0.00  0.00    +0.001 A 
ATOM     30  C   UNL     1      22.289   4.591  21.771  0.00  0.00    +0.001 A 
ENDBRANCH  16  19
BRANCH  15  18
ATOM     18  C   UNL     1      13.273   9.034  16.752  0.00  0.00    +0.124 C 
BRANCH  18  20
ATOM     20  C   UNL     1      12.433   9.521  15.591  0.00  0.00    +0.168 C 
BRANCH  20   3
ATOM      3  O   UNL     1      13.171  10.476  14.838  0.00  0.00    -0.382 OA
ATOM     28  C   UNL     1      14.218  11.049  15.609  0.00  0.00    +0.194 C 
ENDBRANCH  20   3
ENDBRANCH  18  20
ENDBRANCH  15  18
TORSDOF 4
ENDMDL
MODEL 2
REMARK VINA RESULT:      -7.8      1.252      1.679
REMARK  Name = 7143710
REMARK  5 active torsions:
REMARK  status: ('A' for Active; 'I' for Inactive)
REMARK    1  A    between atoms: O_3  and  C_20
REMARK    2  A    between atoms: O_3  and  C_28
REMARK    3  A    between atoms: C_15  and  C_18
REMARK    4  A    between atoms: C_16  and  C_19
REMARK    5  A    between atoms: C_18  and  C_20
REMARK                            x       y       z     vdW  Elec       q    Type
REMARK                         _______ _______ _______ _____ _____    ______ ____
ROOT
ATOM      1  O   UNL     1      15.276   5.985  19.745  0.00  0.00    -0.267 OA
ATOM      2  O   UNL     1      13.690   8.645  15.385  0.00  0.00    -0.276 OA
ATOM      4  N   UNL     1      13.041   9.768  17.313  0.00  0.00    -0.300 N 
ATOM      5  N   UNL     1      14.244   8.077  19.741  0.00  0.00    -0.311 N 
ATOM      6  C   UNL     1      11.812   8.411  19.012  0.00  0.00    +0.027 C 
ATOM      7  C   UNL     1      13.148  10.345  19.730  0.00  0.00    +0.054 C 
ATOM      8  C   UNL     1      11.836   9.600  19.963  0.00  0.00    +0.018 C 
ATOM      9  C   UNL     1      11.897   8.886  17.551  0.00  0.00    +0.113 C 
ATOM     10  C   UNL     1      12.960   7.462  19.376  0.00  0.00    +0.130 C 
ATOM     11  C   UNL     1      13.197  10.864  18.280  0.00  0.00    +0.117 C 
ATOM     12  C   UNL     1      14.342   9.447  19.995  0.00  0.00    +0.027 A 
ATOM     13  C   UNL     1      15.495   9.968  20.443  0.00  0.00    +0.022 A 
ATOM     14  C   UNL     1      15.334   7.203  19.925  0.00  0.00    +0.259 A 
ATOM     15  C   UNL     1      13.837   9.573  16.185  0.00  0.00    +0.218 C 
ATOM     16  C   UNL     1      16.624   7.823  20.393  0.00  0.00    +0.047 A 
ATOM     17  C   UNL     1      16.651   9.141  20.639  0.00  0.00    +0.015 A 
ENDROOT
BRANCH  16  19
ATOM     19  C   UNL     1      17.838   7.010  20.574  0.00  0.00    -0.012 A 
ATOM     21  C   UNL     1      18.675   7.235  21.669  0.00  0.00    +0.017 A 
ATOM     22  C   UNL     1      18.154   6.014  19.653  0.00  0.00    +0.009 A 
ATOM     23  C   UNL     1      19.837   6.468  21.855  0.00  0.00    -0.017 A 
ATOM     24  C   UNL     1      19.304   5.243  19.822  0.00  0.00    +0.009 A 
ATOM     25  C   UNL     1      20.155   5.457  20.918  0.00  0.00    -0.018 A 
ATOM     26  C   UNL     1      20.688   6.682  22.951  0.00  0.00    +0.008 A 
ATOM     27  C   UNL     1      21.317   4.689  21.104  0.00  0.00    +0.008 A 
ATOM     29  C   UNL     1      21.838   5.910  23.121  0.00  0.00    +0.001 A 
ATOM     30  C   UNL     1      22.152   4.916  22.199  0.00  0.00    +0.001 A 
ENDBRANCH  16  19
BRANCH  15  18
ATOM     18  C   UNL     1      14.944  10.570  15.958  0.00  0.00    +0.124 C 
BRANCH  18  20
ATOM     20  C   UNL     1      15.483  10.418  14.552  0.00  0.00    +0.168 C 
BRANCH  20   3
ATOM      3  O   UNL     1      14.812  11.324  13.685  0.00  0.00    -0.382 OA
ATOM     28  C   UNL     1      15.675  11.801  12.662  0.00  0.00    +0.194 C 
ENDBRANCH  20   3
ENDBRANCH  18  20
ENDBRANCH  15  18
TORSDOF 4
ENDMDL
MODEL 3
REMARK VINA RESULT:      -7.0     27.559     31.596
REMARK  Name = 7143710
REMARK  5 active torsions:
REMARK  status: ('A' for Active; 'I' for Inactive)
REMARK    1  A    between atoms: O_3  and  C_20
REMARK    2  A    between atoms: O_3  and  C_28
REMARK    3  A    between atoms: C_15  and  C_18
REMARK    4  A    between atoms: C_16  and  C_19
REMARK    5  A    between atoms: C_18  and  C_20
REMARK                            x       y       z     vdW  Elec       q    Type
REMARK                         _______ _______ _______ _____ _____    ______ ____
ROOT
ATOM      1  O   UNL     1     -13.481   4.698  23.319  0.00  0.00    -0.267 OA
ATOM      2  O   UNL     1     -17.591   1.549  21.982  0.00  0.00    -0.276 OA
ATOM      4  N   UNL     1     -18.170   2.950  23.743  0.00  0.00    -0.300 N 
ATOM      5  N   UNL     1     -15.626   4.820  24.227  0.00  0.00    -0.311 N 
ATOM      6  C   UNL     1     -16.608   2.964  25.693  0.00  0.00    +0.027 C 
ATOM      7  C   UNL     1     -17.950   4.961  25.190  0.00  0.00    +0.054 C 
ATOM      8  C   UNL     1     -17.424   4.084  26.324  0.00  0.00    +0.018 C 
ATOM      9  C   UNL     1     -17.484   2.128  24.742  0.00  0.00    +0.113 C 
ATOM     10  C   UNL     1     -15.399   3.575  24.974  0.00  0.00    +0.130 C 
ATOM     11  C   UNL     1     -18.870   4.128  24.277  0.00  0.00    +0.117 C 
ATOM     12  C   UNL     1     -16.810   5.545  24.377  0.00  0.00    +0.027 A 
ATOM     13  C   UNL     1     -16.948   6.740  23.779  0.00  0.00    +0.022 A 
ATOM     14  C   UNL     1     -14.553   5.293  23.446  0.00  0.00    +0.259 A 
ATOM     15  C   UNL     1     -18.187   2.542  22.410  0.00  0.00    +0.218 C 
ATOM     16  C   UNL     1     -14.751   6.618  22.759  0.00  0.00    +0.047 A 
ATOM     17  C   UNL     1     -15.902   7.277  22.956  0.00  0.00    +0.015 A 
ENDROOT
BRANCH  16  19
ATOM     19  C   UNL     1     -13.713   7.184  21.881  0.00  0.00    -0.012 A 
ATOM     21  C   UNL     1     -13.606   8.568  21.727  0.00  0.00    +0.017 A 
ATOM     22  C   UNL     1     -12.837   6.340  21.204  0.00  0.00    +0.009 A 
ATOM     23  C   UNL     1     -12.621   9.123  20.893  0.00  0.00    -0.017 A 
ATOM     24  C   UNL     1     -11.853   6.874  20.373  0.00  0.00    +0.009 A 
ATOM     25  C   UNL     1     -11.731   8.263  20.207  0.00  0.00    -0.018 A 
ATOM     26  C   UNL     1     -12.500  10.512  20.728  0.00  0.00    +0.008 A 
ATOM     27  C   UNL     1     -10.746   8.819  19.373  0.00  0.00    +0.008 A 
ATOM     29  C   UNL     1     -11.515  11.047  19.896  0.00  0.00    +0.001 A 
ATOM     30  C   UNL     1     -10.641  10.201  19.220  0.00  0.00    +0.001 A 
ENDBRANCH  16  19
BRANCH  15  18
ATOM     18  C   UNL     1     -18.984   3.390  21.453  0.00  0.00    +0.124 C 
BRANCH  18  20
ATOM     20  C   UNL     1     -18.111   3.793  20.285  0.00  0.00    +0.168 C 
BRANCH  20   3
ATOM      3  O   UNL     1     -17.021   4.577  20.754  0.00  0.00    -0.382 OA
ATOM     28  C   UNL     1     -16.563   5.481  19.757  0.00  0.00    +0.194 C 
ENDBRANCH  20   3
ENDBRANCH  18  20
ENDBRANCH  15  18
TORSDOF 4
ENDMDL
MODEL 4
REMARK VINA RESULT:      -6.9     13.992     18.608
REMARK  Name = 7143710
REMARK  5 active torsions:
REMARK  status: ('A' for Active; 'I' for Inactive)
REMARK    1  A    between atoms: O_3  and  C_20
REMARK    2  A    between atoms: O_3  and  C_28
REMARK    3  A    between atoms: C_15  and  C_18
REMARK    4  A    between atoms: C_16  and  C_19
REMARK    5  A    between atoms: C_18  and  C_20
REMARK                            x       y       z     vdW  Elec       q    Type
REMARK                         _______ _______ _______ _____ _____    ______ ____
ROOT
ATOM      1  O   UNL     1      10.199   7.134   1.955  0.00  0.00    -0.267 OA
ATOM      2  O   UNL     1      12.890   9.317   6.028  0.00  0.00    -0.276 OA
ATOM      4  N   UNL     1      11.070   8.100   6.805  0.00  0.00    -0.300 N 
ATOM      5  N   UNL     1       9.749   6.777   4.216  0.00  0.00    -0.311 N 
ATOM      6  C   UNL     1       8.867   8.627   5.753  0.00  0.00    +0.027 C 
ATOM      7  C   UNL     1       9.280   6.379   6.659  0.00  0.00    +0.054 C 
ATOM      8  C   UNL     1       8.233   7.483   6.534  0.00  0.00    +0.018 C 
ATOM      9  C   UNL     1      10.110   9.158   6.488  0.00  0.00    +0.113 C 
ATOM     10  C   UNL     1       9.200   8.136   4.339  0.00  0.00    +0.130 C 
ATOM     11  C   UNL     1      10.496   6.906   7.445  0.00  0.00    +0.117 C 
ATOM     12  C   UNL     1       9.724   5.889   5.293  0.00  0.00    +0.027 A 
ATOM     13  C   UNL     1      10.118   4.616   5.125  0.00  0.00    +0.022 A 
ATOM     14  C   UNL     1      10.195   6.390   2.937  0.00  0.00    +0.259 A 
ATOM     15  C   UNL     1      12.428   8.308   6.567  0.00  0.00    +0.218 C 
ATOM     16  C   UNL     1      10.665   4.967   2.789  0.00  0.00    +0.047 A 
ATOM     17  C   UNL     1      10.600   4.155   3.855  0.00  0.00    +0.015 A 
ENDROOT
BRANCH  16  19
ATOM     19  C   UNL     1      11.195   4.468   1.509  0.00  0.00    -0.012 A 
ATOM     21  C   UNL     1      10.464   4.645   0.332  0.00  0.00    +0.017 A 
ATOM     22  C   UNL     1      12.426   3.818   1.470  0.00  0.00    +0.009 A 
ATOM     23  C   UNL     1      10.958   4.175  -0.896  0.00  0.00    -0.017 A 
ATOM     24  C   UNL     1      12.931   3.346   0.259  0.00  0.00    +0.009 A 
ATOM     25  C   UNL     1      12.209   3.516  -0.933  0.00  0.00    -0.018 A 
ATOM     26  C   UNL     1      10.235   4.346  -2.088  0.00  0.00    +0.008 A 
ATOM     27  C   UNL     1      12.701   3.046  -2.162  0.00  0.00    +0.008 A 
ATOM     29  C   UNL     1      10.739   3.873  -3.300  0.00  0.00    +0.001 A 
ATOM     30  C   UNL     1      11.970   3.224  -3.337  0.00  0.00    +0.001 A 
ENDBRANCH  16  19
BRANCH  15  18
ATOM     18  C   UNL     1      13.366   7.210   6.998  0.00  0.00    +0.124 C 
BRANCH  18  20
ATOM     20  C   UNL     1      14.774   7.541   6.552  0.00  0.00    +0.168 C 
BRANCH  20   3
ATOM      3  O   UNL     1      14.988   7.035   5.240  0.00  0.00    -0.382 OA
ATOM     28  C   UNL     1      15.953   7.805   4.536  0.00  0.00    +0.194 C 
ENDBRANCH  20   3
ENDBRANCH  18  20
ENDBRANCH  15  18
TORSDOF 4
ENDMDL
MODEL 5
REMARK VINA RESULT:      -6.9     26.472     29.113
REMARK  Name = 7143710
REMARK  5 active torsions:
REMARK  status: ('A' for Active; 'I' for Inactive)
REMARK    1  A    between atoms: O_3  and  C_20
REMARK    2  A    between atoms: O_3  and  C_28
REMARK    3  A    between atoms: C_15  and  C_18
REMARK    4  A    between atoms: C_16  and  C_19
REMARK    5  A    between atoms: C_18  and  C_20
REMARK                            x       y       z     vdW  Elec       q    Type
REMARK                         _______ _______ _______ _____ _____    ______ ____
ROOT
ATOM      1  O   UNL     1     -12.540  10.146  20.513  0.00  0.00    -0.267 OA
ATOM      2  O   UNL     1     -14.322  12.422  16.014  0.00  0.00    -0.276 OA
ATOM      4  N   UNL     1     -12.049  11.966  15.858  0.00  0.00    -0.300 N 
ATOM      5  N   UNL     1     -11.282  10.474  18.576  0.00  0.00    -0.311 N 
ATOM      6  C   UNL     1     -10.631  12.804  17.736  0.00  0.00    +0.027 C 
ATOM      7  C   UNL     1      -9.933  10.813  16.475  0.00  0.00    +0.054 C 
ATOM      8  C   UNL     1      -9.427  12.097  17.128  0.00  0.00    +0.018 C 
ATOM      9  C   UNL     1     -11.667  13.138  16.648  0.00  0.00    +0.113 C 
ATOM     10  C   UNL     1     -11.220  11.919  18.840  0.00  0.00    +0.130 C 
ATOM     11  C   UNL     1     -10.928  11.162  15.351  0.00  0.00    +0.117 C 
ATOM     12  C   UNL     1     -10.605   9.910  17.493  0.00  0.00    +0.027 A 
ATOM     13  C   UNL     1     -10.574   8.576  17.339  0.00  0.00    +0.022 A 
ATOM     14  C   UNL     1     -11.962   9.687  19.526  0.00  0.00    +0.259 A 
ATOM     15  C   UNL     1     -13.395  11.735  15.577  0.00  0.00    +0.218 C 
ATOM     16  C   UNL     1     -11.941   8.197  19.306  0.00  0.00    +0.047 A 
ATOM     17  C   UNL     1     -11.258   7.712  18.259  0.00  0.00    +0.015 A 
ENDROOT
BRANCH  16  19
ATOM     19  C   UNL     1     -12.657   7.283  20.211  0.00  0.00    -0.012 A 
ATOM     21  C   UNL     1     -14.053   7.252  20.214  0.00  0.00    +0.017 A 
ATOM     22  C   UNL     1     -11.943   6.447  21.066  0.00  0.00    +0.009 A 
ATOM     23  C   UNL     1     -14.750   6.385  21.072  0.00  0.00    -0.017 A 
ATOM     24  C   UNL     1     -12.619   5.580  21.924  0.00  0.00    +0.009 A 
ATOM     25  C   UNL     1     -14.022   5.537  21.939  0.00  0.00    -0.018 A 
ATOM     26  C   UNL     1     -16.154   6.343  21.087  0.00  0.00    +0.008 A 
ATOM     27  C   UNL     1     -14.720   4.670  22.796  0.00  0.00    +0.008 A 
ATOM     29  C   UNL     1     -16.831   5.475  21.945  0.00  0.00    +0.001 A 
ATOM     30  C   UNL     1     -16.115   4.641  22.798  0.00  0.00    +0.001 A 
ENDBRANCH  16  19
BRANCH  15  18
ATOM     18  C   UNL     1     -13.707  10.560  14.687  0.00  0.00    +0.124 C 
BRANCH  18  20
ATOM     20  C   UNL     1     -14.410   9.487  15.491  0.00  0.00    +0.168 C 
BRANCH  20   3
ATOM      3  O   UNL     1     -13.592   8.325  15.551  0.00  0.00    -0.382 OA
ATOM     28  C   UNL     1     -12.859   8.143  14.347  0.00  0.00    +0.194 C 
ENDBRANCH  20   3
ENDBRANCH  18  20
ENDBRANCH  15  18
TORSDOF 4
ENDMDL
MODEL 6
REMARK VINA RESULT:      -6.8     28.225     30.126
REMARK  Name = 7143710
REMARK  5 active torsions:
REMARK  status: ('A' for Active; 'I' for Inactive)
REMARK    1  A    between atoms: O_3  and  C_20
REMARK    2  A    between atoms: O_3  and  C_28
REMARK    3  A    between atoms: C_15  and  C_18
REMARK    4  A    between atoms: C_16  and  C_19
REMARK    5  A    between atoms: C_18  and  C_20
REMARK                            x       y       z     vdW  Elec       q    Type
REMARK                         _______ _______ _______ _____ _____    ______ ____
ROOT
ATOM      1  O   UNL     1      -6.808 -12.684  14.594  0.00  0.00    -0.267 OA
ATOM      2  O   UNL     1     -11.320 -10.712  16.680  0.00  0.00    -0.276 OA
ATOM      4  N   UNL     1      -9.762 -11.139  18.350  0.00  0.00    -0.300 N 
ATOM      5  N   UNL     1      -7.132 -12.137  16.838  0.00  0.00    -0.311 N 
ATOM      6  C   UNL     1      -8.751 -13.423  18.349  0.00  0.00    +0.027 C 
ATOM      7  C   UNL     1      -7.478 -11.526  19.257  0.00  0.00    +0.054 C 
ATOM      8  C   UNL     1      -7.818 -12.998  19.476  0.00  0.00    +0.018 C 
ATOM      9  C   UNL     1     -10.036 -12.577  18.365  0.00  0.00    +0.113 C 
ATOM     10  C   UNL     1      -8.002 -13.308  17.016  0.00  0.00    +0.130 C 
ATOM     11  C   UNL     1      -8.766 -10.682  19.331  0.00  0.00    +0.117 C 
ATOM     12  C   UNL     1      -6.801 -11.314  17.916  0.00  0.00    +0.027 A 
ATOM     13  C   UNL     1      -5.909 -10.323  17.758  0.00  0.00    +0.022 A 
ATOM     14  C   UNL     1      -6.568 -11.957  15.560  0.00  0.00    +0.259 A 
ATOM     15  C   UNL     1     -10.488 -10.308  17.497  0.00  0.00    +0.218 C 
ATOM     16  C   UNL     1      -5.600 -10.815  15.404  0.00  0.00    +0.047 A 
ATOM     17  C   UNL     1      -5.306 -10.070  16.480  0.00  0.00    +0.015 A 
ENDROOT
BRANCH  16  19
ATOM     19  C   UNL     1      -4.987 -10.507  14.100  0.00  0.00    -0.012 A 
ATOM     21  C   UNL     1      -5.718  -9.823  13.127  0.00  0.00    +0.017 A 
ATOM     22  C   UNL     1      -3.677 -10.898  13.837  0.00  0.00    +0.009 A 
ATOM     23  C   UNL     1      -5.147  -9.522  11.880  0.00  0.00    -0.017 A 
ATOM     24  C   UNL     1      -3.094 -10.607  12.604  0.00  0.00    +0.009 A 
ATOM     25  C   UNL     1      -3.815  -9.920  11.615  0.00  0.00    -0.018 A 
ATOM     26  C   UNL     1      -5.869  -8.835  10.891  0.00  0.00    +0.008 A 
ATOM     27  C   UNL     1      -3.245  -9.619  10.366  0.00  0.00    +0.008 A 
ATOM     29  C   UNL     1      -5.286  -8.543   9.657  0.00  0.00    +0.001 A 
ATOM     30  C   UNL     1      -3.977  -8.935   9.395  0.00  0.00    +0.001 A 
ENDBRANCH  16  19
BRANCH  15  18
ATOM     18  C   UNL     1     -10.213  -8.829  17.598  0.00  0.00    +0.124 C 
BRANCH  18  20
ATOM     20  C   UNL     1      -9.263  -8.415  16.496  0.00  0.00    +0.168 C 
BRANCH  20   3
ATOM      3  O   UNL     1      -9.945  -7.578  15.570  0.00  0.00    -0.382 OA
ATOM     28  C   UNL     1     -10.860  -6.712  16.228  0.00  0.00    +0.194 C 
ENDBRANCH  20   3
ENDBRANCH  18  20
ENDBRANCH  15  18
TORSDOF 4
ENDMDL
MODEL 7
REMARK VINA RESULT:      -6.8     17.471     20.701
REMARK  Name = 7143710
REMARK  5 active torsions:
REMARK  status: ('A' for Active; 'I' for Inactive)
REMARK    1  A    between atoms: O_3  and  C_20
REMARK    2  A    between atoms: O_3  and  C_28
REMARK    3  A    between atoms: C_15  and  C_18
REMARK    4  A    between atoms: C_16  and  C_19
REMARK    5  A    between atoms: C_18  and  C_20
REMARK                            x       y       z     vdW  Elec       q    Type
REMARK                         _______ _______ _______ _____ _____    ______ ____
ROOT
ATOM      1  O   UNL     1      12.237   7.793   2.569  0.00  0.00    -0.267 OA
ATOM      2  O   UNL     1      13.177   5.977  -2.372  0.00  0.00    -0.276 OA
ATOM      4  N   UNL     1      13.579   4.317  -0.797  0.00  0.00    -0.300 N 
ATOM      5  N   UNL     1      12.789   5.594   2.021  0.00  0.00    -0.311 N 
ATOM      6  C   UNL     1      15.086   4.941   1.095  0.00  0.00    +0.027 C 
ATOM      7  C   UNL     1      13.366   3.215   1.423  0.00  0.00    +0.054 C 
ATOM      8  C   UNL     1      14.810   3.591   1.745  0.00  0.00    +0.018 C 
ATOM      9  C   UNL     1      14.890   4.856  -0.429  0.00  0.00    +0.113 C 
ATOM     10  C   UNL     1      14.174   5.995   1.735  0.00  0.00    +0.130 C 
ATOM     11  C   UNL     1      13.196   3.079  -0.103  0.00  0.00    +0.117 C 
ATOM     12  C   UNL     1      12.398   4.255   1.957  0.00  0.00    +0.027 A 
ATOM     13  C   UNL     1      11.162   3.895   2.340  0.00  0.00    +0.022 A 
ATOM     14  C   UNL     1      11.917   6.607   2.466  0.00  0.00    +0.259 A 
ATOM     15  C   UNL     1      12.837   4.937  -1.801  0.00  0.00    +0.218 C 
ATOM     16  C   UNL     1      10.527   6.179   2.852  0.00  0.00    +0.047 A 
ATOM     17  C   UNL     1      10.214   4.876   2.788  0.00  0.00    +0.015 A 
ENDROOT
BRANCH  16  19
ATOM     19  C   UNL     1       9.519   7.161   3.287  0.00  0.00    -0.012 A 
ATOM     21  C   UNL     1       8.795   7.886   2.338  0.00  0.00    +0.017 A 
ATOM     22  C   UNL     1       9.288   7.368   4.644  0.00  0.00    +0.009 A 
ATOM     23  C   UNL     1       7.830   8.827   2.738  0.00  0.00    -0.017 A 
ATOM     24  C   UNL     1       8.334   8.298   5.058  0.00  0.00    +0.009 A 
ATOM     25  C   UNL     1       7.597   9.035   4.117  0.00  0.00    -0.018 A 
ATOM     26  C   UNL     1       7.094   9.563   1.797  0.00  0.00    +0.008 A 
ATOM     27  C   UNL     1       6.632   9.975   4.516  0.00  0.00    +0.008 A 
ATOM     29  C   UNL     1       6.139  10.493   2.210  0.00  0.00    +0.001 A 
ATOM     30  C   UNL     1       5.909  10.699   3.567  0.00  0.00    +0.001 A 
ENDBRANCH  16  19
BRANCH  15  18
ATOM     18  C   UNL     1      11.538   4.277  -2.188  0.00  0.00    +0.124 C 
BRANCH  18  20
ATOM     20  C   UNL     1      10.388   4.981  -1.500  0.00  0.00    +0.168 C 
BRANCH  20   3
ATOM      3  O   UNL     1       9.169   4.647  -2.151  0.00  0.00    -0.382 OA
ATOM     28  C   UNL     1       9.247   4.873  -3.552  0.00  0.00    +0.194 C 
ENDBRANCH  20   3
ENDBRANCH  18  20
ENDBRANCH  15  18
TORSDOF 4
ENDMDL
MODEL 8
REMARK VINA RESULT:      -6.7     27.059     30.085
REMARK  Name = 7143710
REMARK  5 active torsions:
REMARK  status: ('A' for Active; 'I' for Inactive)
REMARK    1  A    between atoms: O_3  and  C_20
REMARK    2  A    between atoms: O_3  and  C_28
REMARK    3  A    between atoms: C_15  and  C_18
REMARK    4  A    between atoms: C_16  and  C_19
REMARK    5  A    between atoms: C_18  and  C_20
REMARK                            x       y       z     vdW  Elec       q    Type
REMARK                         _______ _______ _______ _____ _____    ______ ____
ROOT
ATOM      1  O   UNL     1      -6.686 -10.204  14.041  0.00  0.00    -0.267 OA
ATOM      2  O   UNL     1      -4.198 -14.670  12.471  0.00  0.00    -0.276 OA
ATOM      4  N   UNL     1      -2.656 -13.022  13.024  0.00  0.00    -0.300 N 
ATOM      5  N   UNL     1      -4.380 -10.548  14.077  0.00  0.00    -0.311 N 
ATOM      6  C   UNL     1      -2.991 -10.797  11.939  0.00  0.00    +0.027 C 
ATOM      7  C   UNL     1      -1.890 -10.931  14.133  0.00  0.00    +0.054 C 
ATOM      8  C   UNL     1      -1.854 -10.229  12.777  0.00  0.00    +0.018 C 
ATOM      9  C   UNL     1      -2.819 -12.315  11.752  0.00  0.00    +0.113 C 
ATOM     10  C   UNL     1      -4.324 -10.448  12.611  0.00  0.00    +0.130 C 
ATOM     11  C   UNL     1      -1.661 -12.443  13.938  0.00  0.00    +0.117 C 
ATOM     12  C   UNL     1      -3.216 -10.699  14.833  0.00  0.00    +0.027 A 
ATOM     13  C   UNL     1      -3.276 -10.666  16.175  0.00  0.00    +0.022 A 
ATOM     14  C   UNL     1      -5.643 -10.375  14.675  0.00  0.00    +0.259 A 
ATOM     15  C   UNL     1      -3.366 -14.201  13.252  0.00  0.00    +0.218 C 
ATOM     16  C   UNL     1      -5.683 -10.380  16.180  0.00  0.00    +0.047 A 
ATOM     17  C   UNL     1      -4.531 -10.510  16.853  0.00  0.00    +0.015 A 
ENDROOT
BRANCH  16  19
ATOM     19  C   UNL     1      -6.957 -10.253  16.909  0.00  0.00    -0.012 A 
ATOM     21  C   UNL     1      -7.346 -11.242  17.815  0.00  0.00    +0.017 A 
ATOM     22  C   UNL     1      -7.775  -9.147  16.696  0.00  0.00    +0.009 A 
ATOM     23  C   UNL     1      -8.558 -11.135  18.518  0.00  0.00    -0.017 A 
ATOM     24  C   UNL     1      -8.981  -9.024  17.385  0.00  0.00    +0.009 A 
ATOM     25  C   UNL     1      -9.386 -10.010  18.300  0.00  0.00    -0.018 A 
ATOM     26  C   UNL     1      -8.962 -12.121  19.432  0.00  0.00    +0.008 A 
ATOM     27  C   UNL     1     -10.598  -9.903  19.003  0.00  0.00    +0.008 A 
ATOM     29  C   UNL     1     -10.169 -11.999  20.122  0.00  0.00    +0.001 A 
ATOM     30  C   UNL     1     -10.985 -10.892  19.907  0.00  0.00    +0.001 A 
ENDBRANCH  16  19
BRANCH  15  18
ATOM     18  C   UNL     1      -3.083 -14.920  14.546  0.00  0.00    +0.124 C 
BRANCH  18  20
ATOM     20  C   UNL     1      -4.382 -15.160  15.286  0.00  0.00    +0.168 C 
BRANCH  20   3
ATOM      3  O   UNL     1      -4.846 -13.935  15.841  0.00  0.00    -0.382 OA
ATOM     28  C   UNL     1      -5.067 -14.049  17.240  0.00  0.00    +0.194 C 
ENDBRANCH  20   3
ENDBRANCH  18  20
ENDBRANCH  15  18
TORSDOF 4
ENDMDL
MODEL 9
REMARK VINA RESULT:      -6.6     22.373     24.599
REMARK  Name = 7143710
REMARK  5 active torsions:
REMARK  status: ('A' for Active; 'I' for Inactive)
REMARK    1  A    between atoms: O_3  and  C_20
REMARK    2  A    between atoms: O_3  and  C_28
REMARK    3  A    between atoms: C_15  and  C_18
REMARK    4  A    between atoms: C_16  and  C_19
REMARK    5  A    between atoms: C_18  and  C_20
REMARK                            x       y       z     vdW  Elec       q    Type
REMARK                         _______ _______ _______ _____ _____    ______ ____
ROOT
ATOM      1  O   UNL     1       9.276 -11.476  31.927  0.00  0.00    -0.267 OA
ATOM      2  O   UNL     1       6.963 -10.217  36.581  0.00  0.00    -0.276 OA
ATOM      4  N   UNL     1       7.433  -8.301  35.354  0.00  0.00    -0.300 N 
ATOM      5  N   UNL     1       8.640  -9.330  32.581  0.00  0.00    -0.311 N 
ATOM      6  C   UNL     1       9.775  -8.086  34.511  0.00  0.00    +0.027 C 
ATOM      7  C   UNL     1       7.933  -7.016  33.283  0.00  0.00    +0.054 C 
ATOM      8  C   UNL     1       9.374  -6.827  33.752  0.00  0.00    +0.018 C 
ATOM      9  C   UNL     1       8.850  -8.303  35.722  0.00  0.00    +0.113 C 
ATOM     10  C   UNL     1       9.748  -9.276  33.545  0.00  0.00    +0.130 C 
ATOM     11  C   UNL     1       7.009  -7.177  34.506  0.00  0.00    +0.117 C 
ATOM     12  C   UNL     1       7.805  -8.228  32.380  0.00  0.00    +0.027 A 
ATOM     13  C   UNL     1       6.877  -8.255  31.410  0.00  0.00    +0.022 A 
ATOM     14  C   UNL     1       8.535 -10.499  31.802  0.00  0.00    +0.259 A 
ATOM     15  C   UNL     1       6.586  -9.280  35.872  0.00  0.00    +0.218 C 
ATOM     16  C   UNL     1       7.461 -10.513  30.748  0.00  0.00    +0.047 A 
ATOM     17  C   UNL     1       6.702  -9.419  30.589  0.00  0.00    +0.015 A 
ENDROOT
BRANCH  16  19
ATOM     19  C   UNL     1       7.233 -11.701  29.908  0.00  0.00    -0.012 A 
ATOM     21  C   UNL     1       6.119 -12.514  30.133  0.00  0.00    +0.017 A 
ATOM     22  C   UNL     1       8.127 -12.016  28.889  0.00  0.00    +0.009 A 
ATOM     23  C   UNL     1       5.888 -13.650  29.340  0.00  0.00    -0.017 A 
ATOM     24  C   UNL     1       7.913 -13.140  28.091  0.00  0.00    +0.009 A 
ATOM     25  C   UNL     1       6.799 -13.967  28.304  0.00  0.00    -0.018 A 
ATOM     26  C   UNL     1       4.774 -14.477  29.553  0.00  0.00    +0.008 A 
ATOM     27  C   UNL     1       6.567 -15.104  27.511  0.00  0.00    +0.008 A 
ATOM     29  C   UNL     1       4.559 -15.602  28.755  0.00  0.00    +0.001 A 
ATOM     30  C   UNL     1       5.454 -15.915  27.737  0.00  0.00    +0.001 A 
ENDBRANCH  16  19
BRANCH  15  18
ATOM     18  C   UNL     1       5.125  -9.165  35.520  0.00  0.00    +0.124 C 
BRANCH  18  20
ATOM     20  C   UNL     1       4.666 -10.438  34.842  0.00  0.00    +0.168 C 
BRANCH  20   3
ATOM      3  O   UNL     1       5.563 -10.766  33.788  0.00  0.00    -0.382 OA
ATOM     28  C   UNL     1       5.785 -12.167  33.710  0.00  0.00    +0.194 C 
ENDBRANCH  20   3
ENDBRANCH  18  20
ENDBRANCH  15  18
TORSDOF 4
ENDMDL
MODEL 10
REMARK VINA RESULT:      -6.6     27.469     30.091
REMARK  Name = 7143710
REMARK  5 active torsions:
REMARK  status: ('A' for Active; 'I' for Inactive)
REMARK    1  A    between atoms: O_3  and  C_20
REMARK    2  A    between atoms: O_3  and  C_28
REMARK    3  A    between atoms: C_15  and  C_18
REMARK    4  A    between atoms: C_16  and  C_19
REMARK    5  A    between atoms: C_18  and  C_20
REMARK                            x       y       z     vdW  Elec       q    Type
REMARK                         _______ _______ _______ _____ _____    ______ ____
ROOT
ATOM      1  O   UNL     1      -4.895 -12.925  10.083  0.00  0.00    -0.267 OA
ATOM      2  O   UNL     1      -5.967 -12.500  15.305  0.00  0.00    -0.276 OA
ATOM      4  N   UNL     1      -3.682 -12.331  14.920  0.00  0.00    -0.300 N 
ATOM      5  N   UNL     1      -3.333 -12.445  11.747  0.00  0.00    -0.311 N 
ATOM      6  C   UNL     1      -2.664 -14.147  13.540  0.00  0.00    +0.027 C 
ATOM      7  C   UNL     1      -1.652 -11.907  13.546  0.00  0.00    +0.054 C 
ATOM      8  C   UNL     1      -1.337 -13.400  13.556  0.00  0.00    +0.018 C 
ATOM      9  C   UNL     1      -3.507 -13.777  14.774  0.00  0.00    +0.113 C 
ATOM     10  C   UNL     1      -3.394 -13.832  12.229  0.00  0.00    +0.130 C 
ATOM     11  C   UNL     1      -2.448 -11.538  14.813  0.00  0.00    +0.117 C 
ATOM     12  C   UNL     1      -2.447 -11.524  12.311  0.00  0.00    +0.027 A 
ATOM     13  C   UNL     1      -2.320 -10.298  11.777  0.00  0.00    +0.022 A 
ATOM     14  C   UNL     1      -4.128 -12.129  10.629  0.00  0.00    +0.259 A 
ATOM     15  C   UNL     1      -4.943 -11.817  15.220  0.00  0.00    +0.218 C 
ATOM     16  C   UNL     1      -3.992 -10.735  10.076  0.00  0.00    +0.047 A 
ATOM     17  C   UNL     1      -3.110  -9.901  10.647  0.00  0.00    +0.015 A 
ENDROOT
BRANCH  16  19
ATOM     19  C   UNL     1      -4.809 -10.282   8.938  0.00  0.00    -0.012 A 
ATOM     21  C   UNL     1      -5.749  -9.264   9.111  0.00  0.00    +0.017 A 
ATOM     22  C   UNL     1      -4.647 -10.871   7.686  0.00  0.00    +0.009 A 
ATOM     23  C   UNL     1      -6.535  -8.822   8.035  0.00  0.00    -0.017 A 
ATOM     24  C   UNL     1      -5.419 -10.444   6.606  0.00  0.00    +0.009 A 
ATOM     25  C   UNL     1      -6.368  -9.420   6.764  0.00  0.00    -0.018 A 
ATOM     26  C   UNL     1      -7.483  -7.798   8.193  0.00  0.00    +0.008 A 
ATOM     27  C   UNL     1      -7.155  -8.977   5.687  0.00  0.00    +0.008 A 
ATOM     29  C   UNL     1      -8.256  -7.371   7.113  0.00  0.00    +0.001 A 
ATOM     30  C   UNL     1      -8.092  -7.960   5.862  0.00  0.00    +0.001 A 
ENDBRANCH  16  19
BRANCH  15  18
ATOM     18  C   UNL     1      -5.031 -10.329  15.442  0.00  0.00    +0.124 C 
BRANCH  18  20
ATOM     20  C   UNL     1      -5.701 -10.054  16.772  0.00  0.00    +0.168 C 
BRANCH  20   3
ATOM      3  O   UNL     1      -4.833 -10.442  17.830  0.00  0.00    -0.382 OA
ATOM     28  C   UNL     1      -5.538 -11.127  18.856  0.00  0.00    +0.194 C 
ENDBRANCH  20   3
ENDBRANCH  18  20
ENDBRANCH  15  18
TORSDOF 4
ENDMDL
