MODEL 1
REMARK VINA RESULT:      -6.7      0.000      0.000
REMARK  Name = 75536148
REMARK  18 active torsions:
REMARK  status: ('A' for Active; 'I' for Inactive)
REMARK    1  A    between atoms: O_3  and  C_28
REMARK    2  A    between atoms: O_3  and  C_35
REMARK    3  A    between atoms: O_4  and  C_30
REMARK    4  A    between atoms: O_4  and  C_36
REMARK    5  A    between atoms: O_5  and  C_34
REMARK    6  A    between atoms: N_9  and  C_20
REMARK    7  A    between atoms: C_13  and  C_17
REMARK    8  A    between atoms: C_14  and  C_20
REMARK    9  A    between atoms: C_16  and  C_21
REMARK   10  A    between atoms: C_17  and  C_22
REMARK   11  A    between atoms: C_17  and  C_23
REMARK   12  A    between atoms: C_18  and  C_24
REMARK   13  A    between atoms: C_21  and  C_25
REMARK   14  A    between atoms: C_26  and  C_28
REMARK   15  A    between atoms: C_28  and  C_30
REMARK   16  A    between atoms: C_30  and  C_34
REMARK   17  A    between atoms: C_35  and  C_37
REMARK   18  A    between atoms: C_36  and  C_38
REMARK                            x       y       z     vdW  Elec       q    Type
REMARK                         _______ _______ _______ _____ _____    ______ ____
ROOT
ATOM     13  C   UNL     1      18.107   8.868  21.733  0.00  0.00    +0.000 C 
ATOM     14  C   UNL     1      16.923   8.401  20.850  0.00  0.00    +0.032 C 
ATOM     15  C   UNL     1      19.445   8.499  21.074  0.00  0.00    +0.012 C 
ATOM     16  C   UNL     1      19.580   6.983  20.839  0.00  0.00    +0.022 C 
ATOM     18  C   UNL     1      18.332   6.398  20.209  0.00  0.00    -0.073 C 
ATOM     19  C   UNL     1      17.157   7.052  20.212  0.00  0.00    -0.022 C 
ATOM     24  C   UNL     1      18.476   5.062  19.535  0.00  0.00    +0.039 C 
ENDROOT
BRANCH  13  17
ATOM     17  C   UNL     1      18.058  10.376  22.000  0.00  0.00    -0.013 C 
ATOM     22  C   UNL     1      17.791  11.136  20.705  0.00  0.00    +0.007 C 
ATOM     23  C   UNL     1      19.358  10.845  22.646  0.00  0.00    +0.007 C 
ENDBRANCH  13  17
BRANCH  14  20
ATOM     20  C   UNL     1      15.615   8.369  21.649  0.00  0.00    +0.112 C 
BRANCH  20   9
ATOM      2  O   UNL     1      13.533  10.279  22.224  0.00  0.00    -0.272 OA
ATOM      9  N   UNL     1      14.504   8.707  20.815  0.00  0.00    -0.312 N 
ATOM     26  C   UNL     1      13.536   9.647  21.170  0.00  0.00    +0.258 C 
ATOM     39  H   UNL     1      14.444   8.272  19.898  0.00  0.00    +0.149 HD
BRANCH  26  28
ATOM     28  C   UNL     1      12.446   9.807  20.116  0.00  0.00    +0.313 C 
BRANCH  28   3
ATOM      3  O   UNL     1      13.061  10.078  18.863  0.00  0.00    -0.448 OA
BRANCH   3  35
ATOM      7  O   UNL     1      13.082  12.381  19.055  0.00  0.00    -0.251 OA
ATOM     35  C   UNL     1      13.606  11.325  18.725  0.00  0.00    +0.305 C 
ATOM     37  C   UNL     1      14.964  11.222  18.100  0.00  0.00    +0.136 C 
ENDBRANCH   3  35
ENDBRANCH  28   3
BRANCH  28  30
ATOM     30  C   UNL     1      11.562   8.560  20.019  0.00  0.00    +0.333 C 
BRANCH  30  34
ATOM      6  O   UNL     1      12.417   6.972  18.387  0.00  0.00    -0.247 OA
ATOM     34  C   UNL     1      11.675   7.907  18.654  0.00  0.00    +0.350 C 
BRANCH  34   5
ATOM      5  O   UNL     1      10.835   8.468  17.746  0.00  0.00    -0.478 OA
ATOM     41  H   UNL     1       9.904   8.459  18.054  0.00  0.00    +0.295 HD
ENDBRANCH  34   5
ENDBRANCH  30  34
BRANCH  30   4
ATOM      4  O   UNL     1      11.981   7.616  20.996  0.00  0.00    -0.446 OA
BRANCH   4  36
ATOM      8  O   UNL     1      10.158   7.635  22.415  0.00  0.00    -0.251 OA
ATOM     36  C   UNL     1      10.982   7.041  21.734  0.00  0.00    +0.305 C 
ATOM     38  C   UNL     1      11.037   5.550  21.591  0.00  0.00    +0.136 C 
ENDBRANCH   4  36
ENDBRANCH  30   4
ENDBRANCH  28  30
ENDBRANCH  26  28
ENDBRANCH  20   9
ENDBRANCH  14  20
BRANCH  16  21
ATOM     21  C   UNL     1      19.933   6.251  22.138  0.00  0.00    +0.082 C 
BRANCH  21  25
ATOM      1 CL   UNL     1      26.516   3.147  19.951  0.00  0.00    -0.082 Cl
ATOM     10  N   UNL     1      21.994   5.595  20.879  0.00  0.00    -0.340 N 
ATOM     11  N   UNL     1      21.738   4.660  22.884  0.00  0.00    -0.213 NA
ATOM     12  N   UNL     1      23.776   3.341  22.858  0.00  0.00    -0.233 NA
ATOM     25  C   UNL     1      21.219   5.485  22.003  0.00  0.00    +0.110 A 
ATOM     27  C   UNL     1      23.085   4.787  21.050  0.00  0.00    +0.087 A 
ATOM     29  C   UNL     1      22.901   4.218  22.305  0.00  0.00    +0.178 A 
ATOM     31  C   UNL     1      24.194   4.494  20.264  0.00  0.00    +0.051 A 
ATOM     32  C   UNL     1      25.102   3.595  20.818  0.00  0.00    +0.061 A 
ATOM     33  C   UNL     1      24.850   3.066  22.080  0.00  0.00    +0.133 A 
ATOM     40  H   UNL     1      21.797   6.169  20.070  0.00  0.00    +0.167 HD
ENDBRANCH  21  25
ENDBRANCH  16  21
TORSDOF 13
ENDMDL
MODEL 2
REMARK VINA RESULT:      -6.6      1.529      2.351
REMARK  Name = 75536148
REMARK  18 active torsions:
REMARK  status: ('A' for Active; 'I' for Inactive)
REMARK    1  A    between atoms: O_3  and  C_28
REMARK    2  A    between atoms: O_3  and  C_35
REMARK    3  A    between atoms: O_4  and  C_30
REMARK    4  A    between atoms: O_4  and  C_36
REMARK    5  A    between atoms: O_5  and  C_34
REMARK    6  A    between atoms: N_9  and  C_20
REMARK    7  A    between atoms: C_13  and  C_17
REMARK    8  A    between atoms: C_14  and  C_20
REMARK    9  A    between atoms: C_16  and  C_21
REMARK   10  A    between atoms: C_17  and  C_22
REMARK   11  A    between atoms: C_17  and  C_23
REMARK   12  A    between atoms: C_18  and  C_24
REMARK   13  A    between atoms: C_21  and  C_25
REMARK   14  A    between atoms: C_26  and  C_28
REMARK   15  A    between atoms: C_28  and  C_30
REMARK   16  A    between atoms: C_30  and  C_34
REMARK   17  A    between atoms: C_35  and  C_37
REMARK   18  A    between atoms: C_36  and  C_38
REMARK                            x       y       z     vdW  Elec       q    Type
REMARK                         _______ _______ _______ _____ _____    ______ ____
ROOT
ATOM     13  C   UNL     1      18.253   8.783  21.724  0.00  0.00    +0.000 C 
ATOM     14  C   UNL     1      17.038   8.262  20.919  0.00  0.00    +0.032 C 
ATOM     15  C   UNL     1      19.560   8.492  20.970  0.00  0.00    +0.012 C 
ATOM     16  C   UNL     1      19.758   6.988  20.707  0.00  0.00    +0.022 C 
ATOM     18  C   UNL     1      18.502   6.342  20.158  0.00  0.00    -0.073 C 
ATOM     19  C   UNL     1      17.297   6.932  20.250  0.00  0.00    -0.022 C 
ATOM     24  C   UNL     1      18.669   5.021  19.458  0.00  0.00    +0.039 C 
ENDROOT
BRANCH  13  17
ATOM     17  C   UNL     1      18.144  10.283  22.013  0.00  0.00    -0.013 C 
ATOM     22  C   UNL     1      17.896  11.056  20.721  0.00  0.00    +0.007 C 
ATOM     23  C   UNL     1      19.404  10.785  22.711  0.00  0.00    +0.007 C 
ENDBRANCH  13  17
BRANCH  14  20
ATOM     20  C   UNL     1      15.792   8.152  21.806  0.00  0.00    +0.112 C 
BRANCH  20   9
ATOM      2  O   UNL     1      13.696   7.359  19.991  0.00  0.00    -0.272 OA
ATOM      9  N   UNL     1      14.736   8.973  21.300  0.00  0.00    -0.312 N 
ATOM     26  C   UNL     1      13.758   8.509  20.421  0.00  0.00    +0.258 C 
ATOM     39  H   UNL     1      14.672   9.931  21.634  0.00  0.00    +0.149 HD
BRANCH  26  28
ATOM     28  C   UNL     1      12.761   9.589  20.015  0.00  0.00    +0.313 C 
BRANCH  28   3
ATOM      3  O   UNL     1      12.234   9.264  18.735  0.00  0.00    -0.448 OA
BRANCH   3  35
ATOM      7  O   UNL     1      13.525  10.889  17.718  0.00  0.00    -0.251 OA
ATOM     35  C   UNL     1      12.833   9.880  17.671  0.00  0.00    +0.305 C 
ATOM     37  C   UNL     1      12.520   9.136  16.408  0.00  0.00    +0.136 C 
ENDBRANCH   3  35
ENDBRANCH  28   3
BRANCH  28  30
ATOM     30  C   UNL     1      11.630   9.732  21.037  0.00  0.00    +0.333 C 
BRANCH  30  34
ATOM      6  O   UNL     1      11.029   7.769  22.342  0.00  0.00    -0.247 OA
ATOM     34  C   UNL     1      10.948   8.403  21.298  0.00  0.00    +0.350 C 
BRANCH  34   5
ATOM      5  O   UNL     1      10.206   7.990  20.237  0.00  0.00    -0.478 OA
ATOM     41  H   UNL     1       9.286   8.324  20.282  0.00  0.00    +0.295 HD
ENDBRANCH  34   5
ENDBRANCH  30  34
BRANCH  30   4
ATOM      4  O   UNL     1      12.172  10.199  22.267  0.00  0.00    -0.446 OA
BRANCH   4  36
ATOM      8  O   UNL     1      10.817  10.872  24.013  0.00  0.00    -0.251 OA
ATOM     36  C   UNL     1      11.396  11.089  22.958  0.00  0.00    +0.305 C 
ATOM     38  C   UNL     1      11.349  12.398  22.228  0.00  0.00    +0.136 C 
ENDBRANCH   4  36
ENDBRANCH  30   4
ENDBRANCH  28  30
ENDBRANCH  26  28
ENDBRANCH  20   9
ENDBRANCH  14  20
BRANCH  16  21
ATOM     21  C   UNL     1      20.239   6.263  21.970  0.00  0.00    +0.082 C 
BRANCH  21  25
ATOM      1 CL   UNL     1      25.441   0.727  21.784  0.00  0.00    -0.082 Cl
ATOM     10  N   UNL     1      21.617   4.227  22.436  0.00  0.00    -0.340 N 
ATOM     11  N   UNL     1      22.252   5.454  20.690  0.00  0.00    -0.213 NA
ATOM     12  N   UNL     1      24.147   4.083  20.038  0.00  0.00    -0.233 NA
ATOM     25  C   UNL     1      21.381   5.336  21.667  0.00  0.00    +0.110 A 
ATOM     27  C   UNL     1      22.712   3.590  21.918  0.00  0.00    +0.087 A 
ATOM     29  C   UNL     1      23.087   4.375  20.833  0.00  0.00    +0.178 A 
ATOM     31  C   UNL     1      23.406   2.438  22.268  0.00  0.00    +0.051 A 
ATOM     32  C   UNL     1      24.497   2.125  21.461  0.00  0.00    +0.061 A 
ATOM     33  C   UNL     1      24.812   2.958  20.393  0.00  0.00    +0.133 A 
ATOM     40  H   UNL     1      21.079   3.931  23.240  0.00  0.00    +0.167 HD
ENDBRANCH  21  25
ENDBRANCH  16  21
TORSDOF 13
ENDMDL
MODEL 3
REMARK VINA RESULT:      -6.3     27.672     31.919
REMARK  Name = 75536148
REMARK  18 active torsions:
REMARK  status: ('A' for Active; 'I' for Inactive)
REMARK    1  A    between atoms: O_3  and  C_28
REMARK    2  A    between atoms: O_3  and  C_35
REMARK    3  A    between atoms: O_4  and  C_30
REMARK    4  A    between atoms: O_4  and  C_36
REMARK    5  A    between atoms: O_5  and  C_34
REMARK    6  A    between atoms: N_9  and  C_20
REMARK    7  A    between atoms: C_13  and  C_17
REMARK    8  A    between atoms: C_14  and  C_20
REMARK    9  A    between atoms: C_16  and  C_21
REMARK   10  A    between atoms: C_17  and  C_22
REMARK   11  A    between atoms: C_17  and  C_23
REMARK   12  A    between atoms: C_18  and  C_24
REMARK   13  A    between atoms: C_21  and  C_25
REMARK   14  A    between atoms: C_26  and  C_28
REMARK   15  A    between atoms: C_28  and  C_30
REMARK   16  A    between atoms: C_30  and  C_34
REMARK   17  A    between atoms: C_35  and  C_37
REMARK   18  A    between atoms: C_36  and  C_38
REMARK                            x       y       z     vdW  Elec       q    Type
REMARK                         _______ _______ _______ _____ _____    ______ ____
ROOT
ATOM     13  C   UNL     1      -7.839 -10.042  11.449  0.00  0.00    +0.000 C 
ATOM     14  C   UNL     1      -6.511 -10.292  12.205  0.00  0.00    +0.032 C 
ATOM     15  C   UNL     1      -7.664 -10.330   9.950  0.00  0.00    +0.012 C 
ATOM     16  C   UNL     1      -6.568  -9.456   9.313  0.00  0.00    +0.022 C 
ATOM     18  C   UNL     1      -5.305  -9.438  10.150  0.00  0.00    -0.073 C 
ATOM     19  C   UNL     1      -5.296  -9.828  11.437  0.00  0.00    -0.022 C 
ATOM     24  C   UNL     1      -4.041  -9.005   9.460  0.00  0.00    +0.039 C 
ENDROOT
BRANCH  13  17
ATOM     17  C   UNL     1      -8.983 -10.892  12.011  0.00  0.00    -0.013 C 
ATOM     22  C   UNL     1      -9.507 -11.849  10.945  0.00  0.00    +0.007 C 
ATOM     23  C   UNL     1     -10.103  -9.999  12.535  0.00  0.00    +0.007 C 
ENDBRANCH  13  17
BRANCH  14  20
ATOM     20  C   UNL     1      -6.526  -9.627  13.587  0.00  0.00    +0.112 C 
BRANCH  20   9
ATOM      2  O   UNL     1      -6.272  -9.369  16.448  0.00  0.00    -0.272 OA
ATOM      9  N   UNL     1      -5.470 -10.135  14.405  0.00  0.00    -0.312 N 
ATOM     26  C   UNL     1      -5.422  -9.966  15.789  0.00  0.00    +0.258 C 
ATOM     39  H   UNL     1      -4.741 -10.686  13.959  0.00  0.00    +0.149 HD
BRANCH  26  28
ATOM     28  C   UNL     1      -4.181 -10.583  16.422  0.00  0.00    +0.313 C 
BRANCH  28   3
ATOM      3  O   UNL     1      -4.564 -11.757  17.126  0.00  0.00    -0.448 OA
BRANCH   3  35
ATOM      7  O   UNL     1      -3.313 -11.819  19.067  0.00  0.00    -0.251 OA
ATOM     35  C   UNL     1      -4.383 -11.725  18.481  0.00  0.00    +0.305 C 
ATOM     37  C   UNL     1      -5.704 -11.554  19.169  0.00  0.00    +0.136 C 
ENDBRANCH   3  35
ENDBRANCH  28   3
BRANCH  28  30
ATOM     30  C   UNL     1      -3.112 -10.913  15.375  0.00  0.00    +0.333 C 
BRANCH  30  34
ATOM      6  O   UNL     1      -0.996  -9.719  15.259  0.00  0.00    -0.247 OA
ATOM     34  C   UNL     1      -1.731 -10.502  15.847  0.00  0.00    +0.350 C 
BRANCH  34   5
ATOM      5  O   UNL     1      -1.393 -11.090  17.024  0.00  0.00    -0.478 OA
ATOM     41  H   UNL     1      -0.458 -10.920  17.263  0.00  0.00    +0.295 HD
ENDBRANCH  34   5
ENDBRANCH  30  34
BRANCH  30   4
ATOM      4  O   UNL     1      -3.103 -12.316  15.147  0.00  0.00    -0.446 OA
BRANCH   4  36
ATOM      8  O   UNL     1      -1.692 -12.782  13.378  0.00  0.00    -0.251 OA
ATOM     36  C   UNL     1      -2.809 -12.708  13.870  0.00  0.00    +0.305 C 
ATOM     38  C   UNL     1      -4.073 -13.043  13.136  0.00  0.00    +0.136 C 
ENDBRANCH   4  36
ENDBRANCH  30   4
ENDBRANCH  28  30
ENDBRANCH  26  28
ENDBRANCH  20   9
ENDBRANCH  14  20
BRANCH  16  21
ATOM     21  C   UNL     1      -7.075  -8.033   9.056  0.00  0.00    +0.082 C 
BRANCH  21  25
ATOM      1 CL   UNL     1      -8.496  -8.087   1.590  0.00  0.00    -0.082 Cl
ATOM     10  N   UNL     1      -6.952  -8.344   6.576  0.00  0.00    -0.340 N 
ATOM     11  N   UNL     1      -8.796  -7.359   7.344  0.00  0.00    -0.213 NA
ATOM     12  N   UNL     1      -9.879  -7.043   5.194  0.00  0.00    -0.233 NA
ATOM     25  C   UNL     1      -7.641  -7.895   7.671  0.00  0.00    +0.110 A 
ATOM     27  C   UNL     1      -7.715  -8.080   5.471  0.00  0.00    +0.087 A 
ATOM     29  C   UNL     1      -8.856  -7.467   5.977  0.00  0.00    +0.178 A 
ATOM     31  C   UNL     1      -7.541  -8.303   4.110  0.00  0.00    +0.051 A 
ATOM     32  C   UNL     1      -8.584  -7.872   3.293  0.00  0.00    +0.061 A 
ATOM     33  C   UNL     1      -9.694  -7.267   3.871  0.00  0.00    +0.133 A 
ATOM     40  H   UNL     1      -6.045  -8.790   6.581  0.00  0.00    +0.167 HD
ENDBRANCH  21  25
ENDBRANCH  16  21
TORSDOF 13
ENDMDL
MODEL 4
REMARK VINA RESULT:      -6.2     28.905     32.655
REMARK  Name = 75536148
REMARK  18 active torsions:
REMARK  status: ('A' for Active; 'I' for Inactive)
REMARK    1  A    between atoms: O_3  and  C_28
REMARK    2  A    between atoms: O_3  and  C_35
REMARK    3  A    between atoms: O_4  and  C_30
REMARK    4  A    between atoms: O_4  and  C_36
REMARK    5  A    between atoms: O_5  and  C_34
REMARK    6  A    between atoms: N_9  and  C_20
REMARK    7  A    between atoms: C_13  and  C_17
REMARK    8  A    between atoms: C_14  and  C_20
REMARK    9  A    between atoms: C_16  and  C_21
REMARK   10  A    between atoms: C_17  and  C_22
REMARK   11  A    between atoms: C_17  and  C_23
REMARK   12  A    between atoms: C_18  and  C_24
REMARK   13  A    between atoms: C_21  and  C_25
REMARK   14  A    between atoms: C_26  and  C_28
REMARK   15  A    between atoms: C_28  and  C_30
REMARK   16  A    between atoms: C_30  and  C_34
REMARK   17  A    between atoms: C_35  and  C_37
REMARK   18  A    between atoms: C_36  and  C_38
REMARK                            x       y       z     vdW  Elec       q    Type
REMARK                         _______ _______ _______ _____ _____    ______ ____
ROOT
ATOM     13  C   UNL     1     -16.880   6.261  19.747  0.00  0.00    +0.000 C 
ATOM     14  C   UNL     1     -16.367   7.659  19.322  0.00  0.00    +0.032 C 
ATOM     15  C   UNL     1     -17.195   6.240  21.251  0.00  0.00    +0.012 C 
ATOM     16  C   UNL     1     -15.966   6.591  22.109  0.00  0.00    +0.022 C 
ATOM     18  C   UNL     1     -15.245   7.817  21.586  0.00  0.00    -0.073 C 
ATOM     19  C   UNL     1     -15.447   8.288  20.343  0.00  0.00    -0.022 C 
ATOM     24  C   UNL     1     -14.320   8.518  22.542  0.00  0.00    +0.039 C 
ENDROOT
BRANCH  13  17
ATOM     17  C   UNL     1     -18.119   5.843  18.950  0.00  0.00    -0.013 C 
ATOM     22  C   UNL     1     -19.246   6.851  19.153  0.00  0.00    +0.007 C 
ATOM     23  C   UNL     1     -18.566   4.442  19.357  0.00  0.00    +0.007 C 
ENDBRANCH  13  17
BRANCH  14  20
ATOM     20  C   UNL     1     -15.659   7.601  17.964  0.00  0.00    +0.112 C 
BRANCH  20   9
ATOM      2  O   UNL     1     -14.314   9.677  16.482  0.00  0.00    -0.272 OA
ATOM      9  N   UNL     1     -14.291   7.999  18.089  0.00  0.00    -0.312 N 
ATOM     26  C   UNL     1     -13.716   9.018  17.330  0.00  0.00    +0.258 C 
ATOM     39  H   UNL     1     -13.724   7.544  18.799  0.00  0.00    +0.149 HD
BRANCH  26  28
ATOM     28  C   UNL     1     -12.238   9.230  17.639  0.00  0.00    +0.313 C 
BRANCH  28   3
ATOM      3  O   UNL     1     -11.765   8.115  18.383  0.00  0.00    -0.448 OA
BRANCH   3  35
ATOM      7  O   UNL     1     -10.926   9.434  20.085  0.00  0.00    -0.251 OA
ATOM     35  C   UNL     1     -11.382   8.377  19.670  0.00  0.00    +0.305 C 
ATOM     37  C   UNL     1     -11.599   7.165  20.524  0.00  0.00    +0.136 C 
ENDBRANCH   3  35
ENDBRANCH  28   3
BRANCH  28  30
ATOM     30  C   UNL     1     -11.411   9.412  16.364  0.00  0.00    +0.333 C 
BRANCH  30  34
ATOM      6  O   UNL     1      -9.908  11.313  16.152  0.00  0.00    -0.247 OA
ATOM     34  C   UNL     1     -10.151  10.214  16.632  0.00  0.00    +0.350 C 
BRANCH  34   5
ATOM      5  O   UNL     1      -9.313   9.582  17.494  0.00  0.00    -0.478 OA
ATOM     41  H   UNL     1      -9.626   9.644  18.420  0.00  0.00    +0.295 HD
ENDBRANCH  34   5
ENDBRANCH  30  34
BRANCH  30   4
ATOM      4  O   UNL     1     -11.025   8.134  15.873  0.00  0.00    -0.446 OA
BRANCH   4  36
ATOM      8  O   UNL     1     -10.026   7.785  13.820  0.00  0.00    -0.251 OA
ATOM     36  C   UNL     1     -11.011   8.001  14.512  0.00  0.00    +0.305 C 
ATOM     38  C   UNL     1     -12.399   8.159  13.970  0.00  0.00    +0.136 C 
ENDBRANCH   4  36
ENDBRANCH  30   4
ENDBRANCH  28  30
ENDBRANCH  26  28
ENDBRANCH  20   9
ENDBRANCH  14  20
BRANCH  16  21
ATOM     21  C   UNL     1     -15.008   5.398  22.218  0.00  0.00    +0.082 C 
BRANCH  21  25
ATOM      1 CL   UNL     1     -16.925   1.552  28.486  0.00  0.00    -0.082 Cl
ATOM     10  N   UNL     1     -15.407   4.673  24.580  0.00  0.00    -0.340 N 
ATOM     11  N   UNL     1     -16.006   3.222  23.000  0.00  0.00    -0.213 NA
ATOM     12  N   UNL     1     -16.827   1.488  24.488  0.00  0.00    -0.233 NA
ATOM     25  C   UNL     1     -15.485   4.405  23.239  0.00  0.00    +0.110 A 
ATOM     27  C   UNL     1     -15.912   3.590  25.248  0.00  0.00    +0.087 A 
ATOM     29  C   UNL     1     -16.277   2.703  24.241  0.00  0.00    +0.178 A 
ATOM     31  C   UNL     1     -16.088   3.291  26.594  0.00  0.00    +0.051 A 
ATOM     32  C   UNL     1     -16.653   2.047  26.863  0.00  0.00    +0.061 A 
ATOM     33  C   UNL     1     -16.992   1.211  25.804  0.00  0.00    +0.133 A 
ATOM     40  H   UNL     1     -15.043   5.518  25.001  0.00  0.00    +0.167 HD
ENDBRANCH  21  25
ENDBRANCH  16  21
TORSDOF 13
ENDMDL
MODEL 5
REMARK VINA RESULT:      -6.1      1.391      3.505
REMARK  Name = 75536148
REMARK  18 active torsions:
REMARK  status: ('A' for Active; 'I' for Inactive)
REMARK    1  A    between atoms: O_3  and  C_28
REMARK    2  A    between atoms: O_3  and  C_35
REMARK    3  A    between atoms: O_4  and  C_30
REMARK    4  A    between atoms: O_4  and  C_36
REMARK    5  A    between atoms: O_5  and  C_34
REMARK    6  A    between atoms: N_9  and  C_20
REMARK    7  A    between atoms: C_13  and  C_17
REMARK    8  A    between atoms: C_14  and  C_20
REMARK    9  A    between atoms: C_16  and  C_21
REMARK   10  A    between atoms: C_17  and  C_22
REMARK   11  A    between atoms: C_17  and  C_23
REMARK   12  A    between atoms: C_18  and  C_24
REMARK   13  A    between atoms: C_21  and  C_25
REMARK   14  A    between atoms: C_26  and  C_28
REMARK   15  A    between atoms: C_28  and  C_30
REMARK   16  A    between atoms: C_30  and  C_34
REMARK   17  A    between atoms: C_35  and  C_37
REMARK   18  A    between atoms: C_36  and  C_38
REMARK                            x       y       z     vdW  Elec       q    Type
REMARK                         _______ _______ _______ _____ _____    ______ ____
ROOT
ATOM     13  C   UNL     1      18.141   8.786  21.680  0.00  0.00    +0.000 C 
ATOM     14  C   UNL     1      16.963   8.209  20.856  0.00  0.00    +0.032 C 
ATOM     15  C   UNL     1      19.472   8.555  20.948  0.00  0.00    +0.012 C 
ATOM     16  C   UNL     1      19.743   7.061  20.690  0.00  0.00    +0.022 C 
ATOM     18  C   UNL     1      18.526   6.358  20.121  0.00  0.00    -0.073 C 
ATOM     19  C   UNL     1      17.294   6.892  20.192  0.00  0.00    -0.022 C 
ATOM     24  C   UNL     1      18.766   5.046  19.426  0.00  0.00    +0.039 C 
ENDROOT
BRANCH  13  17
ATOM     17  C   UNL     1      17.958  10.280  21.965  0.00  0.00    -0.013 C 
ATOM     22  C   UNL     1      17.744  11.047  20.663  0.00  0.00    +0.007 C 
ATOM     23  C   UNL     1      19.161  10.828  22.725  0.00  0.00    +0.007 C 
ENDBRANCH  13  17
BRANCH  14  20
ATOM     20  C   UNL     1      15.710   8.043  21.722  0.00  0.00    +0.112 C 
BRANCH  20   9
ATOM      2  O   UNL     1      13.907   7.333  19.586  0.00  0.00    -0.272 OA
ATOM      9  N   UNL     1      14.632   8.830  21.209  0.00  0.00    -0.312 N 
ATOM     26  C   UNL     1      13.803   8.411  20.168  0.00  0.00    +0.258 C 
ATOM     39  H   UNL     1      14.434   9.720  21.658  0.00  0.00    +0.149 HD
BRANCH  26  28
ATOM     28  C   UNL     1      12.746   9.444  19.796  0.00  0.00    +0.313 C 
BRANCH  28   3
ATOM      3  O   UNL     1      11.913   9.670  20.925  0.00  0.00    -0.448 OA
BRANCH   3  35
ATOM      7  O   UNL     1      10.518   7.909  20.385  0.00  0.00    -0.251 OA
ATOM     35  C   UNL     1      10.998   8.690  21.195  0.00  0.00    +0.305 C 
ATOM     37  C   UNL     1      10.653   8.703  22.654  0.00  0.00    +0.136 C 
ENDBRANCH   3  35
ENDBRANCH  28   3
BRANCH  28  30
ATOM     30  C   UNL     1      13.376  10.758  19.325  0.00  0.00    +0.333 C 
BRANCH  30  34
ATOM      6  O   UNL     1      14.352  11.938  21.214  0.00  0.00    -0.247 OA
ATOM     34  C   UNL     1      13.416  11.784  20.441  0.00  0.00    +0.350 C 
BRANCH  34   5
ATOM      5  O   UNL     1      12.290  12.543  20.482  0.00  0.00    -0.478 OA
ATOM     41  H   UNL     1      12.367  13.342  19.920  0.00  0.00    +0.295 HD
ENDBRANCH  34   5
ENDBRANCH  30  34
BRANCH  30   4
ATOM      4  O   UNL     1      14.712  10.509  18.906  0.00  0.00    -0.446 OA
BRANCH   4  36
ATOM      8  O   UNL     1      15.874  12.152  17.771  0.00  0.00    -0.251 OA
ATOM     36  C   UNL     1      15.122  11.188  17.791  0.00  0.00    +0.305 C 
ATOM     38  C   UNL     1      14.507  10.577  16.568  0.00  0.00    +0.136 C 
ENDBRANCH   4  36
ENDBRANCH  30   4
ENDBRANCH  28  30
ENDBRANCH  26  28
ENDBRANCH  20   9
ENDBRANCH  14  20
BRANCH  16  21
ATOM     21  C   UNL     1      20.236   6.360  21.961  0.00  0.00    +0.082 C 
BRANCH  21  25
ATOM      1 CL   UNL     1      25.349   0.742  21.764  0.00  0.00    -0.082 Cl
ATOM     10  N   UNL     1      21.567   4.289  22.409  0.00  0.00    -0.340 N 
ATOM     11  N   UNL     1      22.268   5.551  20.713  0.00  0.00    -0.213 NA
ATOM     12  N   UNL     1      24.157   4.165  20.075  0.00  0.00    -0.233 NA
ATOM     25  C   UNL     1      21.370   5.421  21.663  0.00  0.00    +0.110 A 
ATOM     27  C   UNL     1      22.665   3.647  21.902  0.00  0.00    +0.087 A 
ATOM     29  C   UNL     1      23.081   4.454  20.849  0.00  0.00    +0.178 A 
ATOM     31  C   UNL     1      23.330   2.474  22.240  0.00  0.00    +0.051 A 
ATOM     32  C   UNL     1      24.437   2.165  21.453  0.00  0.00    +0.061 A 
ATOM     33  C   UNL     1      24.794   3.020  20.416  0.00  0.00    +0.133 A 
ATOM     40  H   UNL     1      21.004   3.981  23.190  0.00  0.00    +0.167 HD
ENDBRANCH  21  25
ENDBRANCH  16  21
TORSDOF 13
ENDMDL
MODEL 6
REMARK VINA RESULT:      -6.1     28.479     31.185
REMARK  Name = 75536148
REMARK  18 active torsions:
REMARK  status: ('A' for Active; 'I' for Inactive)
REMARK    1  A    between atoms: O_3  and  C_28
REMARK    2  A    between atoms: O_3  and  C_35
REMARK    3  A    between atoms: O_4  and  C_30
REMARK    4  A    between atoms: O_4  and  C_36
REMARK    5  A    between atoms: O_5  and  C_34
REMARK    6  A    between atoms: N_9  and  C_20
REMARK    7  A    between atoms: C_13  and  C_17
REMARK    8  A    between atoms: C_14  and  C_20
REMARK    9  A    between atoms: C_16  and  C_21
REMARK   10  A    between atoms: C_17  and  C_22
REMARK   11  A    between atoms: C_17  and  C_23
REMARK   12  A    between atoms: C_18  and  C_24
REMARK   13  A    between atoms: C_21  and  C_25
REMARK   14  A    between atoms: C_26  and  C_28
REMARK   15  A    between atoms: C_28  and  C_30
REMARK   16  A    between atoms: C_30  and  C_34
REMARK   17  A    between atoms: C_35  and  C_37
REMARK   18  A    between atoms: C_36  and  C_38
REMARK                            x       y       z     vdW  Elec       q    Type
REMARK                         _______ _______ _______ _____ _____    ______ ____
ROOT
ATOM     13  C   UNL     1      -3.107 -13.234  12.651  0.00  0.00    +0.000 C 
ATOM     14  C   UNL     1      -1.828 -12.399  12.905  0.00  0.00    +0.032 C 
ATOM     15  C   UNL     1      -3.550 -13.104  11.185  0.00  0.00    +0.012 C 
ATOM     16  C   UNL     1      -3.834 -11.644  10.789  0.00  0.00    +0.022 C 
ATOM     18  C   UNL     1      -2.732 -10.711  11.249  0.00  0.00    -0.073 C 
ATOM     19  C   UNL     1      -1.836 -11.070  12.185  0.00  0.00    -0.022 C 
ATOM     24  C   UNL     1      -2.653  -9.370  10.572  0.00  0.00    +0.039 C 
ENDROOT
BRANCH  13  17
ATOM     17  C   UNL     1      -2.902 -14.711  13.002  0.00  0.00    -0.013 C 
ATOM     22  C   UNL     1      -2.217 -15.441  11.851  0.00  0.00    +0.007 C 
ATOM     23  C   UNL     1      -4.236 -15.368  13.342  0.00  0.00    +0.007 C 
ENDBRANCH  13  17
BRANCH  14  20
ATOM     20  C   UNL     1      -1.608 -12.166  14.404  0.00  0.00    +0.112 C 
BRANCH  20   9
ATOM      2  O   UNL     1      -2.623 -10.283  16.338  0.00  0.00    -0.272 OA
ATOM      9  N   UNL     1      -2.845 -12.248  15.117  0.00  0.00    -0.312 N 
ATOM     26  C   UNL     1      -3.263 -11.289  16.040  0.00  0.00    +0.258 C 
ATOM     39  H   UNL     1      -3.469 -13.021  14.904  0.00  0.00    +0.149 HD
BRANCH  26  28
ATOM     28  C   UNL     1      -4.607 -11.623  16.677  0.00  0.00    +0.313 C 
BRANCH  28   3
ATOM      3  O   UNL     1      -4.746 -10.864  17.870  0.00  0.00    -0.448 OA
BRANCH   3  35
ATOM      7  O   UNL     1      -3.657 -12.168  19.436  0.00  0.00    -0.251 OA
ATOM     35  C   UNL     1      -4.646 -11.568  19.039  0.00  0.00    +0.305 C 
ATOM     37  C   UNL     1      -5.945 -11.505  19.785  0.00  0.00    +0.136 C 
ENDBRANCH   3  35
ENDBRANCH  28   3
BRANCH  28  30
ATOM     30  C   UNL     1      -5.773 -11.341  15.725  0.00  0.00    +0.333 C 
BRANCH  30  34
ATOM      6  O   UNL     1      -5.553  -9.645  13.995  0.00  0.00    -0.247 OA
ATOM     34  C   UNL     1      -5.709  -9.929  15.175  0.00  0.00    +0.350 C 
BRANCH  34   5
ATOM      5  O   UNL     1      -5.865  -8.991  16.146  0.00  0.00    -0.478 OA
ATOM     41  H   UNL     1      -5.026  -8.524  16.342  0.00  0.00    +0.295 HD
ENDBRANCH  34   5
ENDBRANCH  30  34
BRANCH  30   4
ATOM      4  O   UNL     1      -5.708 -12.245  14.629  0.00  0.00    -0.446 OA
BRANCH   4  36
ATOM      8  O   UNL     1      -7.625 -12.572  13.381  0.00  0.00    -0.251 OA
ATOM     36  C   UNL     1      -6.881 -12.871  14.305  0.00  0.00    +0.305 C 
ATOM     38  C   UNL     1      -7.136 -13.999  15.259  0.00  0.00    +0.136 C 
ENDBRANCH   4  36
ENDBRANCH  30   4
ENDBRANCH  28  30
ENDBRANCH  26  28
ENDBRANCH  20   9
ENDBRANCH  14  20
BRANCH  16  21
ATOM     21  C   UNL     1      -5.197 -11.182  11.319  0.00  0.00    +0.082 C 
BRANCH  21  25
ATOM      1 CL   UNL     1      -9.745  -6.539   7.380  0.00  0.00    -0.082 Cl
ATOM     10  N   UNL     1      -6.871  -9.455  10.627  0.00  0.00    -0.340 N 
ATOM     11  N   UNL     1      -5.858 -10.548   8.972  0.00  0.00    -0.213 NA
ATOM     12  N   UNL     1      -6.983  -9.420   7.140  0.00  0.00    -0.233 NA
ATOM     25  C   UNL     1      -5.958 -10.413  10.276  0.00  0.00    +0.110 A 
ATOM     27  C   UNL     1      -7.392  -8.939   9.471  0.00  0.00    +0.087 A 
ATOM     29  C   UNL     1      -6.745  -9.637   8.458  0.00  0.00    +0.178 A 
ATOM     31  C   UNL     1      -8.340  -7.959   9.201  0.00  0.00    +0.051 A 
ATOM     32  C   UNL     1      -8.595  -7.725   7.852  0.00  0.00    +0.061 A 
ATOM     33  C   UNL     1      -7.908  -8.463   6.894  0.00  0.00    +0.133 A 
ATOM     40  H   UNL     1      -7.115  -9.178  11.568  0.00  0.00    +0.167 HD
ENDBRANCH  21  25
ENDBRANCH  16  21
TORSDOF 13
ENDMDL
MODEL 7
REMARK VINA RESULT:      -6.1     28.365     31.162
REMARK  Name = 75536148
REMARK  18 active torsions:
REMARK  status: ('A' for Active; 'I' for Inactive)
REMARK    1  A    between atoms: O_3  and  C_28
REMARK    2  A    between atoms: O_3  and  C_35
REMARK    3  A    between atoms: O_4  and  C_30
REMARK    4  A    between atoms: O_4  and  C_36
REMARK    5  A    between atoms: O_5  and  C_34
REMARK    6  A    between atoms: N_9  and  C_20
REMARK    7  A    between atoms: C_13  and  C_17
REMARK    8  A    between atoms: C_14  and  C_20
REMARK    9  A    between atoms: C_16  and  C_21
REMARK   10  A    between atoms: C_17  and  C_22
REMARK   11  A    between atoms: C_17  and  C_23
REMARK   12  A    between atoms: C_18  and  C_24
REMARK   13  A    between atoms: C_21  and  C_25
REMARK   14  A    between atoms: C_26  and  C_28
REMARK   15  A    between atoms: C_28  and  C_30
REMARK   16  A    between atoms: C_30  and  C_34
REMARK   17  A    between atoms: C_35  and  C_37
REMARK   18  A    between atoms: C_36  and  C_38
REMARK                            x       y       z     vdW  Elec       q    Type
REMARK                         _______ _______ _______ _____ _____    ______ ____
ROOT
ATOM     13  C   UNL     1      -3.357 -13.115  12.602  0.00  0.00    +0.000 C 
ATOM     14  C   UNL     1      -1.963 -12.473  12.807  0.00  0.00    +0.032 C 
ATOM     15  C   UNL     1      -3.863 -12.852  11.175  0.00  0.00    +0.012 C 
ATOM     16  C   UNL     1      -3.968 -11.348  10.862  0.00  0.00    +0.022 C 
ATOM     18  C   UNL     1      -2.723 -10.597  11.287  0.00  0.00    -0.073 C 
ATOM     19  C   UNL     1      -1.831 -11.120  12.147  0.00  0.00    -0.022 C 
ATOM     24  C   UNL     1      -2.502  -9.245  10.665  0.00  0.00    +0.039 C 
ENDROOT
BRANCH  13  17
ATOM     17  C   UNL     1      -3.335 -14.622  12.875  0.00  0.00    -0.013 C 
ATOM     22  C   UNL     1      -2.390 -15.325  11.906  0.00  0.00    +0.007 C 
ATOM     23  C   UNL     1      -4.742 -15.202  12.775  0.00  0.00    +0.007 C 
ENDBRANCH  13  17
BRANCH  14  20
ATOM     20  C   UNL     1      -1.624 -12.349  14.297  0.00  0.00    +0.112 C 
BRANCH  20   9
ATOM      2  O   UNL     1      -2.196 -10.269  16.211  0.00  0.00    -0.272 OA
ATOM      9  N   UNL     1      -2.814 -12.200  15.076  0.00  0.00    -0.312 N 
ATOM     26  C   UNL     1      -3.011 -11.160  15.984  0.00  0.00    +0.258 C 
ATOM     39  H   UNL     1      -3.570 -12.862  14.925  0.00  0.00    +0.149 HD
BRANCH  26  28
ATOM     28  C   UNL     1      -4.354 -11.243  16.702  0.00  0.00    +0.313 C 
BRANCH  28   3
ATOM      3  O   UNL     1      -5.386 -11.327  15.729  0.00  0.00    -0.448 OA
BRANCH   3  35
ATOM      7  O   UNL     1      -6.298  -9.651  14.426  0.00  0.00    -0.251 OA
ATOM     35  C   UNL     1      -6.095 -10.178  15.512  0.00  0.00    +0.305 C 
ATOM     37  C   UNL     1      -6.600  -9.636  16.815  0.00  0.00    +0.136 C 
ENDBRANCH   3  35
ENDBRANCH  28   3
BRANCH  28  30
ATOM     30  C   UNL     1      -4.417 -12.442  17.653  0.00  0.00    +0.333 C 
BRANCH  30  34
ATOM      6  O   UNL     1      -5.374 -11.494  19.678  0.00  0.00    -0.247 OA
ATOM     34  C   UNL     1      -4.418 -11.998  19.103  0.00  0.00    +0.350 C 
BRANCH  34   5
ATOM      5  O   UNL     1      -3.231 -12.241  19.717  0.00  0.00    -0.478 OA
ATOM     41  H   UNL     1      -3.318 -12.242  20.693  0.00  0.00    +0.295 HD
ENDBRANCH  34   5
ENDBRANCH  30  34
BRANCH  30   4
ATOM      4  O   UNL     1      -5.617 -13.165  17.411  0.00  0.00    -0.446 OA
BRANCH   4  36
ATOM      8  O   UNL     1      -4.434 -14.775  16.251  0.00  0.00    -0.251 OA
ATOM     36  C   UNL     1      -5.475 -14.337  16.719  0.00  0.00    +0.305 C 
ATOM     38  C   UNL     1      -6.802 -15.027  16.609  0.00  0.00    +0.136 C 
ENDBRANCH   4  36
ENDBRANCH  30   4
ENDBRANCH  28  30
ENDBRANCH  26  28
ENDBRANCH  20   9
ENDBRANCH  14  20
BRANCH  16  21
ATOM     21  C   UNL     1      -5.221 -10.737  11.498  0.00  0.00    +0.082 C 
BRANCH  21  25
ATOM      1 CL   UNL     1      -8.376  -7.771   5.253  0.00  0.00    -0.082 Cl
ATOM     10  N   UNL     1      -5.798 -10.124   9.142  0.00  0.00    -0.340 N 
ATOM     11  N   UNL     1      -7.050  -9.185  10.727  0.00  0.00    -0.213 NA
ATOM     12  N   UNL     1      -8.492  -7.910   9.248  0.00  0.00    -0.233 NA
ATOM     25  C   UNL     1      -6.046  -9.998  10.483  0.00  0.00    +0.110 A 
ATOM     27  C   UNL     1      -6.703  -9.339   8.479  0.00  0.00    +0.087 A 
ATOM     29  C   UNL     1      -7.469  -8.767   9.489  0.00  0.00    +0.178 A 
ATOM     31  C   UNL     1      -6.935  -9.069   7.136  0.00  0.00    +0.051 A 
ATOM     32  C   UNL     1      -7.983  -8.190   6.872  0.00  0.00    +0.061 A 
ATOM     33  C   UNL     1      -8.705  -7.656   7.935  0.00  0.00    +0.133 A 
ATOM     40  H   UNL     1      -5.078 -10.693   8.717  0.00  0.00    +0.167 HD
ENDBRANCH  21  25
ENDBRANCH  16  21
TORSDOF 13
ENDMDL
MODEL 8
REMARK VINA RESULT:      -6.1     28.251     31.661
REMARK  Name = 75536148
REMARK  18 active torsions:
REMARK  status: ('A' for Active; 'I' for Inactive)
REMARK    1  A    between atoms: O_3  and  C_28
REMARK    2  A    between atoms: O_3  and  C_35
REMARK    3  A    between atoms: O_4  and  C_30
REMARK    4  A    between atoms: O_4  and  C_36
REMARK    5  A    between atoms: O_5  and  C_34
REMARK    6  A    between atoms: N_9  and  C_20
REMARK    7  A    between atoms: C_13  and  C_17
REMARK    8  A    between atoms: C_14  and  C_20
REMARK    9  A    between atoms: C_16  and  C_21
REMARK   10  A    between atoms: C_17  and  C_22
REMARK   11  A    between atoms: C_17  and  C_23
REMARK   12  A    between atoms: C_18  and  C_24
REMARK   13  A    between atoms: C_21  and  C_25
REMARK   14  A    between atoms: C_26  and  C_28
REMARK   15  A    between atoms: C_28  and  C_30
REMARK   16  A    between atoms: C_30  and  C_34
REMARK   17  A    between atoms: C_35  and  C_37
REMARK   18  A    between atoms: C_36  and  C_38
REMARK                            x       y       z     vdW  Elec       q    Type
REMARK                         _______ _______ _______ _____ _____    ______ ____
ROOT
ATOM     13  C   UNL     1      -3.842 -10.057  11.331  0.00  0.00    +0.000 C 
ATOM     14  C   UNL     1      -4.935  -9.670  12.358  0.00  0.00    +0.032 C 
ATOM     15  C   UNL     1      -3.928  -9.153  10.092  0.00  0.00    +0.012 C 
ATOM     16  C   UNL     1      -5.300  -9.241   9.400  0.00  0.00    +0.022 C 
ATOM     18  C   UNL     1      -6.440  -9.136  10.393  0.00  0.00    -0.073 C 
ATOM     19  C   UNL     1      -6.255  -9.317  11.713  0.00  0.00    -0.022 C 
ATOM     24  C   UNL     1      -7.790  -8.770   9.840  0.00  0.00    +0.039 C 
ENDROOT
BRANCH  13  17
ATOM     17  C   UNL     1      -2.438  -9.977  11.937  0.00  0.00    -0.013 C 
ATOM     22  C   UNL     1      -1.499  -9.222  11.002  0.00  0.00    +0.007 C 
ATOM     23  C   UNL     1      -1.903 -11.375  12.229  0.00  0.00    +0.007 C 
ENDBRANCH  13  17
BRANCH  14  20
ATOM     20  C   UNL     1      -5.152 -10.788  13.384  0.00  0.00    +0.112 C 
BRANCH  20   9
ATOM      2  O   UNL     1      -7.606 -11.517  14.712  0.00  0.00    -0.272 OA
ATOM      9  N   UNL     1      -5.655 -10.257  14.613  0.00  0.00    -0.312 N 
ATOM     26  C   UNL     1      -6.858 -10.667  15.190  0.00  0.00    +0.258 C 
ATOM     39  H   UNL     1      -5.084  -9.580  15.111  0.00  0.00    +0.149 HD
BRANCH  26  28
ATOM     28  C   UNL     1      -7.178  -9.930  16.485  0.00  0.00    +0.313 C 
BRANCH  28   3
ATOM      3  O   UNL     1      -8.583  -9.970  16.697  0.00  0.00    -0.448 OA
BRANCH   3  35
ATOM      7  O   UNL     1      -9.362  -7.914  17.405  0.00  0.00    -0.251 OA
ATOM     35  C   UNL     1      -9.242  -8.781  16.551  0.00  0.00    +0.305 C 
ATOM     37  C   UNL     1      -9.811  -8.680  15.168  0.00  0.00    +0.136 C 
ENDBRANCH   3  35
ENDBRANCH  28   3
BRANCH  28  30
ATOM     30  C   UNL     1      -6.439 -10.536  17.682  0.00  0.00    +0.333 C 
BRANCH  30  34
ATOM      6  O   UNL     1      -7.617 -10.687  19.804  0.00  0.00    -0.247 OA
ATOM     34  C   UNL     1      -7.407 -11.134  18.684  0.00  0.00    +0.350 C 
BRANCH  34   5
ATOM      5  O   UNL     1      -8.045 -12.229  18.193  0.00  0.00    -0.478 OA
ATOM     41  H   UNL     1      -8.605 -12.661  18.872  0.00  0.00    +0.295 HD
ENDBRANCH  34   5
ENDBRANCH  30  34
BRANCH  30   4
ATOM      4  O   UNL     1      -5.582 -11.574  17.222  0.00  0.00    -0.446 OA
BRANCH   4  36
ATOM      8  O   UNL     1      -3.363 -11.047  16.856  0.00  0.00    -0.251 OA
ATOM     36  C   UNL     1      -4.265 -11.456  17.573  0.00  0.00    +0.305 C 
ATOM     38  C   UNL     1      -4.073 -11.908  18.989  0.00  0.00    +0.136 C 
ENDBRANCH   4  36
ENDBRANCH  30   4
ENDBRANCH  28  30
ENDBRANCH  26  28
ENDBRANCH  20   9
ENDBRANCH  14  20
BRANCH  16  21
ATOM     21  C   UNL     1      -5.419 -10.521   8.565  0.00  0.00    +0.082 C 
BRANCH  21  25
ATOM      1 CL   UNL     1      -8.406  -7.504   2.262  0.00  0.00    -0.082 Cl
ATOM     10  N   UNL     1      -6.304  -8.963   6.818  0.00  0.00    -0.340 N 
ATOM     11  N   UNL     1      -6.354 -11.130   6.307  0.00  0.00    -0.213 NA
ATOM     12  N   UNL     1      -7.335 -10.891   4.099  0.00  0.00    -0.233 NA
ATOM     25  C   UNL     1      -6.026 -10.243   7.219  0.00  0.00    +0.110 A 
ATOM     27  C   UNL     1      -6.845  -9.033   5.562  0.00  0.00    +0.087 A 
ATOM     29  C   UNL     1      -6.865 -10.392   5.269  0.00  0.00    +0.178 A 
ATOM     31  C   UNL     1      -7.312  -8.079   4.665  0.00  0.00    +0.051 A 
ATOM     32  C   UNL     1      -7.798  -8.576   3.459  0.00  0.00    +0.061 A 
ATOM     33  C   UNL     1      -7.787  -9.949   3.237  0.00  0.00    +0.133 A 
ATOM     40  H   UNL     1      -6.138  -8.120   7.350  0.00  0.00    +0.167 HD
ENDBRANCH  21  25
ENDBRANCH  16  21
TORSDOF 13
ENDMDL
MODEL 9
REMARK VINA RESULT:      -6.0     14.788     18.804
REMARK  Name = 75536148
REMARK  18 active torsions:
REMARK  status: ('A' for Active; 'I' for Inactive)
REMARK    1  A    between atoms: O_3  and  C_28
REMARK    2  A    between atoms: O_3  and  C_35
REMARK    3  A    between atoms: O_4  and  C_30
REMARK    4  A    between atoms: O_4  and  C_36
REMARK    5  A    between atoms: O_5  and  C_34
REMARK    6  A    between atoms: N_9  and  C_20
REMARK    7  A    between atoms: C_13  and  C_17
REMARK    8  A    between atoms: C_14  and  C_20
REMARK    9  A    between atoms: C_16  and  C_21
REMARK   10  A    between atoms: C_17  and  C_22
REMARK   11  A    between atoms: C_17  and  C_23
REMARK   12  A    between atoms: C_18  and  C_24
REMARK   13  A    between atoms: C_21  and  C_25
REMARK   14  A    between atoms: C_26  and  C_28
REMARK   15  A    between atoms: C_28  and  C_30
REMARK   16  A    between atoms: C_30  and  C_34
REMARK   17  A    between atoms: C_35  and  C_37
REMARK   18  A    between atoms: C_36  and  C_38
REMARK                            x       y       z     vdW  Elec       q    Type
REMARK                         _______ _______ _______ _____ _____    ______ ____
ROOT
ATOM     13  C   UNL     1       9.741   6.252   7.226  0.00  0.00    +0.000 C 
ATOM     14  C   UNL     1       9.153   5.577   5.962  0.00  0.00    +0.032 C 
ATOM     15  C   UNL     1       8.836   7.405   7.687  0.00  0.00    +0.012 C 
ATOM     16  C   UNL     1       8.659   8.479   6.597  0.00  0.00    +0.022 C 
ATOM     18  C   UNL     1       8.339   7.865   5.249  0.00  0.00    -0.073 C 
ATOM     19  C   UNL     1       8.554   6.564   4.987  0.00  0.00    -0.022 C 
ATOM     24  C   UNL     1       7.722   8.773   4.221  0.00  0.00    +0.039 C 
ENDROOT
BRANCH  13  17
ATOM     17  C   UNL     1       9.930   5.252   8.370  0.00  0.00    -0.013 C 
ATOM     22  C   UNL     1       9.655   3.832   7.886  0.00  0.00    +0.007 C 
ATOM     23  C   UNL     1       9.025   5.608   9.545  0.00  0.00    +0.007 C 
ENDBRANCH  13  17
BRANCH  14  20
ATOM     20  C   UNL     1      10.210   4.729   5.245  0.00  0.00    +0.112 C 
BRANCH  20   9
ATOM      2  O   UNL     1      12.138   6.054   3.559  0.00  0.00    -0.272 OA
ATOM      9  N   UNL     1      10.132   4.913   3.829  0.00  0.00    -0.312 N 
ATOM     26  C   UNL     1      11.113   5.569   3.085  0.00  0.00    +0.258 C 
ATOM     39  H   UNL     1       9.342   4.505   3.337  0.00  0.00    +0.149 HD
BRANCH  26  28
ATOM     28  C   UNL     1      10.778   5.650   1.600  0.00  0.00    +0.313 C 
BRANCH  28   3
ATOM      3  O   UNL     1      11.318   6.858   1.078  0.00  0.00    -0.448 OA
BRANCH   3  35
ATOM      7  O   UNL     1       9.352   7.921   0.493  0.00  0.00    -0.251 OA
ATOM     35  C   UNL     1      10.456   7.918   1.019  0.00  0.00    +0.305 C 
ATOM     37  C   UNL     1      11.062   9.106   1.703  0.00  0.00    +0.136 C 
ENDBRANCH   3  35
ENDBRANCH  28   3
BRANCH  28  30
ATOM     30  C   UNL     1      11.321   4.445   0.828  0.00  0.00    +0.333 C 
BRANCH  30  34
ATOM      6  O   UNL     1      10.928   3.475  -1.368  0.00  0.00    -0.247 OA
ATOM     34  C   UNL     1      10.591   4.257  -0.488  0.00  0.00    +0.350 C 
BRANCH  34   5
ATOM      5  O   UNL     1       9.491   5.048  -0.584  0.00  0.00    -0.478 OA
ATOM     41  H   UNL     1       9.544   5.656  -1.352  0.00  0.00    +0.295 HD
ENDBRANCH  34   5
ENDBRANCH  30  34
BRANCH  30   4
ATOM      4  O   UNL     1      12.698   4.656   0.543  0.00  0.00    -0.446 OA
BRANCH   4  36
ATOM      8  O   UNL     1      13.258   2.718   1.668  0.00  0.00    -0.251 OA
ATOM     36  C   UNL     1      13.565   3.756   1.101  0.00  0.00    +0.305 C 
ATOM     38  C   UNL     1      14.976   4.229   0.919  0.00  0.00    +0.136 C 
ENDBRANCH   4  36
ENDBRANCH  30   4
ENDBRANCH  28  30
ENDBRANCH  26  28
ENDBRANCH  20   9
ENDBRANCH  14  20
BRANCH  16  21
ATOM     21  C   UNL     1       9.892   9.385   6.507  0.00  0.00    +0.082 C 
BRANCH  21  25
ATOM      1 CL   UNL     1       9.449  13.022  13.165  0.00  0.00    -0.082 Cl
ATOM     10  N   UNL     1       9.098  10.503   8.601  0.00  0.00    -0.340 N 
ATOM     11  N   UNL     1      11.305  10.430   8.312  0.00  0.00    -0.213 NA
ATOM     12  N   UNL     1      11.910  11.579  10.363  0.00  0.00    -0.233 NA
ATOM     25  C   UNL     1      10.138  10.105   7.803  0.00  0.00    +0.110 A 
ATOM     27  C   UNL     1       9.634  11.125   9.696  0.00  0.00    +0.087 A 
ATOM     29  C   UNL     1      11.007  11.066   9.491  0.00  0.00    +0.178 A 
ATOM     31  C   UNL     1       9.083  11.723  10.824  0.00  0.00    +0.051 A 
ATOM     32  C   UNL     1       9.997  12.255  11.729  0.00  0.00    +0.061 A 
ATOM     33  C   UNL     1      11.358  12.158  11.456  0.00  0.00    +0.133 A 
ATOM     40  H   UNL     1       8.114  10.363   8.416  0.00  0.00    +0.167 HD
ENDBRANCH  21  25
ENDBRANCH  16  21
TORSDOF 13
ENDMDL
MODEL 10
REMARK VINA RESULT:      -6.0     13.949     17.803
REMARK  Name = 75536148
REMARK  18 active torsions:
REMARK  status: ('A' for Active; 'I' for Inactive)
REMARK    1  A    between atoms: O_3  and  C_28
REMARK    2  A    between atoms: O_3  and  C_35
REMARK    3  A    between atoms: O_4  and  C_30
REMARK    4  A    between atoms: O_4  and  C_36
REMARK    5  A    between atoms: O_5  and  C_34
REMARK    6  A    between atoms: N_9  and  C_20
REMARK    7  A    between atoms: C_13  and  C_17
REMARK    8  A    between atoms: C_14  and  C_20
REMARK    9  A    between atoms: C_16  and  C_21
REMARK   10  A    between atoms: C_17  and  C_22
REMARK   11  A    between atoms: C_17  and  C_23
REMARK   12  A    between atoms: C_18  and  C_24
REMARK   13  A    between atoms: C_21  and  C_25
REMARK   14  A    between atoms: C_26  and  C_28
REMARK   15  A    between atoms: C_28  and  C_30
REMARK   16  A    between atoms: C_30  and  C_34
REMARK   17  A    between atoms: C_35  and  C_37
REMARK   18  A    between atoms: C_36  and  C_38
REMARK                            x       y       z     vdW  Elec       q    Type
REMARK                         _______ _______ _______ _____ _____    ______ ____
ROOT
ATOM     13  C   UNL     1       9.789   6.214   7.201  0.00  0.00    +0.000 C 
ATOM     14  C   UNL     1       9.142   5.586   5.942  0.00  0.00    +0.032 C 
ATOM     15  C   UNL     1       8.893   7.328   7.765  0.00  0.00    +0.012 C 
ATOM     16  C   UNL     1       8.637   8.446   6.739  0.00  0.00    +0.022 C 
ATOM     18  C   UNL     1       8.251   7.889   5.383  0.00  0.00    -0.073 C 
ATOM     19  C   UNL     1       8.472   6.605   5.050  0.00  0.00    -0.022 C 
ATOM     24  C   UNL     1       7.562   8.831   4.435  0.00  0.00    +0.039 C 
ENDROOT
BRANCH  13  17
ATOM     17  C   UNL     1      10.060   5.167   8.285  0.00  0.00    -0.013 C 
ATOM     22  C   UNL     1       9.790   3.765   7.748  0.00  0.00    +0.007 C 
ATOM     23  C   UNL     1       9.210   5.446   9.520  0.00  0.00    +0.007 C 
ENDBRANCH  13  17
BRANCH  14  20
ATOM     20  C   UNL     1      10.170   4.792   5.128  0.00  0.00    +0.112 C 
BRANCH  20   9
ATOM      2  O   UNL     1      11.067   4.808   2.387  0.00  0.00    -0.272 OA
ATOM      9  N   UNL     1      11.139   5.668   4.545  0.00  0.00    -0.312 N 
ATOM     26  C   UNL     1      11.518   5.608   3.204  0.00  0.00    +0.258 C 
ATOM     39  H   UNL     1      11.537   6.398   5.129  0.00  0.00    +0.149 HD
BRANCH  26  28
ATOM     28  C   UNL     1      12.584   6.636   2.840  0.00  0.00    +0.313 C 
BRANCH  28   3
ATOM      3  O   UNL     1      11.940   7.824   2.400  0.00  0.00    -0.448 OA
BRANCH   3  35
ATOM      7  O   UNL     1      12.576   7.462   0.209  0.00  0.00    -0.251 OA
ATOM     35  C   UNL     1      12.196   8.197   1.110  0.00  0.00    +0.305 C 
ATOM     37  C   UNL     1      11.944   9.666   0.944  0.00  0.00    +0.136 C 
ENDBRANCH   3  35
ENDBRANCH  28   3
BRANCH  28  30
ATOM     30  C   UNL     1      13.511   6.936   4.021  0.00  0.00    +0.333 C 
BRANCH  30  34
ATOM      6  O   UNL     1      15.299   8.136   2.889  0.00  0.00    -0.247 OA
ATOM     34  C   UNL     1      14.935   7.178   3.559  0.00  0.00    +0.350 C 
BRANCH  34   5
ATOM      5  O   UNL     1      15.787   6.212   3.991  0.00  0.00    -0.478 OA
ATOM     41  H   UNL     1      15.991   6.304   4.945  0.00  0.00    +0.295 HD
ENDBRANCH  34   5
ENDBRANCH  30  34
BRANCH  30   4
ATOM      4  O   UNL     1      13.056   8.110   4.683  0.00  0.00    -0.446 OA
BRANCH   4  36
ATOM      8  O   UNL     1      14.153   9.305   6.328  0.00  0.00    -0.251 OA
ATOM     36  C   UNL     1      13.551   8.313   5.942  0.00  0.00    +0.305 C 
ATOM     38  C   UNL     1      13.250   7.125   6.805  0.00  0.00    +0.136 C 
ENDBRANCH   4  36
ENDBRANCH  30   4
ENDBRANCH  28  30
ENDBRANCH  26  28
ENDBRANCH  20   9
ENDBRANCH  14  20
BRANCH  16  21
ATOM     21  C   UNL     1       9.849   9.379   6.622  0.00  0.00    +0.082 C 
BRANCH  21  25
ATOM      1 CL   UNL     1       9.413  13.185  13.186  0.00  0.00    -0.082 Cl
ATOM     10  N   UNL     1       9.057  10.577   8.672  0.00  0.00    -0.340 N 
ATOM     11  N   UNL     1      11.265  10.405   8.435  0.00  0.00    -0.213 NA
ATOM     12  N   UNL     1      11.872  11.576  10.473  0.00  0.00    -0.233 NA
ATOM     25  C   UNL     1      10.096  10.118   7.907  0.00  0.00    +0.110 A 
ATOM     27  C   UNL     1       9.593  11.202   9.765  0.00  0.00    +0.087 A 
ATOM     29  C   UNL     1      10.968  11.080   9.592  0.00  0.00    +0.178 A 
ATOM     31  C   UNL     1       9.044  11.848  10.866  0.00  0.00    +0.051 A 
ATOM     32  C   UNL     1       9.960  12.362  11.780  0.00  0.00    +0.061 A 
ATOM     33  C   UNL     1      11.321  12.203  11.540  0.00  0.00    +0.133 A 
ATOM     40  H   UNL     1       8.072  10.474   8.467  0.00  0.00    +0.167 HD
ENDBRANCH  21  25
ENDBRANCH  16  21
TORSDOF 13
ENDMDL
