MODEL 1
REMARK VINA RESULT:      -6.4      0.000      0.000
REMARK  Name = 75537125
REMARK  2 active torsions:
REMARK  status: ('A' for Active; 'I' for Inactive)
REMARK    1  A    between atoms: N_4  and  C_9
REMARK    2  A    between atoms: N_5  and  C_11
REMARK                            x       y       z     vdW  Elec       q    Type
REMARK                         _______ _______ _______ _____ _____    ______ ____
ROOT
ATOM      2  O   UNL     1      19.598   9.177  21.899  0.00  0.00    -0.252 OA
ATOM      3  N   UNL     1      17.466   8.469  21.213  0.00  0.00    -0.278 N 
ATOM      4  N   UNL     1      19.154   6.991  21.134  0.00  0.00    -0.281 N 
ATOM      5  N   UNL     1      14.673   8.138  21.246  0.00  0.00    -0.296 NA
ATOM      6  C   UNL     1      16.891   7.293  20.592  0.00  0.00    +0.109 C 
ATOM      7  C   UNL     1      17.976   6.230  20.755  0.00  0.00    +0.133 C 
ATOM      8  C   UNL     1      15.551   6.950  21.244  0.00  0.00    +0.108 C 
ATOM     10  C   UNL     1      16.643   9.646  21.401  0.00  0.00    +0.125 C 
ATOM     12  C   UNL     1      15.291   9.248  21.998  0.00  0.00    +0.104 C 
ATOM     13  C   UNL     1      18.837   8.322  21.466  0.00  0.00    +0.305 C 
ENDROOT
BRANCH   5  11
ATOM      1  O   UNL     1      10.503   7.744  21.535  0.00  0.00    -0.380 OA
ATOM     11  C   UNL     1      13.369   7.803  21.812  0.00  0.00    +0.061 C 
ATOM     18  C   UNL     1      12.647   6.758  20.955  0.00  0.00    +0.047 C 
ATOM     19  C   UNL     1      12.505   9.062  21.939  0.00  0.00    +0.047 C 
ATOM     21  C   UNL     1      11.237   6.521  21.484  0.00  0.00    +0.161 C 
ATOM     22  C   UNL     1      11.103   8.697  22.414  0.00  0.00    +0.161 C 
ENDBRANCH   5  11
BRANCH   4   9
ATOM      9  C   UNL     1      20.449   6.370  21.284  0.00  0.00    +0.078 C 
ATOM     14  C   UNL     1      20.503   5.049  20.511  0.00  0.00    +0.022 C 
ATOM     15  C   UNL     1      20.784   6.164  22.763  0.00  0.00    +0.022 C 
ATOM     16  C   UNL     1      21.844   4.344  20.695  0.00  0.00    +0.002 C 
ATOM     17  C   UNL     1      22.125   5.459  22.944  0.00  0.00    +0.002 C 
ATOM     20  C   UNL     1      22.178   4.144  22.171  0.00  0.00    +0.000 C 
ENDBRANCH   4   9
TORSDOF 2
ENDMDL
MODEL 2
REMARK VINA RESULT:      -6.3     27.590     29.239
REMARK  Name = 75537125
REMARK  2 active torsions:
REMARK  status: ('A' for Active; 'I' for Inactive)
REMARK    1  A    between atoms: N_4  and  C_9
REMARK    2  A    between atoms: N_5  and  C_11
REMARK                            x       y       z     vdW  Elec       q    Type
REMARK                         _______ _______ _______ _____ _____    ______ ____
ROOT
ATOM      2  O   UNL     1      -1.798 -10.481  15.990  0.00  0.00    -0.252 OA
ATOM      3  N   UNL     1      -2.967 -10.834  13.984  0.00  0.00    -0.278 N 
ATOM      4  N   UNL     1      -4.133 -10.799  15.903  0.00  0.00    -0.281 N 
ATOM      5  N   UNL     1      -3.743 -10.490  11.303  0.00  0.00    -0.296 NA
ATOM      6  C   UNL     1      -4.318 -11.179  13.595  0.00  0.00    +0.109 C 
ATOM      7  C   UNL     1      -5.136 -10.927  14.860  0.00  0.00    +0.133 C 
ATOM      8  C   UNL     1      -4.747 -10.358  12.378  0.00  0.00    +0.108 C 
ATOM     10  C   UNL     1      -1.928 -10.786  12.975  0.00  0.00    +0.125 C 
ATOM     12  C   UNL     1      -2.422 -10.007  11.754  0.00  0.00    +0.104 C 
ATOM     13  C   UNL     1      -2.833 -10.683  15.371  0.00  0.00    +0.305 C 
ENDROOT
BRANCH   5  11
ATOM      1  O   UNL     1      -6.245  -9.149   8.209  0.00  0.00    -0.380 OA
ATOM     11  C   UNL     1      -4.173  -9.758  10.114  0.00  0.00    +0.061 C 
ATOM     18  C   UNL     1      -5.336  -8.815  10.438  0.00  0.00    +0.047 C 
ATOM     19  C   UNL     1      -4.583 -10.734   9.007  0.00  0.00    +0.047 C 
ATOM     21  C   UNL     1      -5.859  -8.161   9.164  0.00  0.00    +0.161 C 
ATOM     22  C   UNL     1      -5.148  -9.974   7.812  0.00  0.00    +0.161 C 
ENDBRANCH   5  11
BRANCH   4   9
ATOM      9  C   UNL     1      -4.490 -10.657  17.294  0.00  0.00    +0.078 C 
ATOM     14  C   UNL     1      -4.093 -11.909  18.080  0.00  0.00    +0.022 C 
ATOM     15  C   UNL     1      -5.984 -10.357  17.442  0.00  0.00    +0.022 C 
ATOM     16  C   UNL     1      -4.507 -11.809  19.546  0.00  0.00    +0.002 C 
ATOM     17  C   UNL     1      -6.396 -10.257  18.909  0.00  0.00    +0.002 C 
ATOM     20  C   UNL     1      -5.996 -11.505  19.691  0.00  0.00    +0.000 C 
ENDBRANCH   4   9
TORSDOF 2
ENDMDL
MODEL 3
REMARK VINA RESULT:      -6.0     27.677     30.270
REMARK  Name = 75537125
REMARK  2 active torsions:
REMARK  status: ('A' for Active; 'I' for Inactive)
REMARK    1  A    between atoms: N_4  and  C_9
REMARK    2  A    between atoms: N_5  and  C_11
REMARK                            x       y       z     vdW  Elec       q    Type
REMARK                         _______ _______ _______ _____ _____    ______ ____
ROOT
ATOM      2  O   UNL     1      -6.352 -13.148  16.238  0.00  0.00    -0.252 OA
ATOM      3  N   UNL     1      -7.416 -11.268  17.159  0.00  0.00    -0.278 N 
ATOM      4  N   UNL     1      -5.380 -10.999  16.252  0.00  0.00    -0.281 N 
ATOM      5  N   UNL     1      -9.472  -9.439  17.747  0.00  0.00    -0.296 NA
ATOM      6  C   UNL     1      -7.070  -9.890  17.442  0.00  0.00    +0.109 C 
ATOM      7  C   UNL     1      -5.799  -9.660  16.627  0.00  0.00    +0.133 C 
ATOM      8  C   UNL     1      -8.237  -8.966  17.089  0.00  0.00    +0.108 C 
ATOM     10  C   UNL     1      -8.680 -11.793  17.632  0.00  0.00    +0.125 C 
ATOM     12  C   UNL     1      -9.808 -10.810  17.310  0.00  0.00    +0.104 C 
ATOM     13  C   UNL     1      -6.378 -11.957  16.518  0.00  0.00    +0.305 C 
ENDROOT
BRANCH   5  11
ATOM      1  O   UNL     1     -12.259  -7.218  15.528  0.00  0.00    -0.380 OA
ATOM     11  C   UNL     1     -10.578  -8.529  17.464  0.00  0.00    +0.061 C 
ATOM     18  C   UNL     1     -11.718  -9.253  16.740  0.00  0.00    +0.047 C 
ATOM     19  C   UNL     1     -10.092  -7.345  16.622  0.00  0.00    +0.047 C 
ATOM     21  C   UNL     1     -12.803  -8.262  16.334  0.00  0.00    +0.161 C 
ATOM     22  C   UNL     1     -11.268  -6.460  16.223  0.00  0.00    +0.161 C 
ENDBRANCH   5  11
BRANCH   4   9
ATOM      9  C   UNL     1      -4.141 -11.244  15.553  0.00  0.00    +0.078 C 
ATOM     14  C   UNL     1      -2.959 -10.671  16.339  0.00  0.00    +0.022 C 
ATOM     15  C   UNL     1      -4.197 -10.672  14.134  0.00  0.00    +0.022 C 
ATOM     16  C   UNL     1      -1.640 -10.870  15.596  0.00  0.00    +0.002 C 
ATOM     17  C   UNL     1      -2.877 -10.872  13.394  0.00  0.00    +0.002 C 
ATOM     20  C   UNL     1      -1.699 -10.302  14.181  0.00  0.00    +0.000 C 
ENDBRANCH   4   9
TORSDOF 2
ENDMDL
MODEL 4
REMARK VINA RESULT:      -6.0     27.293     30.270
REMARK  Name = 75537125
REMARK  2 active torsions:
REMARK  status: ('A' for Active; 'I' for Inactive)
REMARK    1  A    between atoms: N_4  and  C_9
REMARK    2  A    between atoms: N_5  and  C_11
REMARK                            x       y       z     vdW  Elec       q    Type
REMARK                         _______ _______ _______ _____ _____    ______ ____
ROOT
ATOM      2  O   UNL     1      -4.484 -12.907  18.337  0.00  0.00    -0.252 OA
ATOM      3  N   UNL     1      -6.323 -11.459  18.539  0.00  0.00    -0.278 N 
ATOM      4  N   UNL     1      -4.890 -11.130  16.841  0.00  0.00    -0.281 N 
ATOM      5  N   UNL     1      -8.979 -10.630  18.948  0.00  0.00    -0.296 NA
ATOM      6  C   UNL     1      -6.783 -10.241  17.905  0.00  0.00    +0.109 C 
ATOM      7  C   UNL     1      -5.949 -10.158  16.628  0.00  0.00    +0.133 C 
ATOM      8  C   UNL     1      -8.295 -10.298  17.682  0.00  0.00    +0.108 C 
ATOM     10  C   UNL     1      -7.019 -11.958  19.706  0.00  0.00    +0.125 C 
ATOM     12  C   UNL     1      -8.530 -11.941  19.460  0.00  0.00    +0.104 C 
ATOM     13  C   UNL     1      -5.146 -11.951  17.957  0.00  0.00    +0.305 C 
ENDROOT
BRANCH   5  11
ATOM      1  O   UNL     1     -12.930  -9.213  18.911  0.00  0.00    -0.380 OA
ATOM     11  C   UNL     1     -10.428 -10.627  18.759  0.00  0.00    +0.061 C 
ATOM     18  C   UNL     1     -10.846  -9.583  17.719  0.00  0.00    +0.047 C 
ATOM     19  C   UNL     1     -11.138 -10.356  20.088  0.00  0.00    +0.047 C 
ATOM     21  C   UNL     1     -12.366  -9.500  17.632  0.00  0.00    +0.161 C 
ATOM     22  C   UNL     1     -12.642 -10.230  19.870  0.00  0.00    +0.161 C 
ENDBRANCH   5  11
BRANCH   4   9
ATOM      9  C   UNL     1      -3.804 -11.294  15.905  0.00  0.00    +0.078 C 
ATOM     14  C   UNL     1      -2.517 -10.682  16.463  0.00  0.00    +0.022 C 
ATOM     15  C   UNL     1      -4.164 -10.690  14.545  0.00  0.00    +0.022 C 
ATOM     16  C   UNL     1      -1.363 -10.795  15.470  0.00  0.00    +0.002 C 
ATOM     17  C   UNL     1      -3.009 -10.805  13.554  0.00  0.00    +0.002 C 
ATOM     20  C   UNL     1      -1.726 -10.196  14.114  0.00  0.00    +0.000 C 
ENDBRANCH   4   9
TORSDOF 2
ENDMDL
MODEL 5
REMARK VINA RESULT:      -6.0     29.185     31.447
REMARK  Name = 75537125
REMARK  2 active torsions:
REMARK  status: ('A' for Active; 'I' for Inactive)
REMARK    1  A    between atoms: N_4  and  C_9
REMARK    2  A    between atoms: N_5  and  C_11
REMARK                            x       y       z     vdW  Elec       q    Type
REMARK                         _______ _______ _______ _____ _____    ______ ____
ROOT
ATOM      2  O   UNL     1      -9.577 -11.478  19.035  0.00  0.00    -0.252 OA
ATOM      3  N   UNL     1     -10.059  -9.446  17.961  0.00  0.00    -0.278 N 
ATOM      4  N   UNL     1      -7.967 -10.251  17.826  0.00  0.00    -0.281 N 
ATOM      5  N   UNL     1     -11.457  -7.567  16.404  0.00  0.00    -0.296 NA
ATOM      6  C   UNL     1      -9.314  -8.411  17.273  0.00  0.00    +0.109 C 
ATOM      7  C   UNL     1      -7.964  -9.065  16.987  0.00  0.00    +0.133 C 
ATOM      8  C   UNL     1     -10.077  -7.942  16.034  0.00  0.00    +0.108 C 
ATOM     10  C   UNL     1     -11.465  -9.241  18.241  0.00  0.00    +0.125 C 
ATOM     12  C   UNL     1     -12.176  -8.716  16.991  0.00  0.00    +0.104 C 
ATOM     13  C   UNL     1      -9.243 -10.512  18.363  0.00  0.00    +0.305 C 
ENDROOT
BRANCH   5  11
ATOM      1  O   UNL     1     -13.766  -4.986  14.030  0.00  0.00    -0.380 OA
ATOM     11  C   UNL     1     -12.176  -7.061  15.237  0.00  0.00    +0.061 C 
ATOM     18  C   UNL     1     -11.570  -5.742  14.746  0.00  0.00    +0.047 C 
ATOM     19  C   UNL     1     -13.658  -6.865  15.568  0.00  0.00    +0.047 C 
ATOM     21  C   UNL     1     -12.412  -5.161  13.615  0.00  0.00    +0.161 C 
ATOM     22  C   UNL     1     -14.384  -6.222  14.391  0.00  0.00    +0.161 C 
ENDBRANCH   5  11
BRANCH   4   9
ATOM      9  C   UNL     1      -6.812 -11.109  17.939  0.00  0.00    +0.078 C 
ATOM     14  C   UNL     1      -6.061 -10.830  19.243  0.00  0.00    +0.022 C 
ATOM     15  C   UNL     1      -5.896 -10.950  16.723  0.00  0.00    +0.022 C 
ATOM     16  C   UNL     1      -4.804 -11.688  19.364  0.00  0.00    +0.002 C 
ATOM     17  C   UNL     1      -4.640 -11.809  16.846  0.00  0.00    +0.002 C 
ATOM     20  C   UNL     1      -3.895 -11.530  18.148  0.00  0.00    +0.000 C 
ENDBRANCH   4   9
TORSDOF 2
ENDMDL
MODEL 6
REMARK VINA RESULT:      -5.9     29.463     32.687
REMARK  Name = 75537125
REMARK  2 active torsions:
REMARK  status: ('A' for Active; 'I' for Inactive)
REMARK    1  A    between atoms: N_4  and  C_9
REMARK    2  A    between atoms: N_5  and  C_11
REMARK                            x       y       z     vdW  Elec       q    Type
REMARK                         _______ _______ _______ _____ _____    ______ ____
ROOT
ATOM      2  O   UNL     1     -16.075   8.085  22.899  0.00  0.00    -0.252 OA
ATOM      3  N   UNL     1     -16.239   5.828  23.529  0.00  0.00    -0.278 N 
ATOM      4  N   UNL     1     -14.612   6.418  22.098  0.00  0.00    -0.281 N 
ATOM      5  N   UNL     1     -16.560   3.584  25.193  0.00  0.00    -0.296 NA
ATOM      6  C   UNL     1     -15.619   4.576  23.146  0.00  0.00    +0.109 C 
ATOM      7  C   UNL     1     -14.381   5.009  22.363  0.00  0.00    +0.133 C 
ATOM      8  C   UNL     1     -15.332   3.725  24.383  0.00  0.00    +0.108 C 
ATOM     10  C   UNL     1     -17.362   5.813  24.442  0.00  0.00    +0.125 C 
ATOM     12  C   UNL     1     -17.054   4.904  25.634  0.00  0.00    +0.104 C 
ATOM     13  C   UNL     1     -15.693   6.924  22.845  0.00  0.00    +0.305 C 
ENDROOT
BRANCH   5  11
ATOM      1  O   UNL     1     -17.091   1.827  28.968  0.00  0.00    -0.380 OA
ATOM     11  C   UNL     1     -16.310   2.722  26.346  0.00  0.00    +0.061 C 
ATOM     18  C   UNL     1     -17.473   1.750  26.570  0.00  0.00    +0.047 C 
ATOM     19  C   UNL     1     -16.085   3.568  27.603  0.00  0.00    +0.047 C 
ATOM     21  C   UNL     1     -17.259   0.954  27.852  0.00  0.00    +0.161 C 
ATOM     22  C   UNL     1     -15.947   2.670  28.828  0.00  0.00    +0.161 C 
ENDBRANCH   5  11
BRANCH   4   9
ATOM      9  C   UNL     1     -13.717   7.198  21.276  0.00  0.00    +0.078 C 
ATOM     14  C   UNL     1     -14.305   7.391  19.876  0.00  0.00    +0.022 C 
ATOM     15  C   UNL     1     -12.332   6.547  21.214  0.00  0.00    +0.022 C 
ATOM     16  C   UNL     1     -13.355   8.168  18.968  0.00  0.00    +0.002 C 
ATOM     17  C   UNL     1     -11.385   7.326  20.305  0.00  0.00    +0.002 C 
ATOM     20  C   UNL     1     -11.974   7.520  18.911  0.00  0.00    +0.000 C 
ENDBRANCH   4   9
TORSDOF 2
ENDMDL
MODEL 7
REMARK VINA RESULT:      -5.7     27.980     30.541
REMARK  Name = 75537125
REMARK  2 active torsions:
REMARK  status: ('A' for Active; 'I' for Inactive)
REMARK    1  A    between atoms: N_4  and  C_9
REMARK    2  A    between atoms: N_5  and  C_11
REMARK                            x       y       z     vdW  Elec       q    Type
REMARK                         _______ _______ _______ _____ _____    ______ ____
ROOT
ATOM      2  O   UNL     1     -14.736   9.187  22.657  0.00  0.00    -0.252 OA
ATOM      3  N   UNL     1     -12.778   8.816  21.413  0.00  0.00    -0.278 N 
ATOM      4  N   UNL     1     -13.958   7.032  22.097  0.00  0.00    -0.281 N 
ATOM      5  N   UNL     1     -10.856   9.138  19.386  0.00  0.00    -0.296 NA
ATOM      6  C   UNL     1     -11.975   7.677  21.021  0.00  0.00    +0.109 C 
ATOM      7  C   UNL     1     -12.890   6.481  21.281  0.00  0.00    +0.133 C 
ATOM      8  C   UNL     1     -11.512   7.828  19.571  0.00  0.00    +0.108 C 
ATOM     10  C   UNL     1     -12.293  10.153  21.141  0.00  0.00    +0.125 C 
ATOM     12  C   UNL     1     -11.785  10.242  19.700  0.00  0.00    +0.104 C 
ATOM     13  C   UNL     1     -13.925   8.441  22.127  0.00  0.00    +0.305 C 
ENDROOT
BRANCH   5  11
ATOM      1  O   UNL     1     -10.908   9.612  15.215  0.00  0.00    -0.380 OA
ATOM     11  C   UNL     1     -10.356   9.266  18.019  0.00  0.00    +0.061 C 
ATOM     18  C   UNL     1     -10.737  10.623  17.418  0.00  0.00    +0.047 C 
ATOM     19  C   UNL     1     -10.902   8.134  17.144  0.00  0.00    +0.047 C 
ATOM     21  C   UNL     1     -10.326  10.687  15.951  0.00  0.00    +0.161 C 
ATOM     22  C   UNL     1     -10.481   8.336  15.692  0.00  0.00    +0.161 C 
ENDBRANCH   5  11
BRANCH   4   9
ATOM      9  C   UNL     1     -14.995   6.201  22.661  0.00  0.00    +0.078 C 
ATOM     14  C   UNL     1     -14.384   5.089  23.518  0.00  0.00    +0.022 C 
ATOM     15  C   UNL     1     -15.891   5.628  21.560  0.00  0.00    +0.022 C 
ATOM     16  C   UNL     1     -15.456   4.163  24.085  0.00  0.00    +0.002 C 
ATOM     17  C   UNL     1     -16.962   4.702  22.130  0.00  0.00    +0.002 C 
ATOM     20  C   UNL     1     -16.351   3.596  22.986  0.00  0.00    +0.000 C 
ENDBRANCH   4   9
TORSDOF 2
ENDMDL
MODEL 8
REMARK VINA RESULT:      -5.7     28.215     30.012
REMARK  Name = 75537125
REMARK  2 active torsions:
REMARK  status: ('A' for Active; 'I' for Inactive)
REMARK    1  A    between atoms: N_4  and  C_9
REMARK    2  A    between atoms: N_5  and  C_11
REMARK                            x       y       z     vdW  Elec       q    Type
REMARK                         _______ _______ _______ _____ _____    ______ ____
ROOT
ATOM      2  O   UNL     1      -3.654 -13.438  15.184  0.00  0.00    -0.252 OA
ATOM      3  N   UNL     1      -4.776 -11.995  16.659  0.00  0.00    -0.278 N 
ATOM      4  N   UNL     1      -4.253 -11.229  14.614  0.00  0.00    -0.281 N 
ATOM      5  N   UNL     1      -6.653 -11.133  18.569  0.00  0.00    -0.296 NA
ATOM      6  C   UNL     1      -5.163 -10.599  16.683  0.00  0.00    +0.109 C 
ATOM      7  C   UNL     1      -5.018 -10.157  15.228  0.00  0.00    +0.133 C 
ATOM      8  C   UNL     1      -6.570 -10.448  17.263  0.00  0.00    +0.108 C 
ATOM     10  C   UNL     1      -4.956 -12.801  17.848  0.00  0.00    +0.125 C 
ATOM     12  C   UNL     1      -6.355 -12.573  18.428  0.00  0.00    +0.104 C 
ATOM     13  C   UNL     1      -4.160 -12.357  15.453  0.00  0.00    +0.305 C 
ENDROOT
BRANCH   5  11
ATOM      1  O   UNL     1     -10.803 -11.479  19.096  0.00  0.00    -0.380 OA
ATOM     11  C   UNL     1      -7.975 -10.943  19.159  0.00  0.00    +0.061 C 
ATOM     18  C   UNL     1      -8.570 -12.276  19.624  0.00  0.00    +0.047 C 
ATOM     19  C   UNL     1      -8.916 -10.273  18.152  0.00  0.00    +0.047 C 
ATOM     21  C   UNL     1     -10.000 -12.078  20.112  0.00  0.00    +0.161 C 
ATOM     22  C   UNL     1     -10.327 -10.185  18.723  0.00  0.00    +0.161 C 
ENDBRANCH   5  11
BRANCH   4   9
ATOM      9  C   UNL     1      -3.797 -11.155  13.247  0.00  0.00    +0.078 C 
ATOM     14  C   UNL     1      -2.377 -10.586  13.184  0.00  0.00    +0.022 C 
ATOM     15  C   UNL     1      -4.766 -10.331  12.395  0.00  0.00    +0.022 C 
ATOM     16  C   UNL     1      -1.889 -10.448  11.744  0.00  0.00    +0.002 C 
ATOM     17  C   UNL     1      -4.275 -10.195  10.956  0.00  0.00    +0.002 C 
ATOM     20  C   UNL     1      -2.859  -9.629  10.897  0.00  0.00    +0.000 C 
ENDBRANCH   4   9
TORSDOF 2
ENDMDL
MODEL 9
REMARK VINA RESULT:      -5.6     19.191     20.964
REMARK  Name = 75537125
REMARK  2 active torsions:
REMARK  status: ('A' for Active; 'I' for Inactive)
REMARK    1  A    between atoms: N_4  and  C_9
REMARK    2  A    between atoms: N_5  and  C_11
REMARK                            x       y       z     vdW  Elec       q    Type
REMARK                         _______ _______ _______ _____ _____    ______ ____
ROOT
ATOM      2  O   UNL     1      11.998   7.546   4.394  0.00  0.00    -0.252 OA
ATOM      3  N   UNL     1      12.164   5.815   2.815  0.00  0.00    -0.278 N 
ATOM      4  N   UNL     1      10.707   5.576   4.507  0.00  0.00    -0.281 N 
ATOM      5  N   UNL     1      12.356   4.561   0.305  0.00  0.00    -0.296 NA
ATOM      6  C   UNL     1      11.642   4.473   2.659  0.00  0.00    +0.109 C 
ATOM      7  C   UNL     1      10.496   4.410   3.667  0.00  0.00    +0.133 C 
ATOM      8  C   UNL     1      11.235   4.227   1.206  0.00  0.00    +0.108 C 
ATOM     10  C   UNL     1      13.165   6.299   1.887  0.00  0.00    +0.125 C 
ATOM     12  C   UNL     1      12.744   5.979   0.451  0.00  0.00    +0.104 C 
ATOM     13  C   UNL     1      11.668   6.450   3.962  0.00  0.00    +0.305 C 
ENDROOT
BRANCH   5  11
ATOM      1  O   UNL     1      10.344   2.838  -2.952  0.00  0.00    -0.380 OA
ATOM     11  C   UNL     1      11.997   4.272  -1.082  0.00  0.00    +0.061 C 
ATOM     18  C   UNL     1      10.546   4.671  -1.370  0.00  0.00    +0.047 C 
ATOM     19  C   UNL     1      12.202   2.785  -1.385  0.00  0.00    +0.047 C 
ATOM     21  C   UNL     1      10.148   4.240  -2.777  0.00  0.00    +0.161 C 
ATOM     22  C   UNL     1      11.712   2.459  -2.792  0.00  0.00    +0.161 C 
ENDBRANCH   5  11
BRANCH   4   9
ATOM      9  C   UNL     1       9.894   5.836   5.671  0.00  0.00    +0.078 C 
ATOM     14  C   UNL     1       9.023   7.076   5.451  0.00  0.00    +0.022 C 
ATOM     15  C   UNL     1      10.765   5.982   6.920  0.00  0.00    +0.022 C 
ATOM     16  C   UNL     1       8.190   7.406   6.686  0.00  0.00    +0.002 C 
ATOM     17  C   UNL     1       9.930   6.312   8.155  0.00  0.00    +0.002 C 
ATOM     20  C   UNL     1       9.061   7.547   7.932  0.00  0.00    +0.000 C 
ENDBRANCH   4   9
TORSDOF 2
ENDMDL
MODEL 10
REMARK VINA RESULT:      -5.6     28.331     30.186
REMARK  Name = 75537125
REMARK  2 active torsions:
REMARK  status: ('A' for Active; 'I' for Inactive)
REMARK    1  A    between atoms: N_4  and  C_9
REMARK    2  A    between atoms: N_5  and  C_11
REMARK                            x       y       z     vdW  Elec       q    Type
REMARK                         _______ _______ _______ _____ _____    ______ ____
ROOT
ATOM      2  O   UNL     1      -2.879 -11.010  16.861  0.00  0.00    -0.252 OA
ATOM      3  N   UNL     1      -5.162 -10.652  17.281  0.00  0.00    -0.278 N 
ATOM      4  N   UNL     1      -4.453 -10.614  15.151  0.00  0.00    -0.281 N 
ATOM      5  N   UNL     1      -7.712 -11.016  18.411  0.00  0.00    -0.296 NA
ATOM      6  C   UNL     1      -6.330 -10.268  16.516  0.00  0.00    +0.109 C 
ATOM      7  C   UNL     1      -5.896 -10.471  15.065  0.00  0.00    +0.133 C 
ATOM      8  C   UNL     1      -7.542 -11.095  16.946  0.00  0.00    +0.108 C 
ATOM     10  C   UNL     1      -5.260 -10.752  18.723  0.00  0.00    +0.125 C 
ATOM     12  C   UNL     1      -6.518 -11.535  19.108  0.00  0.00    +0.104 C 
ATOM     13  C   UNL     1      -4.019 -10.783  16.480  0.00  0.00    +0.305 C 
ENDROOT
BRANCH   5  11
ATOM      1  O   UNL     1     -10.477 -12.907  20.941  0.00  0.00    -0.380 OA
ATOM     11  C   UNL     1      -8.903 -11.753  18.825  0.00  0.00    +0.061 C 
ATOM     18  C   UNL     1      -9.783 -10.906  19.750  0.00  0.00    +0.047 C 
ATOM     19  C   UNL     1      -8.506 -13.055  19.527  0.00  0.00    +0.047 C 
ATOM     21  C   UNL     1     -10.949 -11.735  20.278  0.00  0.00    +0.161 C 
ATOM     22  C   UNL     1      -9.743 -13.764  20.067  0.00  0.00    +0.161 C 
ENDBRANCH   5  11
BRANCH   4   9
ATOM      9  C   UNL     1      -3.625 -10.720  13.973  0.00  0.00    +0.078 C 
ATOM     14  C   UNL     1      -4.376 -10.208  12.742  0.00  0.00    +0.022 C 
ATOM     15  C   UNL     1      -3.145 -12.159  13.775  0.00  0.00    +0.022 C 
ATOM     16  C   UNL     1      -3.542 -10.356  11.472  0.00  0.00    +0.002 C 
ATOM     17  C   UNL     1      -2.311 -12.305  12.504  0.00  0.00    +0.002 C 
ATOM     20  C   UNL     1      -3.061 -11.792  11.278  0.00  0.00    +0.000 C 
ENDBRANCH   4   9
TORSDOF 2
ENDMDL
