MODEL 1
REMARK VINA RESULT:      -7.5      0.000      0.000
REMARK  Name = 7142728
REMARK  5 active torsions:
REMARK  status: ('A' for Active; 'I' for Inactive)
REMARK    1  A    between atoms: O_3  and  C_21
REMARK    2  A    between atoms: O_3  and  C_23
REMARK    3  A    between atoms: N_8  and  C_19
REMARK    4  A    between atoms: C_18  and  C_21
REMARK    5  A    between atoms: C_22  and  C_24
REMARK                            x       y       z     vdW  Elec       q    Type
REMARK                         _______ _______ _______ _____ _____    ______ ____
ROOT
ATOM      1  O   UNL     1      12.123   9.158  16.935  0.00  0.00    -0.266 OA
ATOM      2  O   UNL     1      10.493   9.232  22.036  0.00  0.00    -0.272 OA
ATOM      6  N   UNL     1      12.679   8.460  21.879  0.00  0.00    -0.298 N 
ATOM      7  N   UNL     1      13.461   8.660  18.785  0.00  0.00    -0.310 N 
ATOM      9  C   UNL     1      13.078   6.602  20.258  0.00  0.00    +0.027 C 
ATOM     10  C   UNL     1      14.899   8.165  20.794  0.00  0.00    +0.054 C 
ATOM     11  C   UNL     1      14.574   6.695  20.536  0.00  0.00    +0.018 C 
ATOM     12  C   UNL     1      12.272   7.117  21.463  0.00  0.00    +0.113 C 
ATOM     13  C   UNL     1      12.761   7.383  18.977  0.00  0.00    +0.130 C 
ATOM     14  C   UNL     1      14.128   8.655  22.035  0.00  0.00    +0.117 C 
ATOM     15  C   UNL     1      14.542   9.022  19.594  0.00  0.00    +0.027 A 
ATOM     16  C   UNL     1      15.241  10.139  19.328  0.00  0.00    +0.024 A 
ATOM     17  C   UNL     1      13.056   9.444  17.686  0.00  0.00    +0.273 A 
ATOM     18  C   UNL     1      11.706   9.415  22.174  0.00  0.00    +0.253 C 
ATOM     19  C   UNL     1      13.846  10.692  17.438  0.00  0.00    +0.099 A 
ATOM     20  C   UNL     1      14.883  10.989  18.228  0.00  0.00    +0.030 A 
ENDROOT
BRANCH  19   8
ATOM      4  O   UNL     1      14.693  10.408  14.727  0.00  0.00    -0.266 OA
ATOM      8  N   UNL     1      13.477  11.486  16.392  0.00  0.00    -0.275 N 
ATOM     22  C   UNL     1      13.925  11.295  15.092  0.00  0.00    +0.284 C 
ATOM     33  H   UNL     1      13.003  12.358  16.614  0.00  0.00    +0.155 HD
BRANCH  22  24
ATOM      5  O   UNL     1      12.650  11.709  13.120  0.00  0.00    -0.458 OA
ATOM     24  C   UNL     1      13.395  12.248  14.082  0.00  0.00    +0.189 A 
ATOM     27  C   UNL     1      13.556  13.570  13.996  0.00  0.00    +0.054 A 
ATOM     30  C   UNL     1      12.827  13.931  12.838  0.00  0.00    +0.042 A 
ATOM     32  C   UNL     1      12.295  12.764  12.341  0.00  0.00    +0.196 A 
ENDBRANCH  22  24
ENDBRANCH  19   8
BRANCH  18  21
ATOM     21  C   UNL     1      12.197  10.746  22.685  0.00  0.00    +0.324 C 
BRANCH  21   3
ATOM      3  O   UNL     1      11.157  11.669  22.470  0.00  0.00    -0.483 OA
BRANCH   3  23
ATOM     23  C   UNL     1      11.382  12.676  21.558  0.00  0.00    +0.121 A 
ATOM     25  C   UNL     1      12.407  12.539  20.633  0.00  0.00    +0.045 A 
ATOM     26  C   UNL     1      10.583  13.808  21.581  0.00  0.00    +0.045 A 
ATOM     28  C   UNL     1      12.636  13.560  19.709  0.00  0.00    +0.004 A 
ATOM     29  C   UNL     1      10.812  14.827  20.658  0.00  0.00    +0.004 A 
ATOM     31  C   UNL     1      11.839  14.703  19.722  0.00  0.00    +0.000 A 
ENDBRANCH   3  23
ENDBRANCH  21   3
ENDBRANCH  18  21
TORSDOF 5
ENDMDL
MODEL 2
REMARK VINA RESULT:      -7.3      1.669      2.283
REMARK  Name = 7142728
REMARK  5 active torsions:
REMARK  status: ('A' for Active; 'I' for Inactive)
REMARK    1  A    between atoms: O_3  and  C_21
REMARK    2  A    between atoms: O_3  and  C_23
REMARK    3  A    between atoms: N_8  and  C_19
REMARK    4  A    between atoms: C_18  and  C_21
REMARK    5  A    between atoms: C_22  and  C_24
REMARK                            x       y       z     vdW  Elec       q    Type
REMARK                         _______ _______ _______ _____ _____    ______ ____
ROOT
ATOM      1  O   UNL     1      13.344   8.808  15.624  0.00  0.00    -0.266 OA
ATOM      2  O   UNL     1      10.876   7.911  20.292  0.00  0.00    -0.272 OA
ATOM      6  N   UNL     1      13.140   8.322  20.620  0.00  0.00    -0.298 N 
ATOM      7  N   UNL     1      14.342   8.977  17.730  0.00  0.00    -0.310 N 
ATOM      9  C   UNL     1      14.718   6.953  19.252  0.00  0.00    +0.027 C 
ATOM     10  C   UNL     1      15.390   9.193  20.012  0.00  0.00    +0.054 C 
ATOM     11  C   UNL     1      15.884   7.763  19.806  0.00  0.00    +0.018 C 
ATOM     12  C   UNL     1      13.535   6.966  20.235  0.00  0.00    +0.113 C 
ATOM     13  C   UNL     1      14.331   7.516  17.878  0.00  0.00    +0.130 C 
ATOM     14  C   UNL     1      14.242   9.201  21.040  0.00  0.00    +0.117 C 
ATOM     15  C   UNL     1      14.915   9.800  18.704  0.00  0.00    +0.027 A 
ATOM     16  C   UNL     1      15.018  11.124  18.497  0.00  0.00    +0.024 A 
ATOM     17  C   UNL     1      13.841   9.494  16.518  0.00  0.00    +0.273 A 
ATOM     18  C   UNL     1      11.788   8.663  20.648  0.00  0.00    +0.253 C 
ATOM     19  C   UNL     1      13.953  10.976  16.335  0.00  0.00    +0.099 A 
ATOM     20  C   UNL     1      14.525  11.720  17.287  0.00  0.00    +0.030 A 
ENDROOT
BRANCH  19   8
ATOM      4  O   UNL     1      15.468  11.591  13.996  0.00  0.00    -0.266 OA
ATOM      8  N   UNL     1      13.468  11.517  15.181  0.00  0.00    -0.275 N 
ATOM     22  C   UNL     1      14.258  11.793  14.075  0.00  0.00    +0.284 C 
ATOM     33  H   UNL     1      12.526  11.899  15.207  0.00  0.00    +0.155 HD
BRANCH  22  24
ATOM      5  O   UNL     1      14.090  12.091  11.715  0.00  0.00    -0.458 OA
ATOM     24  C   UNL     1      13.547  12.360  12.900  0.00  0.00    +0.189 A 
ATOM     27  C   UNL     1      12.439  13.103  12.855  0.00  0.00    +0.054 A 
ATOM     30  C   UNL     1      12.239  13.343  11.475  0.00  0.00    +0.042 A 
ATOM     32  C   UNL     1      13.270  12.707  10.823  0.00  0.00    +0.196 A 
ENDBRANCH  22  24
ENDBRANCH  19   8
BRANCH  18  21
ATOM     21  C   UNL     1      11.450  10.046  21.144  0.00  0.00    +0.324 C 
BRANCH  21   3
ATOM      3  O   UNL     1      11.318   9.951  22.542  0.00  0.00    -0.483 OA
BRANCH   3  23
ATOM     23  C   UNL     1      11.121  11.122  23.240  0.00  0.00    +0.121 A 
ATOM     25  C   UNL     1      11.060  11.086  24.626  0.00  0.00    +0.045 A 
ATOM     26  C   UNL     1      10.988  12.315  22.547  0.00  0.00    +0.045 A 
ATOM     28  C   UNL     1      10.860  12.273  25.333  0.00  0.00    +0.004 A 
ATOM     29  C   UNL     1      10.788  13.500  23.253  0.00  0.00    +0.004 A 
ATOM     31  C   UNL     1      10.724  13.479  24.647  0.00  0.00    +0.000 A 
ENDBRANCH   3  23
ENDBRANCH  21   3
ENDBRANCH  18  21
TORSDOF 5
ENDMDL
MODEL 3
REMARK VINA RESULT:      -7.0      3.774      7.001
REMARK  Name = 7142728
REMARK  5 active torsions:
REMARK  status: ('A' for Active; 'I' for Inactive)
REMARK    1  A    between atoms: O_3  and  C_21
REMARK    2  A    between atoms: O_3  and  C_23
REMARK    3  A    between atoms: N_8  and  C_19
REMARK    4  A    between atoms: C_18  and  C_21
REMARK    5  A    between atoms: C_22  and  C_24
REMARK                            x       y       z     vdW  Elec       q    Type
REMARK                         _______ _______ _______ _____ _____    ______ ____
ROOT
ATOM      1  O   UNL     1      15.487   6.203  21.120  0.00  0.00    -0.266 OA
ATOM      2  O   UNL     1      11.578   7.443  17.676  0.00  0.00    -0.272 OA
ATOM      6  N   UNL     1      11.681   8.996  19.401  0.00  0.00    -0.298 N 
ATOM      7  N   UNL     1      14.169   8.131  21.214  0.00  0.00    -0.310 N 
ATOM      9  C   UNL     1      11.660   8.071  21.721  0.00  0.00    +0.027 C 
ATOM     10  C   UNL     1      12.764  10.222  21.276  0.00  0.00    +0.054 C 
ATOM     11  C   UNL     1      11.880   9.475  22.271  0.00  0.00    +0.018 C 
ATOM     12  C   UNL     1      10.973   8.132  20.345  0.00  0.00    +0.113 C 
ATOM     13  C   UNL     1      13.010   7.345  21.658  0.00  0.00    +0.130 C 
ATOM     14  C   UNL     1      12.043  10.325  19.918  0.00  0.00    +0.117 C 
ATOM     15  C   UNL     1      14.099   9.522  21.098  0.00  0.00    +0.027 A 
ATOM     16  C   UNL     1      15.201  10.233  20.803  0.00  0.00    +0.024 A 
ATOM     17  C   UNL     1      15.373   7.425  21.013  0.00  0.00    +0.273 A 
ATOM     18  C   UNL     1      11.889   8.563  18.091  0.00  0.00    +0.253 C 
ATOM     19  C   UNL     1      16.572   8.250  20.662  0.00  0.00    +0.099 A 
ATOM     20  C   UNL     1      16.461   9.581  20.580  0.00  0.00    +0.030 A 
ENDROOT
BRANCH  19   8
ATOM      4  O   UNL     1      18.877   8.345  22.343  0.00  0.00    -0.266 OA
ATOM      8  N   UNL     1      17.753   7.604  20.446  0.00  0.00    -0.275 N 
ATOM     22  C   UNL     1      18.840   7.690  21.304  0.00  0.00    +0.284 C 
ATOM     33  H   UNL     1      17.898   7.194  19.527  0.00  0.00    +0.155 HD
BRANCH  22  24
ATOM      5  O   UNL     1      21.155   7.592  20.739  0.00  0.00    -0.458 OA
ATOM     24  C   UNL     1      20.034   6.896  20.914  0.00  0.00    +0.189 A 
ATOM     27  C   UNL     1      20.150   5.582  20.711  0.00  0.00    +0.054 A 
ATOM     30  C   UNL     1      21.511   5.405  20.364  0.00  0.00    +0.042 A 
ATOM     32  C   UNL     1      22.079   6.658  20.395  0.00  0.00    +0.196 A 
ENDBRANCH  22  24
ENDBRANCH  19   8
BRANCH  18  21
ATOM     21  C   UNL     1      12.541   9.543  17.150  0.00  0.00    +0.324 C 
BRANCH  21   3
ATOM      3  O   UNL     1      13.922   9.504  17.420  0.00  0.00    -0.483 OA
BRANCH   3  23
ATOM     23  C   UNL     1      14.717  10.433  16.788  0.00  0.00    +0.121 A 
ATOM     25  C   UNL     1      15.237  11.493  17.517  0.00  0.00    +0.045 A 
ATOM     26  C   UNL     1      14.984  10.294  15.435  0.00  0.00    +0.045 A 
ATOM     28  C   UNL     1      16.043  12.435  16.876  0.00  0.00    +0.004 A 
ATOM     29  C   UNL     1      15.789  11.235  14.794  0.00  0.00    +0.004 A 
ATOM     31  C   UNL     1      16.319  12.306  15.515  0.00  0.00    +0.000 A 
ENDBRANCH   3  23
ENDBRANCH  21   3
ENDBRANCH  18  21
TORSDOF 5
ENDMDL
MODEL 4
REMARK VINA RESULT:      -6.8      4.042      8.025
REMARK  Name = 7142728
REMARK  5 active torsions:
REMARK  status: ('A' for Active; 'I' for Inactive)
REMARK    1  A    between atoms: O_3  and  C_21
REMARK    2  A    between atoms: O_3  and  C_23
REMARK    3  A    between atoms: N_8  and  C_19
REMARK    4  A    between atoms: C_18  and  C_21
REMARK    5  A    between atoms: C_22  and  C_24
REMARK                            x       y       z     vdW  Elec       q    Type
REMARK                         _______ _______ _______ _____ _____    ______ ____
ROOT
ATOM      1  O   UNL     1      15.555   5.933  19.557  0.00  0.00    -0.266 OA
ATOM      2  O   UNL     1      13.754   8.547  15.244  0.00  0.00    -0.272 OA
ATOM      6  N   UNL     1      13.092   9.620  17.196  0.00  0.00    -0.298 N 
ATOM      7  N   UNL     1      14.412   7.971  19.596  0.00  0.00    -0.310 N 
ATOM      9  C   UNL     1      11.958   8.197  18.906  0.00  0.00    +0.027 C 
ATOM     10  C   UNL     1      13.214  10.187  19.615  0.00  0.00    +0.054 C 
ATOM     11  C   UNL     1      11.942   9.381  19.866  0.00  0.00    +0.018 C 
ATOM     12  C   UNL     1      11.995   8.684  17.447  0.00  0.00    +0.113 C 
ATOM     13  C   UNL     1      13.155   7.299  19.244  0.00  0.00    +0.130 C 
ATOM     14  C   UNL     1      13.215  10.717  18.168  0.00  0.00    +0.117 C 
ATOM     15  C   UNL     1      14.452   9.344  19.856  0.00  0.00    +0.027 A 
ATOM     16  C   UNL     1      15.588   9.918  20.289  0.00  0.00    +0.024 A 
ATOM     17  C   UNL     1      15.546   7.149  19.758  0.00  0.00    +0.273 A 
ATOM     18  C   UNL     1      13.873   9.475  16.049  0.00  0.00    +0.253 C 
ATOM     19  C   UNL     1      16.797   7.830  20.217  0.00  0.00    +0.099 A 
ATOM     20  C   UNL     1      16.783   9.143  20.471  0.00  0.00    +0.030 A 
ENDROOT
BRANCH  19   8
ATOM      4  O   UNL     1      18.751   8.114  22.278  0.00  0.00    -0.266 OA
ATOM      8  N   UNL     1      17.920   7.071  20.373  0.00  0.00    -0.275 N 
ATOM     22  C   UNL     1      18.834   7.259  21.400  0.00  0.00    +0.284 C 
ATOM     33  H   UNL     1      18.184   6.468  19.598  0.00  0.00    +0.155 HD
BRANCH  22  24
ATOM      5  O   UNL     1      20.008   5.423  20.434  0.00  0.00    -0.458 OA
ATOM     24  C   UNL     1      19.984   6.318  21.418  0.00  0.00    +0.189 A 
ATOM     27  C   UNL     1      21.001   6.237  22.279  0.00  0.00    +0.054 A 
ATOM     30  C   UNL     1      21.778   5.159  21.793  0.00  0.00    +0.042 A 
ATOM     32  C   UNL     1      21.133   4.697  20.669  0.00  0.00    +0.196 A 
ENDBRANCH  22  24
ENDBRANCH  19   8
BRANCH  18  21
ATOM     21  C   UNL     1      14.922  10.530  15.807  0.00  0.00    +0.324 C 
BRANCH  21   3
ATOM      3  O   UNL     1      14.657  11.077  14.538  0.00  0.00    -0.483 OA
BRANCH   3  23
ATOM     23  C   UNL     1      15.729  11.564  13.822  0.00  0.00    +0.121 A 
ATOM     25  C   UNL     1      15.607  11.745  12.452  0.00  0.00    +0.045 A 
ATOM     26  C   UNL     1      16.910  11.863  14.484  0.00  0.00    +0.045 A 
ATOM     28  C   UNL     1      16.694  12.238  11.728  0.00  0.00    +0.004 A 
ATOM     29  C   UNL     1      17.995  12.355  13.760  0.00  0.00    +0.004 A 
ATOM     31  C   UNL     1      17.887  12.543  12.381  0.00  0.00    +0.000 A 
ENDBRANCH   3  23
ENDBRANCH  21   3
ENDBRANCH  18  21
TORSDOF 5
ENDMDL
MODEL 5
REMARK VINA RESULT:      -6.7      3.939      7.071
REMARK  Name = 7142728
REMARK  5 active torsions:
REMARK  status: ('A' for Active; 'I' for Inactive)
REMARK    1  A    between atoms: O_3  and  C_21
REMARK    2  A    between atoms: O_3  and  C_23
REMARK    3  A    between atoms: N_8  and  C_19
REMARK    4  A    between atoms: C_18  and  C_21
REMARK    5  A    between atoms: C_22  and  C_24
REMARK                            x       y       z     vdW  Elec       q    Type
REMARK                         _______ _______ _______ _____ _____    ______ ____
ROOT
ATOM      1  O   UNL     1      15.794   6.199  19.019  0.00  0.00    -0.266 OA
ATOM      2  O   UNL     1      14.835  10.890  16.619  0.00  0.00    -0.272 OA
ATOM      6  N   UNL     1      13.209  10.431  18.214  0.00  0.00    -0.298 N 
ATOM      7  N   UNL     1      14.086   7.686  19.599  0.00  0.00    -0.310 N 
ATOM      9  C   UNL     1      12.109   8.194  18.055  0.00  0.00    +0.027 C 
ATOM     10  C   UNL     1      12.276   9.318  20.234  0.00  0.00    +0.054 C 
ATOM     11  C   UNL     1      11.355   8.484  19.346  0.00  0.00    +0.018 C 
ATOM     12  C   UNL     1      12.484   9.505  17.342  0.00  0.00    +0.113 C 
ATOM     13  C   UNL     1      13.342   7.342  18.380  0.00  0.00    +0.130 C 
ATOM     14  C   UNL     1      12.601  10.652  19.534  0.00  0.00    +0.117 C 
ATOM     15  C   UNL     1      13.560   8.572  20.543  0.00  0.00    +0.027 A 
ATOM     16  C   UNL     1      14.203   8.784  21.704  0.00  0.00    +0.024 A 
ATOM     17  C   UNL     1      15.300   7.001  19.813  0.00  0.00    +0.273 A 
ATOM     18  C   UNL     1      14.340  11.090  17.732  0.00  0.00    +0.253 C 
ATOM     19  C   UNL     1      15.998   7.283  21.108  0.00  0.00    +0.099 A 
ATOM     20  C   UNL     1      15.447   8.125  21.989  0.00  0.00    +0.030 A 
ENDROOT
BRANCH  19   8
ATOM      4  O   UNL     1      18.600   8.430  20.864  0.00  0.00    -0.266 OA
ATOM      8  N   UNL     1      17.182   6.651  21.348  0.00  0.00    -0.275 N 
ATOM     22  C   UNL     1      18.419   7.265  21.211  0.00  0.00    +0.284 C 
ATOM     33  H   UNL     1      17.156   5.639  21.451  0.00  0.00    +0.155 HD
BRANCH  22  24
ATOM      5  O   UNL     1      19.978   5.572  20.588  0.00  0.00    -0.458 OA
ATOM     24  C   UNL     1      19.597   6.422  21.540  0.00  0.00    +0.189 A 
ATOM     27  C   UNL     1      20.334   6.389  22.652  0.00  0.00    +0.054 A 
ATOM     30  C   UNL     1      21.311   5.399  22.389  0.00  0.00    +0.042 A 
ATOM     32  C   UNL     1      21.051   4.932  21.121  0.00  0.00    +0.196 A 
ENDBRANCH  22  24
ENDBRANCH  19   8
BRANCH  18  21
ATOM     21  C   UNL     1      14.978  12.098  18.652  0.00  0.00    +0.324 C 
BRANCH  21   3
ATOM      3  O   UNL     1      15.982  11.415  19.364  0.00  0.00    -0.483 OA
BRANCH   3  23
ATOM     23  C   UNL     1      16.132  11.720  20.699  0.00  0.00    +0.121 A 
ATOM     25  C   UNL     1      17.313  11.387  21.345  0.00  0.00    +0.045 A 
ATOM     26  C   UNL     1      15.099  12.354  21.372  0.00  0.00    +0.045 A 
ATOM     28  C   UNL     1      17.463  11.696  22.698  0.00  0.00    +0.004 A 
ATOM     29  C   UNL     1      15.249  12.663  22.723  0.00  0.00    +0.004 A 
ATOM     31  C   UNL     1      16.433  12.333  23.386  0.00  0.00    +0.000 A 
ENDBRANCH   3  23
ENDBRANCH  21   3
ENDBRANCH  18  21
TORSDOF 5
ENDMDL
MODEL 6
REMARK VINA RESULT:      -6.7     27.676     29.495
REMARK  Name = 7142728
REMARK  5 active torsions:
REMARK  status: ('A' for Active; 'I' for Inactive)
REMARK    1  A    between atoms: O_3  and  C_21
REMARK    2  A    between atoms: O_3  and  C_23
REMARK    3  A    between atoms: N_8  and  C_19
REMARK    4  A    between atoms: C_18  and  C_21
REMARK    5  A    between atoms: C_22  and  C_24
REMARK                            x       y       z     vdW  Elec       q    Type
REMARK                         _______ _______ _______ _____ _____    ______ ____
ROOT
ATOM      1  O   UNL     1      -4.358 -14.901  15.376  0.00  0.00    -0.266 OA
ATOM      2  O   UNL     1      -8.294 -11.435  14.293  0.00  0.00    -0.272 OA
ATOM      6  N   UNL     1      -6.776 -10.517  15.794  0.00  0.00    -0.298 N 
ATOM      7  N   UNL     1      -4.466 -12.698  16.150  0.00  0.00    -0.310 N 
ATOM      9  C   UNL     1      -6.245 -11.897  17.807  0.00  0.00    +0.027 C 
ATOM     10  C   UNL     1      -4.579 -10.309  16.943  0.00  0.00    +0.054 C 
ATOM     11  C   UNL     1      -5.198 -10.871  18.221  0.00  0.00    +0.018 C 
ATOM     12  C   UNL     1      -7.333 -11.240  16.939  0.00  0.00    +0.113 C 
ATOM     13  C   UNL     1      -5.548 -13.053  17.078  0.00  0.00    +0.130 C 
ATOM     14  C   UNL     1      -5.666  -9.605  16.108  0.00  0.00    +0.117 C 
ATOM     15  C   UNL     1      -3.930 -11.408  16.122  0.00  0.00    +0.027 A 
ATOM     16  C   UNL     1      -2.864 -11.135  15.349  0.00  0.00    +0.024 A 
ATOM     17  C   UNL     1      -3.931 -13.745  15.372  0.00  0.00    +0.273 A 
ATOM     18  C   UNL     1      -7.362 -10.663  14.536  0.00  0.00    +0.253 C 
ATOM     19  C   UNL     1      -2.760 -13.395  14.507  0.00  0.00    +0.099 A 
ATOM     20  C   UNL     1      -2.270 -12.151  14.526  0.00  0.00    +0.030 A 
ENDROOT
BRANCH  19   8
ATOM      4  O   UNL     1      -3.420 -13.937  11.783  0.00  0.00    -0.266 OA
ATOM      8  N   UNL     1      -2.223 -14.377  13.728  0.00  0.00    -0.275 N 
ATOM     22  C   UNL     1      -2.587 -14.590  12.406  0.00  0.00    +0.284 C 
ATOM     33  H   UNL     1      -1.670 -15.091  14.196  0.00  0.00    +0.155 HD
BRANCH  22  24
ATOM      5  O   UNL     1      -2.437 -16.121  10.585  0.00  0.00    -0.458 OA
ATOM     24  C   UNL     1      -1.874 -15.694  11.712  0.00  0.00    +0.189 A 
ATOM     27  C   UNL     1      -0.747 -16.323  12.052  0.00  0.00    +0.054 A 
ATOM     30  C   UNL     1      -0.557 -17.273  11.020  0.00  0.00    +0.042 A 
ATOM     32  C   UNL     1      -1.612 -17.110  10.152  0.00  0.00    +0.196 A 
ENDBRANCH  22  24
ENDBRANCH  19   8
BRANCH  18  21
ATOM     21  C   UNL     1      -6.796  -9.817  13.424  0.00  0.00    +0.324 C 
BRANCH  21   3
ATOM      3  O   UNL     1      -5.665 -10.499  12.936  0.00  0.00    -0.483 OA
BRANCH   3  23
ATOM     23  C   UNL     1      -5.018  -9.953  11.849  0.00  0.00    +0.121 A 
ATOM     25  C   UNL     1      -3.709 -10.325  11.579  0.00  0.00    +0.045 A 
ATOM     26  C   UNL     1      -5.686  -9.042  11.046  0.00  0.00    +0.045 A 
ATOM     28  C   UNL     1      -3.054  -9.772  10.479  0.00  0.00    +0.004 A 
ATOM     29  C   UNL     1      -5.030  -8.489   9.946  0.00  0.00    +0.004 A 
ATOM     31  C   UNL     1      -3.714  -8.855   9.662  0.00  0.00    +0.000 A 
ENDBRANCH   3  23
ENDBRANCH  21   3
ENDBRANCH  18  21
TORSDOF 5
ENDMDL
MODEL 7
REMARK VINA RESULT:      -6.6     12.720     15.753
REMARK  Name = 7142728
REMARK  5 active torsions:
REMARK  status: ('A' for Active; 'I' for Inactive)
REMARK    1  A    between atoms: O_3  and  C_21
REMARK    2  A    between atoms: O_3  and  C_23
REMARK    3  A    between atoms: N_8  and  C_19
REMARK    4  A    between atoms: C_18  and  C_21
REMARK    5  A    between atoms: C_22  and  C_24
REMARK                            x       y       z     vdW  Elec       q    Type
REMARK                         _______ _______ _______ _____ _____    ______ ____
ROOT
ATOM      1  O   UNL     1      14.116   6.569   7.299  0.00  0.00    -0.266 OA
ATOM      2  O   UNL     1      10.273   3.728   4.880  0.00  0.00    -0.272 OA
ATOM      6  N   UNL     1       9.591   5.925   5.212  0.00  0.00    -0.298 N 
ATOM      7  N   UNL     1      12.093   7.435   6.511  0.00  0.00    -0.310 N 
ATOM      9  C   UNL     1       9.829   6.815   7.534  0.00  0.00    +0.027 C 
ATOM     10  C   UNL     1       9.923   8.357   5.621  0.00  0.00    +0.054 C 
ATOM     11  C   UNL     1       9.388   8.188   7.041  0.00  0.00    +0.018 C 
ATOM     12  C   UNL     1       9.268   5.709   6.623  0.00  0.00    +0.113 C 
ATOM     13  C   UNL     1      11.361   6.780   7.604  0.00  0.00    +0.130 C 
ATOM     14  C   UNL     1       9.313   7.278   4.706  0.00  0.00    +0.117 C 
ATOM     15  C   UNL     1      11.437   8.260   5.593  0.00  0.00    +0.027 A 
ATOM     16  C   UNL     1      12.142   8.940   4.672  0.00  0.00    +0.024 A 
ATOM     17  C   UNL     1      13.493   7.271   6.501  0.00  0.00    +0.273 A 
ATOM     18  C   UNL     1      10.045   4.858   4.437  0.00  0.00    +0.253 C 
ATOM     19  C   UNL     1      14.239   8.026   5.444  0.00  0.00    +0.099 A 
ATOM     20  C   UNL     1      13.571   8.818   4.598  0.00  0.00    +0.030 A 
ENDROOT
BRANCH  19   8
ATOM      4  O   UNL     1      16.169   9.953   6.284  0.00  0.00    -0.266 OA
ATOM      8  N   UNL     1      15.594   7.884   5.392  0.00  0.00    -0.275 N 
ATOM     22  C   UNL     1      16.483   8.861   5.817  0.00  0.00    +0.284 C 
ATOM     33  H   UNL     1      15.959   7.105   4.848  0.00  0.00    +0.155 HD
BRANCH  22  24
ATOM      5  O   UNL     1      18.315   8.076   4.509  0.00  0.00    -0.458 OA
ATOM     24  C   UNL     1      17.923   8.514   5.703  0.00  0.00    +0.189 A 
ATOM     27  C   UNL     1      18.888   8.578   6.623  0.00  0.00    +0.054 A 
ATOM     30  C   UNL     1      20.044   8.127   5.944  0.00  0.00    +0.042 A 
ATOM     32  C   UNL     1      19.643   7.833   4.661  0.00  0.00    +0.196 A 
ENDBRANCH  22  24
ENDBRANCH  19   8
BRANCH  18  21
ATOM     21  C   UNL     1      10.267   5.133   2.971  0.00  0.00    +0.324 C 
BRANCH  21   3
ATOM      3  O   UNL     1      11.023   4.056   2.470  0.00  0.00    -0.483 OA
BRANCH   3  23
ATOM     23  C   UNL     1      12.321   4.318   2.089  0.00  0.00    +0.121 A 
ATOM     25  C   UNL     1      12.814   5.610   2.193  0.00  0.00    +0.045 A 
ATOM     26  C   UNL     1      13.111   3.285   1.608  0.00  0.00    +0.045 A 
ATOM     28  C   UNL     1      14.128   5.874   1.806  0.00  0.00    +0.004 A 
ATOM     29  C   UNL     1      14.424   3.549   1.222  0.00  0.00    +0.004 A 
ATOM     31  C   UNL     1      14.933   4.845   1.321  0.00  0.00    +0.000 A 
ENDBRANCH   3  23
ENDBRANCH  21   3
ENDBRANCH  18  21
TORSDOF 5
ENDMDL
MODEL 8
REMARK VINA RESULT:      -6.5     27.334     28.831
REMARK  Name = 7142728
REMARK  5 active torsions:
REMARK  status: ('A' for Active; 'I' for Inactive)
REMARK    1  A    between atoms: O_3  and  C_21
REMARK    2  A    between atoms: O_3  and  C_23
REMARK    3  A    between atoms: N_8  and  C_19
REMARK    4  A    between atoms: C_18  and  C_21
REMARK    5  A    between atoms: C_22  and  C_24
REMARK                            x       y       z     vdW  Elec       q    Type
REMARK                         _______ _______ _______ _____ _____    ______ ____
ROOT
ATOM      1  O   UNL     1      -4.764 -12.649   9.506  0.00  0.00    -0.266 OA
ATOM      2  O   UNL     1      -6.190 -12.505  14.667  0.00  0.00    -0.272 OA
ATOM      6  N   UNL     1      -3.897 -12.207  14.435  0.00  0.00    -0.298 N 
ATOM      7  N   UNL     1      -3.329 -12.174  11.289  0.00  0.00    -0.310 N 
ATOM      9  C   UNL     1      -2.697 -13.912  13.060  0.00  0.00    +0.027 C 
ATOM     10  C   UNL     1      -1.805 -11.627  13.219  0.00  0.00    +0.054 C 
ATOM     11  C   UNL     1      -1.413 -13.102  13.195  0.00  0.00    +0.018 C 
ATOM     12  C   UNL     1      -3.638 -13.635  14.245  0.00  0.00    +0.113 C 
ATOM     13  C   UNL     1      -3.354 -13.580  11.714  0.00  0.00    +0.130 C 
ATOM     14  C   UNL     1      -2.702 -11.349  14.441  0.00  0.00    +0.117 C 
ATOM     15  C   UNL     1      -2.532 -11.233  11.947  0.00  0.00    +0.027 A 
ATOM     16  C   UNL     1      -2.433  -9.980  11.471  0.00  0.00    +0.024 A 
ATOM     17  C   UNL     1      -4.063 -11.851  10.130  0.00  0.00    +0.273 A 
ATOM     18  C   UNL     1      -5.199 -11.768  14.676  0.00  0.00    +0.253 C 
ATOM     19  C   UNL     1      -3.946 -10.438   9.646  0.00  0.00    +0.099 A 
ATOM     20  C   UNL     1      -3.157  -9.577  10.298  0.00  0.00    +0.030 A 
ENDROOT
BRANCH  19   8
ATOM      4  O   UNL     1      -6.621  -9.444   9.596  0.00  0.00    -0.266 OA
ATOM      8  N   UNL     1      -4.651 -10.081   8.535  0.00  0.00    -0.275 N 
ATOM     22  C   UNL     1      -5.953  -9.603   8.576  0.00  0.00    +0.284 C 
ATOM     33  H   UNL     1      -4.267 -10.353   7.633  0.00  0.00    +0.155 HD
BRANCH  22  24
ATOM      5  O   UNL     1      -7.481  -8.294   7.297  0.00  0.00    -0.458 OA
ATOM     24  C   UNL     1      -6.549  -9.243   7.263  0.00  0.00    +0.189 A 
ATOM     27  C   UNL     1      -6.288  -9.733   6.050  0.00  0.00    +0.054 A 
ATOM     30  C   UNL     1      -7.155  -9.013   5.194  0.00  0.00    +0.042 A 
ATOM     32  C   UNL     1      -7.860  -8.150   6.000  0.00  0.00    +0.196 A 
ENDBRANCH  22  24
ENDBRANCH  19   8
BRANCH  18  21
ATOM     21  C   UNL     1      -5.376 -10.298  14.956  0.00  0.00    +0.324 C 
BRANCH  21   3
ATOM      3  O   UNL     1      -4.684 -10.029  16.151  0.00  0.00    -0.483 OA
BRANCH   3  23
ATOM     23  C   UNL     1      -5.246 -10.482  17.324  0.00  0.00    +0.121 A 
ATOM     25  C   UNL     1      -4.500 -11.293  18.167  0.00  0.00    +0.045 A 
ATOM     26  C   UNL     1      -6.546 -10.122  17.640  0.00  0.00    +0.045 A 
ATOM     28  C   UNL     1      -5.070 -11.753  19.355  0.00  0.00    +0.004 A 
ATOM     29  C   UNL     1      -7.116 -10.581  18.827  0.00  0.00    +0.004 A 
ATOM     31  C   UNL     1      -6.377 -11.397  19.685  0.00  0.00    +0.000 A 
ENDBRANCH   3  23
ENDBRANCH  21   3
ENDBRANCH  18  21
TORSDOF 5
ENDMDL
MODEL 9
REMARK VINA RESULT:      -6.5      9.074     12.707
REMARK  Name = 7142728
REMARK  5 active torsions:
REMARK  status: ('A' for Active; 'I' for Inactive)
REMARK    1  A    between atoms: O_3  and  C_21
REMARK    2  A    between atoms: O_3  and  C_23
REMARK    3  A    between atoms: N_8  and  C_19
REMARK    4  A    between atoms: C_18  and  C_21
REMARK    5  A    between atoms: C_22  and  C_24
REMARK                            x       y       z     vdW  Elec       q    Type
REMARK                         _______ _______ _______ _____ _____    ______ ____
ROOT
ATOM      1  O   UNL     1      12.857   7.676   3.930  0.00  0.00    -0.266 OA
ATOM      2  O   UNL     1       9.299  10.993   6.170  0.00  0.00    -0.272 OA
ATOM      6  N   UNL     1       8.854   8.788   6.755  0.00  0.00    -0.298 N 
ATOM      7  N   UNL     1      11.186   7.043   5.437  0.00  0.00    -0.310 N 
ATOM      9  C   UNL     1       8.693   7.159   4.869  0.00  0.00    +0.027 C 
ATOM     10  C   UNL     1       9.404   6.385   7.092  0.00  0.00    +0.054 C 
ATOM     11  C   UNL     1       8.554   6.023   5.876  0.00  0.00    +0.018 C 
ATOM     12  C   UNL     1       8.205   8.484   5.479  0.00  0.00    +0.113 C 
ATOM     13  C   UNL     1      10.154   7.240   4.410  0.00  0.00    +0.130 C 
ATOM     14  C   UNL     1       8.873   7.685   7.727  0.00  0.00    +0.117 C 
ATOM     15  C   UNL     1      10.862   6.558   6.707  0.00  0.00    +0.027 A 
ATOM     16  C   UNL     1      11.833   6.276   7.592  0.00  0.00    +0.024 A 
ATOM     17  C   UNL     1      12.521   7.267   5.043  0.00  0.00    +0.273 A 
ATOM     18  C   UNL     1       9.323  10.079   7.000  0.00  0.00    +0.253 C 
ATOM     19  C   UNL     1      13.572   6.963   6.065  0.00  0.00    +0.099 A 
ATOM     20  C   UNL     1      13.215   6.485   7.262  0.00  0.00    +0.030 A 
ENDROOT
BRANCH  19   8
ATOM      4  O   UNL     1      15.047   9.369   6.495  0.00  0.00    -0.266 OA
ATOM      8  N   UNL     1      14.876   7.180   5.728  0.00  0.00    -0.275 N 
ATOM     22  C   UNL     1      15.539   8.376   5.964  0.00  0.00    +0.284 C 
ATOM     33  H   UNL     1      15.316   6.499   5.114  0.00  0.00    +0.155 HD
BRANCH  22  24
ATOM      5  O   UNL     1      17.221   7.930   4.335  0.00  0.00    -0.458 OA
ATOM     24  C   UNL     1      16.965   8.415   5.547  0.00  0.00    +0.189 A 
ATOM     27  C   UNL     1      18.031   8.866   6.210  0.00  0.00    +0.054 A 
ATOM     30  C   UNL     1      19.109   8.648   5.320  0.00  0.00    +0.042 A 
ATOM     32  C   UNL     1      18.564   8.077   4.193  0.00  0.00    +0.196 A 
ENDBRANCH  22  24
ENDBRANCH  19   8
BRANCH  18  21
ATOM     21  C   UNL     1       9.894  10.343   8.369  0.00  0.00    +0.324 C 
BRANCH  21   3
ATOM      3  O   UNL     1       9.157  11.411   8.914  0.00  0.00    -0.483 OA
BRANCH   3  23
ATOM     23  C   UNL     1       9.430  11.769  10.216  0.00  0.00    +0.121 A 
ATOM     25  C   UNL     1      10.740  11.739  10.670  0.00  0.00    +0.045 A 
ATOM     26  C   UNL     1       8.390  12.152  11.049  0.00  0.00    +0.045 A 
ATOM     28  C   UNL     1      11.016  12.102  11.989  0.00  0.00    +0.004 A 
ATOM     29  C   UNL     1       8.666  12.514  12.367  0.00  0.00    +0.004 A 
ATOM     31  C   UNL     1       9.980  12.489  12.837  0.00  0.00    +0.000 A 
ENDBRANCH   3  23
ENDBRANCH  21   3
ENDBRANCH  18  21
TORSDOF 5
ENDMDL
MODEL 10
REMARK VINA RESULT:      -6.4     12.794     16.178
REMARK  Name = 7142728
REMARK  5 active torsions:
REMARK  status: ('A' for Active; 'I' for Inactive)
REMARK    1  A    between atoms: O_3  and  C_21
REMARK    2  A    between atoms: O_3  and  C_23
REMARK    3  A    between atoms: N_8  and  C_19
REMARK    4  A    between atoms: C_18  and  C_21
REMARK    5  A    between atoms: C_22  and  C_24
REMARK                            x       y       z     vdW  Elec       q    Type
REMARK                         _______ _______ _______ _____ _____    ______ ____
ROOT
ATOM      1  O   UNL     1       9.586   7.127   2.155  0.00  0.00    -0.266 OA
ATOM      2  O   UNL     1      12.633   9.758   5.688  0.00  0.00    -0.272 OA
ATOM      6  N   UNL     1      11.011   8.497   6.774  0.00  0.00    -0.298 N 
ATOM      7  N   UNL     1       9.444   6.916   4.479  0.00  0.00    -0.310 N 
ATOM      9  C   UNL     1       8.659   8.822   5.998  0.00  0.00    +0.027 C 
ATOM     10  C   UNL     1       9.332   6.673   6.984  0.00  0.00    +0.054 C 
ATOM     11  C   UNL     1       8.208   7.705   6.931  0.00  0.00    +0.018 C 
ATOM     12  C   UNL     1       9.951   9.474   6.521  0.00  0.00    +0.113 C 
ATOM     13  C   UNL     1       8.835   8.249   4.586  0.00  0.00    +0.130 C 
ATOM     14  C   UNL     1      10.605   7.323   7.561  0.00  0.00    +0.117 C 
ATOM     15  C   UNL     1       9.621   6.108   5.606  0.00  0.00    +0.027 A 
ATOM     16  C   UNL     1      10.073   4.849   5.471  0.00  0.00    +0.024 A 
ATOM     17  C   UNL     1       9.742   6.459   3.179  0.00  0.00    +0.273 A 
ATOM     18  C   UNL     1      12.311   8.765   6.348  0.00  0.00    +0.253 C 
ATOM     19  C   UNL     1      10.265   5.060   3.074  0.00  0.00    +0.099 A 
ATOM     20  C   UNL     1      10.401   4.318   4.178  0.00  0.00    +0.030 A 
ENDROOT
BRANCH  19   8
ATOM      4  O   UNL     1      12.884   4.862   1.956  0.00  0.00    -0.266 OA
ATOM      8  N   UNL     1      10.578   4.585   1.834  0.00  0.00    -0.275 N 
ATOM     22  C   UNL     1      11.875   4.513   1.347  0.00  0.00    +0.284 C 
ATOM     33  H   UNL     1       9.810   4.452   1.180  0.00  0.00    +0.155 HD
BRANCH  22  24
ATOM      5  O   UNL     1      10.886   3.781  -0.695  0.00  0.00    -0.458 OA
ATOM     24  C   UNL     1      12.020   3.944  -0.018  0.00  0.00    +0.189 A 
ATOM     27  C   UNL     1      13.123   3.571  -0.669  0.00  0.00    +0.054 A 
ATOM     30  C   UNL     1      12.646   3.110  -1.920  0.00  0.00    +0.042 A 
ATOM     32  C   UNL     1      11.279   3.259  -1.886  0.00  0.00    +0.196 A 
ENDBRANCH  22  24
ENDBRANCH  19   8
BRANCH  18  21
ATOM     21  C   UNL     1      13.368   7.759   6.726  0.00  0.00    +0.324 C 
BRANCH  21   3
ATOM      3  O   UNL     1      13.928   7.291   5.523  0.00  0.00    -0.483 OA
BRANCH   3  23
ATOM     23  C   UNL     1      15.197   7.723   5.205  0.00  0.00    +0.121 A 
ATOM     25  C   UNL     1      15.974   8.328   6.181  0.00  0.00    +0.045 A 
ATOM     26  C   UNL     1      15.673   7.548   3.915  0.00  0.00    +0.045 A 
ATOM     28  C   UNL     1      17.259   8.766   5.858  0.00  0.00    +0.004 A 
ATOM     29  C   UNL     1      16.957   7.985   3.593  0.00  0.00    +0.004 A 
ATOM     31  C   UNL     1      17.750   8.595   4.565  0.00  0.00    +0.000 A 
ENDBRANCH   3  23
ENDBRANCH  21   3
ENDBRANCH  18  21
TORSDOF 5
ENDMDL
