MODEL 1
REMARK VINA RESULT:      -6.5      0.000      0.000
REMARK  Name = 75536741
REMARK  9 active torsions:
REMARK  status: ('A' for Active; 'I' for Inactive)
REMARK    1  A    between atoms: O_3  and  C_9
REMARK    2  A    between atoms: N_5  and  C_8
REMARK    3  A    between atoms: N_5  and  C_13
REMARK    4  A    between atoms: N_6  and  C_12
REMARK    5  A    between atoms: N_7  and  C_16
REMARK    6  A    between atoms: C_10  and  C_12
REMARK    7  A    between atoms: C_13  and  C_14
REMARK    8  A    between atoms: C_16  and  C_18
REMARK    9  A    between atoms: C_16  and  C_19
REMARK                            x       y       z     vdW  Elec       q    Type
REMARK                         _______ _______ _______ _____ _____    ______ ____
ROOT
ATOM      2  O   UNL     1      10.859   8.828  20.137  0.00  0.00    -0.371 OA
ATOM      8  C   UNL     1      12.421   7.148  19.522  0.00  0.00    +0.111 C 
ATOM      9  C   UNL     1      12.273   7.156  21.031  0.00  0.00    +0.164 C 
ATOM     10  C   UNL     1      10.928   7.852  21.190  0.00  0.00    +0.165 C 
ATOM     11  C   UNL     1      11.864   8.514  19.157  0.00  0.00    +0.181 C 
ENDROOT
BRANCH   9   3
ATOM      3  O   UNL     1      12.261   5.855  21.586  0.00  0.00    -0.388 OA
ATOM     23  H   UNL     1      13.010   5.358  21.216  0.00  0.00    +0.210 HD
ENDBRANCH   9   3
BRANCH   8   5
ATOM      5  N   UNL     1      13.790   6.956  19.070  0.00  0.00    -0.304 NA
ATOM     22  H   UNL     1      13.827   7.089  18.059  0.00  0.00    +0.123 HD
BRANCH   5  13
ATOM     13  C   UNL     1      14.692   7.908  19.708  0.00  0.00    +0.124 C 
BRANCH  13  14
ATOM      1  S   UNL     1      17.129   8.053  21.039  0.00  0.00    -0.100 S 
ATOM     14  C   UNL     1      16.068   7.331  19.905  0.00  0.00    +0.004 A 
ATOM     17  C   UNL     1      16.641   6.247  19.278  0.00  0.00    +0.012 A 
ATOM     20  C   UNL     1      17.970   6.007  19.734  0.00  0.00    +0.008 A 
ATOM     21  C   UNL     1      18.361   6.916  20.692  0.00  0.00    +0.045 A 
ENDBRANCH  13  14
ENDBRANCH   5  13
ENDBRANCH   8   5
BRANCH  10  12
ATOM     12  C   UNL     1      10.761   8.536  22.536  0.00  0.00    +0.140 C 
BRANCH  12   6
ATOM      4  O   UNL     1      11.109  10.563  24.560  0.00  0.00    -0.253 OA
ATOM      6  N   UNL     1      10.578   9.951  22.383  0.00  0.00    -0.297 N 
ATOM      7  N   UNL     1      10.523  12.175  22.997  0.00  0.00    -0.297 N 
ATOM     15  C   UNL     1      10.768  10.870  23.419  0.00  0.00    +0.300 C 
ATOM     24  H   UNL     1      10.281  10.301  21.477  0.00  0.00    +0.150 HD
ATOM     25  H   UNL     1      10.319  12.335  22.015  0.00  0.00    +0.150 HD
BRANCH   7  16
ATOM     16  C   UNL     1      10.647  13.316  23.873  0.00  0.00    +0.068 C 
ATOM     18  C   UNL     1       9.606  14.370  23.520  0.00  0.00    +0.027 C 
ATOM     19  C   UNL     1      12.057  13.890  23.807  0.00  0.00    +0.027 C 
ENDBRANCH   7  16
ENDBRANCH  12   6
ENDBRANCH  10  12
TORSDOF 7
ENDMDL
MODEL 2
REMARK VINA RESULT:      -6.5      1.559      1.816
REMARK  Name = 75536741
REMARK  9 active torsions:
REMARK  status: ('A' for Active; 'I' for Inactive)
REMARK    1  A    between atoms: O_3  and  C_9
REMARK    2  A    between atoms: N_5  and  C_8
REMARK    3  A    between atoms: N_5  and  C_13
REMARK    4  A    between atoms: N_6  and  C_12
REMARK    5  A    between atoms: N_7  and  C_16
REMARK    6  A    between atoms: C_10  and  C_12
REMARK    7  A    between atoms: C_13  and  C_14
REMARK    8  A    between atoms: C_16  and  C_18
REMARK    9  A    between atoms: C_16  and  C_19
REMARK                            x       y       z     vdW  Elec       q    Type
REMARK                         _______ _______ _______ _____ _____    ______ ____
ROOT
ATOM      2  O   UNL     1      10.616   8.465  19.763  0.00  0.00    -0.371 OA
ATOM      8  C   UNL     1      12.573   7.258  19.166  0.00  0.00    +0.111 C 
ATOM      9  C   UNL     1      12.434   7.258  20.677  0.00  0.00    +0.164 C 
ATOM     10  C   UNL     1      10.951   7.567  20.835  0.00  0.00    +0.165 C 
ATOM     11  C   UNL     1      11.665   8.415  18.781  0.00  0.00    +0.181 C 
ENDROOT
BRANCH   9   3
ATOM      3  O   UNL     1      12.777   6.015  21.257  0.00  0.00    -0.388 OA
ATOM     23  H   UNL     1      13.279   6.185  22.071  0.00  0.00    +0.210 HD
ENDBRANCH   9   3
BRANCH   8   5
ATOM      5  N   UNL     1      13.940   7.435  18.706  0.00  0.00    -0.304 NA
ATOM     22  H   UNL     1      13.926   7.887  17.791  0.00  0.00    +0.123 HD
BRANCH   5  13
ATOM     13  C   UNL     1      14.705   8.261  19.633  0.00  0.00    +0.124 C 
BRANCH  13  14
ATOM      1  S   UNL     1      17.054   8.408  21.113  0.00  0.00    -0.100 S 
ATOM     14  C   UNL     1      16.035   7.642  19.970  0.00  0.00    +0.004 A 
ATOM     17  C   UNL     1      16.592   6.485  19.474  0.00  0.00    +0.012 A 
ATOM     20  C   UNL     1      17.875   6.225  20.038  0.00  0.00    +0.008 A 
ATOM     21  C   UNL     1      18.248   7.192  20.944  0.00  0.00    +0.045 A 
ENDBRANCH  13  14
ENDBRANCH   5  13
ENDBRANCH   8   5
BRANCH  10  12
ATOM     12  C   UNL     1      10.611   8.209  22.169  0.00  0.00    +0.140 C 
BRANCH  12   6
ATOM      4  O   UNL     1      11.054  11.057  22.316  0.00  0.00    -0.253 OA
ATOM      6  N   UNL     1      11.748   8.879  22.731  0.00  0.00    -0.297 N 
ATOM      7  N   UNL     1      13.084  10.652  23.363  0.00  0.00    -0.297 N 
ATOM     15  C   UNL     1      11.886  10.270  22.762  0.00  0.00    +0.300 C 
ATOM     24  H   UNL     1      12.498   8.312  23.112  0.00  0.00    +0.150 HD
ATOM     25  H   UNL     1      13.672   9.930  23.769  0.00  0.00    +0.150 HD
BRANCH   7  16
ATOM     16  C   UNL     1      13.473  12.033  23.523  0.00  0.00    +0.068 C 
ATOM     18  C   UNL     1      14.966  12.196  23.268  0.00  0.00    +0.027 C 
ATOM     19  C   UNL     1      13.092  12.539  24.909  0.00  0.00    +0.027 C 
ENDBRANCH   7  16
ENDBRANCH  12   6
ENDBRANCH  10  12
TORSDOF 7
ENDMDL
MODEL 3
REMARK VINA RESULT:      -6.0      1.946      2.561
REMARK  Name = 75536741
REMARK  9 active torsions:
REMARK  status: ('A' for Active; 'I' for Inactive)
REMARK    1  A    between atoms: O_3  and  C_9
REMARK    2  A    between atoms: N_5  and  C_8
REMARK    3  A    between atoms: N_5  and  C_13
REMARK    4  A    between atoms: N_6  and  C_12
REMARK    5  A    between atoms: N_7  and  C_16
REMARK    6  A    between atoms: C_10  and  C_12
REMARK    7  A    between atoms: C_13  and  C_14
REMARK    8  A    between atoms: C_16  and  C_18
REMARK    9  A    between atoms: C_16  and  C_19
REMARK                            x       y       z     vdW  Elec       q    Type
REMARK                         _______ _______ _______ _____ _____    ______ ____
ROOT
ATOM      2  O   UNL     1      13.513   8.098  18.602  0.00  0.00    -0.371 OA
ATOM      8  C   UNL     1      14.512   6.630  20.181  0.00  0.00    +0.111 C 
ATOM      9  C   UNL     1      13.137   7.030  20.679  0.00  0.00    +0.164 C 
ATOM     10  C   UNL     1      12.475   7.483  19.385  0.00  0.00    +0.165 C 
ATOM     11  C   UNL     1      14.786   7.715  19.152  0.00  0.00    +0.181 C 
ENDROOT
BRANCH   9   3
ATOM      3  O   UNL     1      12.439   5.955  21.279  0.00  0.00    -0.388 OA
ATOM     23  H   UNL     1      12.696   5.909  22.215  0.00  0.00    +0.210 HD
ENDBRANCH   9   3
BRANCH   8   5
ATOM      5  N   UNL     1      15.520   6.576  21.227  0.00  0.00    -0.304 NA
ATOM     22  H   UNL     1      15.997   5.676  21.180  0.00  0.00    +0.123 HD
BRANCH   5  13
ATOM     13  C   UNL     1      16.500   7.644  21.069  0.00  0.00    +0.124 C 
BRANCH  13  14
ATOM      1  S   UNL     1      19.126   7.855  21.959  0.00  0.00    -0.100 S 
ATOM     14  C   UNL     1      17.906   7.110  21.015  0.00  0.00    +0.004 A 
ATOM     17  C   UNL     1      18.394   6.052  20.281  0.00  0.00    +0.012 A 
ATOM     20  C   UNL     1      19.789   5.851  20.495  0.00  0.00    +0.008 A 
ATOM     21  C   UNL     1      20.313   6.762  21.385  0.00  0.00    +0.045 A 
ENDBRANCH  13  14
ENDBRANCH   5  13
ENDBRANCH   8   5
BRANCH  10  12
ATOM     12  C   UNL     1      11.343   8.472  19.603  0.00  0.00    +0.140 C 
BRANCH  12   6
ATOM      4  O   UNL     1      12.078  11.051  20.668  0.00  0.00    -0.253 OA
ATOM      6  N   UNL     1      11.274   8.892  20.973  0.00  0.00    -0.297 N 
ATOM      7  N   UNL     1      11.484  10.307  22.784  0.00  0.00    -0.297 N 
ATOM     15  C   UNL     1      11.652  10.166  21.408  0.00  0.00    +0.300 C 
ATOM     24  H   UNL     1      10.948   8.224  21.664  0.00  0.00    +0.150 HD
ATOM     25  H   UNL     1      11.055   9.545  23.299  0.00  0.00    +0.150 HD
BRANCH   7  16
ATOM     16  C   UNL     1      11.800  11.527  23.489  0.00  0.00    +0.068 C 
ATOM     18  C   UNL     1      13.293  11.596  23.786  0.00  0.00    +0.027 C 
ATOM     19  C   UNL     1      10.978  11.634  24.768  0.00  0.00    +0.027 C 
ENDBRANCH   7  16
ENDBRANCH  12   6
ENDBRANCH  10  12
TORSDOF 7
ENDMDL
MODEL 4
REMARK VINA RESULT:      -5.6      3.662      7.097
REMARK  Name = 75536741
REMARK  9 active torsions:
REMARK  status: ('A' for Active; 'I' for Inactive)
REMARK    1  A    between atoms: O_3  and  C_9
REMARK    2  A    between atoms: N_5  and  C_8
REMARK    3  A    between atoms: N_5  and  C_13
REMARK    4  A    between atoms: N_6  and  C_12
REMARK    5  A    between atoms: N_7  and  C_16
REMARK    6  A    between atoms: C_10  and  C_12
REMARK    7  A    between atoms: C_13  and  C_14
REMARK    8  A    between atoms: C_16  and  C_18
REMARK    9  A    between atoms: C_16  and  C_19
REMARK                            x       y       z     vdW  Elec       q    Type
REMARK                         _______ _______ _______ _____ _____    ______ ____
ROOT
ATOM      2  O   UNL     1      14.784   8.275  19.783  0.00  0.00    -0.371 OA
ATOM      8  C   UNL     1      13.152   7.694  21.409  0.00  0.00    +0.111 C 
ATOM      9  C   UNL     1      12.632   7.326  20.032  0.00  0.00    +0.164 C 
ATOM     10  C   UNL     1      13.929   7.257  19.237  0.00  0.00    +0.165 C 
ATOM     11  C   UNL     1      14.257   8.678  21.059  0.00  0.00    +0.181 C 
ENDROOT
BRANCH   9   3
ATOM      3  O   UNL     1      11.942   6.090  20.022  0.00  0.00    -0.388 OA
ATOM     23  H   UNL     1      12.404   5.487  19.418  0.00  0.00    +0.210 HD
ENDBRANCH   9   3
BRANCH   8   5
ATOM      5  N   UNL     1      12.141   8.266  22.282  0.00  0.00    -0.304 NA
ATOM     22  H   UNL     1      12.602   8.715  23.074  0.00  0.00    +0.123 HD
BRANCH   5  13
ATOM     13  C   UNL     1      11.336   9.256  21.576  0.00  0.00    +0.124 C 
BRANCH  13  14
ATOM      1  S   UNL     1      11.633  12.021  21.590  0.00  0.00    -0.100 S 
ATOM     14  C   UNL     1      11.222  10.542  22.350  0.00  0.00    +0.004 A 
ATOM     17  C   UNL     1      10.813  10.726  23.652  0.00  0.00    +0.012 A 
ATOM     20  C   UNL     1      10.840  12.099  24.032  0.00  0.00    +0.008 A 
ATOM     21  C   UNL     1      11.266  12.912  23.006  0.00  0.00    +0.045 A 
ENDBRANCH  13  14
ENDBRANCH   5  13
ENDBRANCH   8   5
BRANCH  10  12
ATOM     12  C   UNL     1      13.734   7.493  17.749  0.00  0.00    +0.140 C 
BRANCH  12   6
ATOM      4  O   UNL     1      13.407   8.757  15.176  0.00  0.00    -0.253 OA
ATOM      6  N   UNL     1      14.182   8.801  17.366  0.00  0.00    -0.297 N 
ATOM      7  N   UNL     1      14.516  10.624  15.991  0.00  0.00    -0.297 N 
ATOM     15  C   UNL     1      13.982   9.341  16.092  0.00  0.00    +0.300 C 
ATOM     24  H   UNL     1      14.682   9.357  18.052  0.00  0.00    +0.150 HD
ATOM     25  H   UNL     1      14.906  11.052  16.825  0.00  0.00    +0.150 HD
BRANCH   7  16
ATOM     16  C   UNL     1      14.446  11.408  14.781  0.00  0.00    +0.068 C 
ATOM     18  C   UNL     1      15.738  11.272  13.986  0.00  0.00    +0.027 C 
ATOM     19  C   UNL     1      14.148  12.867  15.104  0.00  0.00    +0.027 C 
ENDBRANCH   7  16
ENDBRANCH  12   6
ENDBRANCH  10  12
TORSDOF 7
ENDMDL
MODEL 5
REMARK VINA RESULT:      -5.5     27.477     29.199
REMARK  Name = 75536741
REMARK  9 active torsions:
REMARK  status: ('A' for Active; 'I' for Inactive)
REMARK    1  A    between atoms: O_3  and  C_9
REMARK    2  A    between atoms: N_5  and  C_8
REMARK    3  A    between atoms: N_5  and  C_13
REMARK    4  A    between atoms: N_6  and  C_12
REMARK    5  A    between atoms: N_7  and  C_16
REMARK    6  A    between atoms: C_10  and  C_12
REMARK    7  A    between atoms: C_13  and  C_14
REMARK    8  A    between atoms: C_16  and  C_18
REMARK    9  A    between atoms: C_16  and  C_19
REMARK                            x       y       z     vdW  Elec       q    Type
REMARK                         _______ _______ _______ _____ _____    ______ ____
ROOT
ATOM      2  O   UNL     1     -11.937  -7.881  14.049  0.00  0.00    -0.371 OA
ATOM      8  C   UNL     1     -10.267  -8.307  15.684  0.00  0.00    +0.111 C 
ATOM      9  C   UNL     1     -10.675  -6.848  15.762  0.00  0.00    +0.164 C 
ATOM     10  C   UNL     1     -12.037  -6.887  15.082  0.00  0.00    +0.165 C 
ATOM     11  C   UNL     1     -10.772  -8.686  14.301  0.00  0.00    +0.181 C 
ENDROOT
BRANCH   9   3
ATOM      3  O   UNL     1     -10.763  -6.376  17.093  0.00  0.00    -0.388 OA
ATOM     23  H   UNL     1     -11.626  -6.639  17.453  0.00  0.00    +0.210 HD
ENDBRANCH   9   3
BRANCH   8   5
ATOM      5  N   UNL     1      -8.838  -8.523  15.843  0.00  0.00    -0.304 NA
ATOM     22  H   UNL     1      -8.352  -7.635  15.710  0.00  0.00    +0.123 HD
BRANCH   5  13
ATOM     13  C   UNL     1      -8.529  -9.040  17.170  0.00  0.00    +0.124 C 
BRANCH  13  14
ATOM      1  S   UNL     1      -6.637 -10.439  18.652  0.00  0.00    -0.100 S 
ATOM     14  C   UNL     1      -7.136  -9.605  17.242  0.00  0.00    +0.004 A 
ATOM     17  C   UNL     1      -6.140  -9.553  16.292  0.00  0.00    +0.012 A 
ATOM     20  C   UNL     1      -4.950 -10.205  16.729  0.00  0.00    +0.008 A 
ATOM     21  C   UNL     1      -5.082 -10.731  17.994  0.00  0.00    +0.045 A 
ENDBRANCH  13  14
ENDBRANCH   5  13
ENDBRANCH   8   5
BRANCH  10  12
ATOM     12  C   UNL     1     -12.444  -5.555  14.477  0.00  0.00    +0.140 C 
BRANCH  12   6
ATOM      4  O   UNL     1     -12.281  -3.258  12.738  0.00  0.00    -0.253 OA
ATOM      6  N   UNL     1     -12.285  -5.560  13.051  0.00  0.00    -0.297 N 
ATOM      7  N   UNL     1     -12.060  -4.689  10.925  0.00  0.00    -0.297 N 
ATOM     15  C   UNL     1     -12.215  -4.396  12.279  0.00  0.00    +0.300 C 
ATOM     24  H   UNL     1     -12.236  -6.456  12.577  0.00  0.00    +0.150 HD
ATOM     25  H   UNL     1     -11.940  -5.659  10.652  0.00  0.00    +0.150 HD
BRANCH   7  16
ATOM     16  C   UNL     1     -11.960  -3.667   9.911  0.00  0.00    +0.068 C 
ATOM     18  C   UNL     1     -13.187  -3.694   9.009  0.00  0.00    +0.027 C 
ATOM     19  C   UNL     1     -10.678  -3.836   9.104  0.00  0.00    +0.027 C 
ENDBRANCH   7  16
ENDBRANCH  12   6
ENDBRANCH  10  12
TORSDOF 7
ENDMDL
MODEL 6
REMARK VINA RESULT:      -5.5     26.313     27.794
REMARK  Name = 75536741
REMARK  9 active torsions:
REMARK  status: ('A' for Active; 'I' for Inactive)
REMARK    1  A    between atoms: O_3  and  C_9
REMARK    2  A    between atoms: N_5  and  C_8
REMARK    3  A    between atoms: N_5  and  C_13
REMARK    4  A    between atoms: N_6  and  C_12
REMARK    5  A    between atoms: N_7  and  C_16
REMARK    6  A    between atoms: C_10  and  C_12
REMARK    7  A    between atoms: C_13  and  C_14
REMARK    8  A    between atoms: C_16  and  C_18
REMARK    9  A    between atoms: C_16  and  C_19
REMARK                            x       y       z     vdW  Elec       q    Type
REMARK                         _______ _______ _______ _____ _____    ______ ____
ROOT
ATOM      2  O   UNL     1      -5.070 -11.777  15.722  0.00  0.00    -0.371 OA
ATOM      8  C   UNL     1      -2.942 -11.445  14.718  0.00  0.00    +0.111 C 
ATOM      9  C   UNL     1      -2.927 -10.854  16.115  0.00  0.00    +0.164 C 
ATOM     10  C   UNL     1      -4.091 -11.595  16.759  0.00  0.00    +0.165 C 
ATOM     11  C   UNL     1      -4.435 -11.548  14.451  0.00  0.00    +0.181 C 
ENDROOT
BRANCH   9   3
ATOM      3  O   UNL     1      -1.710 -11.092  16.796  0.00  0.00    -0.388 OA
ATOM     23  H   UNL     1      -1.529 -10.333  17.373  0.00  0.00    +0.210 HD
ENDBRANCH   9   3
BRANCH   8   5
ATOM      5  N   UNL     1      -2.247 -10.632  13.733  0.00  0.00    -0.304 NA
ATOM     22  H   UNL     1      -1.352 -10.333  14.123  0.00  0.00    +0.123 HD
BRANCH   5  13
ATOM     13  C   UNL     1      -2.005 -11.384  12.508  0.00  0.00    +0.124 C 
BRANCH  13  14
ATOM      1  S   UNL     1      -3.830 -11.794  10.450  0.00  0.00    -0.100 S 
ATOM     14  C   UNL     1      -2.750 -10.803  11.337  0.00  0.00    +0.004 A 
ATOM     17  C   UNL     1      -2.697  -9.521  10.837  0.00  0.00    +0.012 A 
ATOM     20  C   UNL     1      -3.553  -9.350   9.710  0.00  0.00    +0.008 A 
ATOM     21  C   UNL     1      -4.228 -10.507   9.392  0.00  0.00    +0.045 A 
ENDBRANCH  13  14
ENDBRANCH   5  13
ENDBRANCH   8   5
BRANCH  10  12
ATOM     12  C   UNL     1      -4.711 -10.842  17.924  0.00  0.00    +0.140 C 
BRANCH  12   6
ATOM      4  O   UNL     1      -6.539 -10.826  20.157  0.00  0.00    -0.253 OA
ATOM      6  N   UNL     1      -6.144 -10.883  17.868  0.00  0.00    -0.297 N 
ATOM      7  N   UNL     1      -8.311 -10.919  18.662  0.00  0.00    -0.297 N 
ATOM     15  C   UNL     1      -6.961 -10.872  19.003  0.00  0.00    +0.300 C 
ATOM     24  H   UNL     1      -6.587 -10.938  16.956  0.00  0.00    +0.150 HD
ATOM     25  H   UNL     1      -8.562 -10.879  17.679  0.00  0.00    +0.150 HD
BRANCH   7  16
ATOM     16  C   UNL     1      -9.367 -10.918  19.647  0.00  0.00    +0.068 C 
ATOM     18  C   UNL     1      -9.796 -12.345  19.964  0.00  0.00    +0.027 C 
ATOM     19  C   UNL     1     -10.546 -10.081  19.167  0.00  0.00    +0.027 C 
ENDBRANCH   7  16
ENDBRANCH  12   6
ENDBRANCH  10  12
TORSDOF 7
ENDMDL
MODEL 7
REMARK VINA RESULT:      -5.5     27.795     29.937
REMARK  Name = 75536741
REMARK  9 active torsions:
REMARK  status: ('A' for Active; 'I' for Inactive)
REMARK    1  A    between atoms: O_3  and  C_9
REMARK    2  A    between atoms: N_5  and  C_8
REMARK    3  A    between atoms: N_5  and  C_13
REMARK    4  A    between atoms: N_6  and  C_12
REMARK    5  A    between atoms: N_7  and  C_16
REMARK    6  A    between atoms: C_10  and  C_12
REMARK    7  A    between atoms: C_13  and  C_14
REMARK    8  A    between atoms: C_16  and  C_18
REMARK    9  A    between atoms: C_16  and  C_19
REMARK                            x       y       z     vdW  Elec       q    Type
REMARK                         _______ _______ _______ _____ _____    ______ ____
ROOT
ATOM      2  O   UNL     1     -12.531  -8.026  15.325  0.00  0.00    -0.371 OA
ATOM      8  C   UNL     1     -11.848  -6.022  14.246  0.00  0.00    +0.111 C 
ATOM      9  C   UNL     1     -11.084  -6.168  15.549  0.00  0.00    +0.164 C 
ATOM     10  C   UNL     1     -11.227  -7.662  15.807  0.00  0.00    +0.165 C 
ATOM     11  C   UNL     1     -13.014  -6.971  14.474  0.00  0.00    +0.181 C 
ENDROOT
BRANCH   9   3
ATOM      3  O   UNL     1      -9.729  -5.780  15.433  0.00  0.00    -0.388 OA
ATOM     23  H   UNL     1      -9.698  -4.828  15.243  0.00  0.00    +0.210 HD
ENDBRANCH   9   3
BRANCH   8   5
ATOM      5  N   UNL     1     -12.274  -4.661  13.968  0.00  0.00    -0.304 NA
ATOM     22  H   UNL     1     -11.464  -4.114  13.675  0.00  0.00    +0.123 HD
BRANCH   5  13
ATOM     13  C   UNL     1     -13.278  -4.629  12.911  0.00  0.00    +0.124 C 
BRANCH  13  14
ATOM      1  S   UNL     1     -12.847  -5.729  10.395  0.00  0.00    -0.100 S 
ATOM     14  C   UNL     1     -12.655  -4.480  11.550  0.00  0.00    +0.004 A 
ATOM     17  C   UNL     1     -11.909  -3.431  11.058  0.00  0.00    +0.012 A 
ATOM     20  C   UNL     1     -11.489  -3.658   9.715  0.00  0.00    +0.008 A 
ATOM     21  C   UNL     1     -11.929  -4.869   9.232  0.00  0.00    +0.045 A 
ENDBRANCH  13  14
ENDBRANCH   5  13
ENDBRANCH   8   5
BRANCH  10  12
ATOM     12  C   UNL     1     -11.100  -8.032  17.275  0.00  0.00    +0.140 C 
BRANCH  12   6
ATOM      4  O   UNL     1      -9.498 -10.425  17.097  0.00  0.00    -0.253 OA
ATOM      6  N   UNL     1      -9.725  -8.182  17.658  0.00  0.00    -0.297 N 
ATOM      7  N   UNL     1      -7.704  -9.249  17.982  0.00  0.00    -0.297 N 
ATOM     15  C   UNL     1      -9.018  -9.383  17.539  0.00  0.00    +0.300 C 
ATOM     24  H   UNL     1      -9.246  -7.378  18.049  0.00  0.00    +0.150 HD
ATOM     25  H   UNL     1      -7.380  -8.328  18.259  0.00  0.00    +0.150 HD
BRANCH   7  16
ATOM     16  C   UNL     1      -6.759 -10.340  17.967  0.00  0.00    +0.068 C 
ATOM     18  C   UNL     1      -6.126 -10.511  19.342  0.00  0.00    +0.027 C 
ATOM     19  C   UNL     1      -5.700 -10.116  16.895  0.00  0.00    +0.027 C 
ENDBRANCH   7  16
ENDBRANCH  12   6
ENDBRANCH  10  12
TORSDOF 7
ENDMDL
MODEL 8
REMARK VINA RESULT:      -5.4     26.491     28.276
REMARK  Name = 75536741
REMARK  9 active torsions:
REMARK  status: ('A' for Active; 'I' for Inactive)
REMARK    1  A    between atoms: O_3  and  C_9
REMARK    2  A    between atoms: N_5  and  C_8
REMARK    3  A    between atoms: N_5  and  C_13
REMARK    4  A    between atoms: N_6  and  C_12
REMARK    5  A    between atoms: N_7  and  C_16
REMARK    6  A    between atoms: C_10  and  C_12
REMARK    7  A    between atoms: C_13  and  C_14
REMARK    8  A    between atoms: C_16  and  C_18
REMARK    9  A    between atoms: C_16  and  C_19
REMARK                            x       y       z     vdW  Elec       q    Type
REMARK                         _______ _______ _______ _____ _____    ______ ____
ROOT
ATOM      2  O   UNL     1      -7.482 -13.052  18.731  0.00  0.00    -0.371 OA
ATOM      8  C   UNL     1      -5.624 -11.573  18.666  0.00  0.00    +0.111 C 
ATOM      9  C   UNL     1      -6.838 -10.819  19.174  0.00  0.00    +0.164 C 
ATOM     10  C   UNL     1      -7.721 -11.968  19.644  0.00  0.00    +0.165 C 
ATOM     11  C   UNL     1      -6.274 -12.776  18.001  0.00  0.00    +0.181 C 
ENDROOT
BRANCH   9   3
ATOM      3  O   UNL     1      -6.526  -9.929  20.229  0.00  0.00    -0.388 OA
ATOM     23  H   UNL     1      -6.656  -9.021  19.910  0.00  0.00    +0.210 HD
ENDBRANCH   9   3
BRANCH   8   5
ATOM      5  N   UNL     1      -4.798 -10.801  17.753  0.00  0.00    -0.304 NA
ATOM     22  H   UNL     1      -3.899 -10.612  18.199  0.00  0.00    +0.123 HD
BRANCH   5  13
ATOM     13  C   UNL     1      -4.569 -11.526  16.509  0.00  0.00    +0.124 C 
BRANCH  13  14
ATOM      1  S   UNL     1      -3.423 -10.807  14.079  0.00  0.00    -0.100 S 
ATOM     14  C   UNL     1      -3.356 -11.017  15.777  0.00  0.00    +0.004 A 
ATOM     17  C   UNL     1      -2.126 -10.671  16.293  0.00  0.00    +0.012 A 
ATOM     20  C   UNL     1      -1.227 -10.230  15.279  0.00  0.00    +0.008 A 
ATOM     21  C   UNL     1      -1.803 -10.254  14.029  0.00  0.00    +0.045 A 
ENDBRANCH  13  14
ENDBRANCH   5  13
ENDBRANCH   8   5
BRANCH  10  12
ATOM     12  C   UNL     1      -9.200 -11.622  19.656  0.00  0.00    +0.140 C 
BRANCH  12   6
ATOM      4  O   UNL     1     -10.518 -11.031  17.158  0.00  0.00    -0.253 OA
ATOM      6  N   UNL     1      -9.437 -10.325  19.090  0.00  0.00    -0.297 N 
ATOM      7  N   UNL     1     -10.183  -8.770  17.556  0.00  0.00    -0.297 N 
ATOM     15  C   UNL     1     -10.086 -10.124  17.868  0.00  0.00    +0.300 C 
ATOM     24  H   UNL     1      -9.103  -9.512  19.597  0.00  0.00    +0.150 HD
ATOM     25  H   UNL     1      -9.863  -8.093  18.242  0.00  0.00    +0.150 HD
BRANCH   7  16
ATOM     16  C   UNL     1     -10.810  -8.288  16.349  0.00  0.00    +0.068 C 
ATOM     18  C   UNL     1     -10.204  -6.953  15.934  0.00  0.00    +0.027 C 
ATOM     19  C   UNL     1     -12.318  -8.175  16.536  0.00  0.00    +0.027 C 
ENDBRANCH   7  16
ENDBRANCH  12   6
ENDBRANCH  10  12
TORSDOF 7
ENDMDL
MODEL 9
REMARK VINA RESULT:      -5.4     33.285     35.115
REMARK  Name = 75536741
REMARK  9 active torsions:
REMARK  status: ('A' for Active; 'I' for Inactive)
REMARK    1  A    between atoms: O_3  and  C_9
REMARK    2  A    between atoms: N_5  and  C_8
REMARK    3  A    between atoms: N_5  and  C_13
REMARK    4  A    between atoms: N_6  and  C_12
REMARK    5  A    between atoms: N_7  and  C_16
REMARK    6  A    between atoms: C_10  and  C_12
REMARK    7  A    between atoms: C_13  and  C_14
REMARK    8  A    between atoms: C_16  and  C_18
REMARK    9  A    between atoms: C_16  and  C_19
REMARK                            x       y       z     vdW  Elec       q    Type
REMARK                         _______ _______ _______ _____ _____    ______ ____
ROOT
ATOM      2  O   UNL     1      -1.446 -15.686  -1.963  0.00  0.00    -0.371 OA
ATOM      8  C   UNL     1      -0.729 -14.334  -0.147  0.00  0.00    +0.111 C 
ATOM      9  C   UNL     1      -1.463 -13.464  -1.150  0.00  0.00    +0.164 C 
ATOM     10  C   UNL     1      -2.271 -14.509  -1.908  0.00  0.00    +0.165 C 
ATOM     11  C   UNL     1      -0.394 -15.551  -0.992  0.00  0.00    +0.181 C 
ENDROOT
BRANCH   9   3
ATOM      3  O   UNL     1      -2.295 -12.501  -0.533  0.00  0.00    -0.388 OA
ATOM     23  H   UNL     1      -1.763 -11.708  -0.353  0.00  0.00    +0.210 HD
ENDBRANCH   9   3
BRANCH   8   5
ATOM      5  N   UNL     1       0.448 -13.700   0.424  0.00  0.00    -0.304 NA
ATOM     22  H   UNL     1       0.150 -12.989   1.093  0.00  0.00    +0.123 HD
BRANCH   5  13
ATOM     13  C   UNL     1       1.291 -14.674   1.107  0.00  0.00    +0.124 C 
BRANCH  13  14
ATOM      1  S   UNL     1       3.850 -15.754   1.227  0.00  0.00    -0.100 S 
ATOM     14  C   UNL     1       2.713 -14.628   0.618  0.00  0.00    +0.004 A 
ATOM     17  C   UNL     1       3.276 -13.770  -0.301  0.00  0.00    +0.012 A 
ATOM     20  C   UNL     1       4.660 -14.040  -0.506  0.00  0.00    +0.008 A 
ATOM     21  C   UNL     1       5.102 -15.093   0.263  0.00  0.00    +0.045 A 
ENDBRANCH  13  14
ENDBRANCH   5  13
ENDBRANCH   8   5
BRANCH  10  12
ATOM     12  C   UNL     1      -2.643 -14.076  -3.316  0.00  0.00    +0.140 C 
BRANCH  12   6
ATOM      4  O   UNL     1      -0.012 -14.138  -4.500  0.00  0.00    -0.253 OA
ATOM      6  N   UNL     1      -1.859 -12.951  -3.739  0.00  0.00    -0.297 N 
ATOM      7  N   UNL     1      -0.051 -11.822  -4.626  0.00  0.00    -0.297 N 
ATOM     15  C   UNL     1      -0.586 -13.068  -4.307  0.00  0.00    +0.300 C 
ATOM     24  H   UNL     1      -2.243 -12.021  -3.606  0.00  0.00    +0.150 HD
ATOM     25  H   UNL     1      -0.634 -11.000  -4.497  0.00  0.00    +0.150 HD
BRANCH   7  16
ATOM     16  C   UNL     1       1.252 -11.660  -5.225  0.00  0.00    +0.068 C 
ATOM     18  C   UNL     1       1.878 -10.344  -4.783  0.00  0.00    +0.027 C 
ATOM     19  C   UNL     1       1.157 -11.744  -6.743  0.00  0.00    +0.027 C 
ENDBRANCH   7  16
ENDBRANCH  12   6
ENDBRANCH  10  12
TORSDOF 7
ENDMDL
MODEL 10
REMARK VINA RESULT:      -5.4     26.381     27.570
REMARK  Name = 75536741
REMARK  9 active torsions:
REMARK  status: ('A' for Active; 'I' for Inactive)
REMARK    1  A    between atoms: O_3  and  C_9
REMARK    2  A    between atoms: N_5  and  C_8
REMARK    3  A    between atoms: N_5  and  C_13
REMARK    4  A    between atoms: N_6  and  C_12
REMARK    5  A    between atoms: N_7  and  C_16
REMARK    6  A    between atoms: C_10  and  C_12
REMARK    7  A    between atoms: C_13  and  C_14
REMARK    8  A    between atoms: C_16  and  C_18
REMARK    9  A    between atoms: C_16  and  C_19
REMARK                            x       y       z     vdW  Elec       q    Type
REMARK                         _______ _______ _______ _____ _____    ______ ____
ROOT
ATOM      2  O   UNL     1      -5.279 -11.435  19.175  0.00  0.00    -0.371 OA
ATOM      8  C   UNL     1      -3.878 -11.159  17.276  0.00  0.00    +0.111 C 
ATOM      9  C   UNL     1      -5.219 -10.505  17.000  0.00  0.00    +0.164 C 
ATOM     10  C   UNL     1      -5.744 -10.307  18.416  0.00  0.00    +0.165 C 
ATOM     11  C   UNL     1      -4.224 -12.077  18.436  0.00  0.00    +0.181 C 
ENDROOT
BRANCH   9   3
ATOM      3  O   UNL     1      -5.096  -9.278  16.307  0.00  0.00    -0.388 OA
ATOM     23  H   UNL     1      -4.807  -9.468  15.399  0.00  0.00    +0.210 HD
ENDBRANCH   9   3
BRANCH   8   5
ATOM      5  N   UNL     1      -3.331 -11.873  16.134  0.00  0.00    -0.304 NA
ATOM     22  H   UNL     1      -4.088 -12.085  15.483  0.00  0.00    +0.123 HD
BRANCH   5  13
ATOM     13  C   UNL     1      -2.324 -11.073  15.447  0.00  0.00    +0.124 C 
BRANCH  13  14
ATOM      1  S   UNL     1      -4.215 -11.280  13.419  0.00  0.00    -0.100 S 
ATOM     14  C   UNL     1      -2.646 -10.897  13.988  0.00  0.00    +0.004 A 
ATOM     17  C   UNL     1      -1.826 -10.446  12.977  0.00  0.00    +0.012 A 
ATOM     20  C   UNL     1      -2.495 -10.418  11.718  0.00  0.00    +0.008 A 
ATOM     21  C   UNL     1      -3.800 -10.846  11.815  0.00  0.00    +0.045 A 
ENDBRANCH  13  14
ENDBRANCH   5  13
ENDBRANCH   8   5
BRANCH  10  12
ATOM     12  C   UNL     1      -7.260 -10.230  18.488  0.00  0.00    +0.140 C 
BRANCH  12   6
ATOM      4  O   UNL     1     -10.036  -9.636  17.968  0.00  0.00    -0.253 OA
ATOM      6  N   UNL     1      -7.779  -9.274  17.552  0.00  0.00    -0.297 N 
ATOM      7  N   UNL     1      -9.369  -8.067  16.393  0.00  0.00    -0.297 N 
ATOM     15  C   UNL     1      -9.145  -9.046  17.359  0.00  0.00    +0.300 C 
ATOM     24  H   UNL     1      -7.118  -8.746  16.990  0.00  0.00    +0.150 HD
ATOM     25  H   UNL     1      -8.567  -7.584  16.001  0.00  0.00    +0.150 HD
BRANCH   7  16
ATOM     16  C   UNL     1     -10.692  -7.642  16.004  0.00  0.00    +0.068 C 
ATOM     18  C   UNL     1     -11.137  -8.378  14.747  0.00  0.00    +0.027 C 
ATOM     19  C   UNL     1     -10.731  -6.132  15.801  0.00  0.00    +0.027 C 
ENDBRANCH   7  16
ENDBRANCH  12   6
ENDBRANCH  10  12
TORSDOF 7
ENDMDL
