MODEL 1
REMARK VINA RESULT:      -7.6      0.000      0.000
REMARK  Name = 11912159
REMARK  3 active torsions:
REMARK  status: ('A' for Active; 'I' for Inactive)
REMARK    1  A    between atoms: C_16  and  C_19
REMARK    2  A    between atoms: C_17  and  C_20
REMARK    3  A    between atoms: C_26  and  C_29
REMARK                            x       y       z     vdW  Elec       q    Type
REMARK                         _______ _______ _______ _____ _____    ______ ____
ROOT
ATOM      1  O   UNL     1      15.141   6.009  21.610  0.00  0.00    -0.267 OA
ATOM      2  O   UNL     1      12.172   6.953  18.331  0.00  0.00    -0.267 OA
ATOM      4  N   UNL     1      11.771   8.934  19.467  0.00  0.00    -0.294 N 
ATOM      5  N   UNL     1      14.080   8.080  21.439  0.00  0.00    -0.311 N 
ATOM      7  C   UNL     1      11.575   8.385  21.884  0.00  0.00    +0.027 C 
ATOM      8  C   UNL     1      12.937  10.309  21.173  0.00  0.00    +0.054 C 
ATOM      9  C   UNL     1      11.955   9.818  22.238  0.00  0.00    +0.018 C 
ATOM     10  C   UNL     1      10.918   8.332  20.493  0.00  0.00    +0.113 C 
ATOM     11  C   UNL     1      12.832   7.507  21.964  0.00  0.00    +0.130 C 
ATOM     12  C   UNL     1      12.253  10.288  19.790  0.00  0.00    +0.117 C 
ATOM     13  C   UNL     1      14.181   9.441  21.136  0.00  0.00    +0.027 A 
ATOM     14  C   UNL     1      15.360   9.967  20.768  0.00  0.00    +0.022 A 
ATOM     15  C   UNL     1      15.186   7.212  21.347  0.00  0.00    +0.259 A 
ATOM     16  C   UNL     1      12.130   8.184  18.330  0.00  0.00    +0.282 C 
ATOM     17  C   UNL     1      16.483   7.827  20.899  0.00  0.00    +0.047 A 
ATOM     18  C   UNL     1      16.530   9.144  20.649  0.00  0.00    +0.015 A 
ENDROOT
BRANCH  17  20
ATOM     20  C   UNL     1      17.657   7.027  20.753  0.00  0.00    -0.011 A 
ATOM     22  C   UNL     1      18.716   7.170  21.650  0.00  0.00    +0.027 A 
ATOM     23  C   UNL     1      17.746   6.105  19.711  0.00  0.00    +0.009 A 
ATOM     26  C   UNL     1      19.862   6.390  21.505  0.00  0.00    +0.052 A 
ATOM     27  C   UNL     1      18.893   5.324  19.566  0.00  0.00    +0.002 A 
ATOM     28  C   UNL     1      19.951   5.467  20.464  0.00  0.00    +0.019 A 
BRANCH  26  29
ATOM      6  N   UNL     1      21.830   6.653  23.170  0.00  0.00    -0.191 NA
ATOM     29  C   UNL     1      20.948   6.536  22.424  0.00  0.00    +0.099 C 
ENDBRANCH  26  29
ENDBRANCH  17  20
BRANCH  16  19
ATOM      3  O   UNL     1      11.509   9.162  16.224  0.00  0.00    -0.458 OA
ATOM     19  C   UNL     1      12.488   8.927  17.130  0.00  0.00    +0.189 A 
ATOM     21  C   UNL     1      13.680   9.461  16.722  0.00  0.00    +0.054 A 
ATOM     24  C   UNL     1      13.422  10.071  15.471  0.00  0.00    +0.042 A 
ATOM     25  C   UNL     1      12.087   9.862  15.213  0.00  0.00    +0.196 A 
ENDBRANCH  16  19
TORSDOF 3
ENDMDL
MODEL 2
REMARK VINA RESULT:      -7.4      2.855      6.821
REMARK  Name = 11912159
REMARK  3 active torsions:
REMARK  status: ('A' for Active; 'I' for Inactive)
REMARK    1  A    between atoms: C_16  and  C_19
REMARK    2  A    between atoms: C_17  and  C_20
REMARK    3  A    between atoms: C_26  and  C_29
REMARK                            x       y       z     vdW  Elec       q    Type
REMARK                         _______ _______ _______ _____ _____    ______ ____
ROOT
ATOM      1  O   UNL     1      10.668   9.900  21.958  0.00  0.00    -0.267 OA
ATOM      2  O   UNL     1      13.794   6.707  21.253  0.00  0.00    -0.267 OA
ATOM      4  N   UNL     1      14.033   7.617  19.134  0.00  0.00    -0.294 N 
ATOM      5  N   UNL     1      11.998   9.850  20.042  0.00  0.00    -0.311 N 
ATOM      7  C   UNL     1      11.752   8.044  18.241  0.00  0.00    +0.027 C 
ATOM      8  C   UNL     1      13.495   9.768  18.018  0.00  0.00    +0.054 C 
ATOM      9  C   UNL     1      12.321   9.101  17.302  0.00  0.00    +0.018 C 
ATOM     10  C   UNL     1      12.827   6.996  18.583  0.00  0.00    +0.113 C 
ATOM     11  C   UNL     1      11.204   8.741  19.494  0.00  0.00    +0.130 C 
ATOM     12  C   UNL     1      14.582   8.715  18.320  0.00  0.00    +0.117 C 
ATOM     13  C   UNL     1      13.047  10.418  19.313  0.00  0.00    +0.027 A 
ATOM     14  C   UNL     1      13.686  11.503  19.780  0.00  0.00    +0.022 A 
ATOM     15  C   UNL     1      11.591  10.367  21.288  0.00  0.00    +0.259 A 
ATOM     16  C   UNL     1      14.518   7.203  20.390  0.00  0.00    +0.282 C 
ATOM     17  C   UNL     1      12.350  11.561  21.797  0.00  0.00    +0.047 A 
ATOM     18  C   UNL     1      13.328  12.083  21.044  0.00  0.00    +0.015 A 
ENDROOT
BRANCH  17  20
ATOM     20  C   UNL     1      12.028  12.145  23.059  0.00  0.00    -0.011 A 
ATOM     22  C   UNL     1      12.948  12.095  24.107  0.00  0.00    +0.027 A 
ATOM     23  C   UNL     1      10.792  12.763  23.246  0.00  0.00    +0.009 A 
ATOM     26  C   UNL     1      12.631  12.664  25.340  0.00  0.00    +0.052 A 
ATOM     27  C   UNL     1      10.475  13.332  24.480  0.00  0.00    +0.002 A 
ATOM     28  C   UNL     1      11.396  13.282  25.527  0.00  0.00    +0.019 A 
BRANCH  26  29
ATOM      6  N   UNL     1      14.339  12.572  27.287  0.00  0.00    -0.191 NA
ATOM     29  C   UNL     1      13.573  12.613  26.414  0.00  0.00    +0.099 C 
ENDBRANCH  26  29
ENDBRANCH  17  20
BRANCH  16  19
ATOM      3  O   UNL     1      16.278   8.474  21.422  0.00  0.00    -0.458 OA
ATOM     19  C   UNL     1      15.935   7.412  20.655  0.00  0.00    +0.189 A 
ATOM     21  C   UNL     1      17.040   6.706  20.261  0.00  0.00    +0.054 A 
ATOM     24  C   UNL     1      18.150   7.382  20.824  0.00  0.00    +0.042 A 
ATOM     25  C   UNL     1      17.633   8.449  21.521  0.00  0.00    +0.196 A 
ENDBRANCH  16  19
TORSDOF 3
ENDMDL
MODEL 3
REMARK VINA RESULT:      -7.3     15.199     19.664
REMARK  Name = 11912159
REMARK  3 active torsions:
REMARK  status: ('A' for Active; 'I' for Inactive)
REMARK    1  A    between atoms: C_16  and  C_19
REMARK    2  A    between atoms: C_17  and  C_20
REMARK    3  A    between atoms: C_26  and  C_29
REMARK                            x       y       z     vdW  Elec       q    Type
REMARK                         _______ _______ _______ _____ _____    ______ ____
ROOT
ATOM      1  O   UNL     1      12.546   7.183   3.472  0.00  0.00    -0.267 OA
ATOM      2  O   UNL     1      12.298   7.361  -1.041  0.00  0.00    -0.267 OA
ATOM      4  N   UNL     1      13.448   5.348  -1.036  0.00  0.00    -0.294 N 
ATOM      5  N   UNL     1      13.222   5.414   2.109  0.00  0.00    -0.311 N 
ATOM      7  C   UNL     1      15.298   5.546   0.612  0.00  0.00    +0.027 C 
ATOM      8  C   UNL     1      13.894   3.523   0.586  0.00  0.00    +0.054 C 
ATOM      9  C   UNL     1      15.327   4.029   0.758  0.00  0.00    +0.018 C 
ATOM     10  C   UNL     1      14.760   5.941  -0.775  0.00  0.00    +0.113 C 
ATOM     11  C   UNL     1      14.453   6.134   1.750  0.00  0.00    +0.130 C 
ATOM     12  C   UNL     1      13.381   3.892  -0.821  0.00  0.00    +0.117 C 
ATOM     13  C   UNL     1      12.975   4.123   1.634  0.00  0.00    +0.027 A 
ATOM     14  C   UNL     1      11.903   3.438   2.063  0.00  0.00    +0.022 A 
ATOM     15  C   UNL     1      12.360   6.050   3.024  0.00  0.00    +0.259 A 
ATOM     16  C   UNL     1      12.362   6.178  -1.377  0.00  0.00    +0.282 C 
ATOM     17  C   UNL     1      11.152   5.267   3.458  0.00  0.00    +0.047 A 
ATOM     18  C   UNL     1      10.978   4.022   2.993  0.00  0.00    +0.015 A 
ENDROOT
BRANCH  17  20
ATOM     20  C   UNL     1      10.205   5.832   4.366  0.00  0.00    -0.011 A 
ATOM     22  C   UNL     1      10.254   5.503   5.721  0.00  0.00    +0.027 A 
ATOM     23  C   UNL     1       9.229   6.711   3.897  0.00  0.00    +0.009 A 
ATOM     26  C   UNL     1       9.328   6.053   6.606  0.00  0.00    +0.052 A 
ATOM     27  C   UNL     1       8.303   7.262   4.782  0.00  0.00    +0.002 A 
ATOM     28  C   UNL     1       8.353   6.933   6.137  0.00  0.00    +0.019 A 
BRANCH  26  29
ATOM      6  N   UNL     1       9.417   5.443   9.123  0.00  0.00    -0.191 NA
ATOM     29  C   UNL     1       9.377   5.717   7.994  0.00  0.00    +0.099 C 
ENDBRANCH  26  29
ENDBRANCH  17  20
BRANCH  16  19
ATOM      3  O   UNL     1      11.483   5.339  -3.451  0.00  0.00    -0.458 OA
ATOM     19  C   UNL     1      11.275   5.573  -2.133  0.00  0.00    +0.189 A 
ATOM     21  C   UNL     1      10.023   5.174  -1.751  0.00  0.00    +0.054 A 
ATOM     24  C   UNL     1       9.410   4.656  -2.917  0.00  0.00    +0.042 A 
ATOM     25  C   UNL     1      10.339   4.778  -3.923  0.00  0.00    +0.196 A 
ENDBRANCH  16  19
TORSDOF 3
ENDMDL
MODEL 4
REMARK VINA RESULT:      -7.0     26.904     29.457
REMARK  Name = 11912159
REMARK  3 active torsions:
REMARK  status: ('A' for Active; 'I' for Inactive)
REMARK    1  A    between atoms: C_16  and  C_19
REMARK    2  A    between atoms: C_17  and  C_20
REMARK    3  A    between atoms: C_26  and  C_29
REMARK                            x       y       z     vdW  Elec       q    Type
REMARK                         _______ _______ _______ _____ _____    ______ ____
ROOT
ATOM      1  O   UNL     1      -5.437 -13.179  15.779  0.00  0.00    -0.267 OA
ATOM      2  O   UNL     1      -9.659 -11.584  15.482  0.00  0.00    -0.267 OA
ATOM      4  N   UNL     1      -9.722 -11.737  17.794  0.00  0.00    -0.294 N 
ATOM      5  N   UNL     1      -6.688 -12.587  17.657  0.00  0.00    -0.311 N 
ATOM      7  C   UNL     1      -8.731 -13.927  18.428  0.00  0.00    +0.027 C 
ATOM      8  C   UNL     1      -8.073 -11.890  19.643  0.00  0.00    +0.054 C 
ATOM      9  C   UNL     1      -8.398 -13.374  19.809  0.00  0.00    +0.018 C 
ATOM     10  C   UNL     1      -9.939 -13.184  17.830  0.00  0.00    +0.113 C 
ATOM     11  C   UNL     1      -7.486 -13.817  17.539  0.00  0.00    +0.130 C 
ATOM     12  C   UNL     1      -9.304 -11.150  19.079  0.00  0.00    +0.117 C 
ATOM     13  C   UNL     1      -6.892 -11.691  18.711  0.00  0.00    +0.027 A 
ATOM     14  C   UNL     1      -6.079 -10.634  18.867  0.00  0.00    +0.022 A 
ATOM     15  C   UNL     1      -5.654 -12.409  16.717  0.00  0.00    +0.259 A 
ATOM     16  C   UNL     1      -9.838 -11.044  16.574  0.00  0.00    +0.282 C 
ATOM     17  C   UNL     1      -4.783 -11.197  16.902  0.00  0.00    +0.047 A 
ATOM     18  C   UNL     1      -5.006 -10.386  17.946  0.00  0.00    +0.015 A 
ENDROOT
BRANCH  17  20
ATOM     20  C   UNL     1      -3.722 -10.916  15.989  0.00  0.00    -0.011 A 
ATOM     22  C   UNL     1      -3.993 -10.771  14.628  0.00  0.00    +0.027 A 
ATOM     23  C   UNL     1      -2.415 -10.790  16.457  0.00  0.00    +0.009 A 
ATOM     26  C   UNL     1      -2.956 -10.498  13.736  0.00  0.00    +0.052 A 
ATOM     27  C   UNL     1      -1.377 -10.517  15.565  0.00  0.00    +0.002 A 
ATOM     28  C   UNL     1      -1.648 -10.371  14.205  0.00  0.00    +0.019 A 
BRANCH  26  29
ATOM      6  N   UNL     1      -3.456 -10.227  11.209  0.00  0.00    -0.191 NA
ATOM     29  C   UNL     1      -3.231 -10.349  12.342  0.00  0.00    +0.099 C 
ENDBRANCH  26  29
ENDBRANCH  17  20
BRANCH  16  19
ATOM      3  O   UNL     1     -11.458  -9.277  16.744  0.00  0.00    -0.458 OA
ATOM     19  C   UNL     1     -10.153  -9.624  16.644  0.00  0.00    +0.189 A 
ATOM     21  C   UNL     1      -9.346  -8.519  16.627  0.00  0.00    +0.054 A 
ATOM     24  C   UNL     1     -10.214  -7.405  16.724  0.00  0.00    +0.042 A 
ATOM     25  C   UNL     1     -11.487  -7.920  16.793  0.00  0.00    +0.196 A 
ENDBRANCH  16  19
TORSDOF 3
ENDMDL
MODEL 5
REMARK VINA RESULT:      -6.9     15.966     19.955
REMARK  Name = 11912159
REMARK  3 active torsions:
REMARK  status: ('A' for Active; 'I' for Inactive)
REMARK    1  A    between atoms: C_16  and  C_19
REMARK    2  A    between atoms: C_17  and  C_20
REMARK    3  A    between atoms: C_26  and  C_29
REMARK                            x       y       z     vdW  Elec       q    Type
REMARK                         _______ _______ _______ _____ _____    ______ ____
ROOT
ATOM      1  O   UNL     1      12.377   7.324   3.592  0.00  0.00    -0.267 OA
ATOM      2  O   UNL     1      12.443   7.166  -0.928  0.00  0.00    -0.267 OA
ATOM      4  N   UNL     1      13.317   5.032  -0.694  0.00  0.00    -0.294 N 
ATOM      5  N   UNL     1      12.903   5.380   2.414  0.00  0.00    -0.311 N 
ATOM      7  C   UNL     1      15.069   5.129   1.069  0.00  0.00    +0.027 C 
ATOM      8  C   UNL     1      13.418   3.303   1.085  0.00  0.00    +0.054 C 
ATOM      9  C   UNL     1      14.890   3.637   1.325  0.00  0.00    +0.018 C 
ATOM     10  C   UNL     1      14.677   5.475  -0.379  0.00  0.00    +0.113 C 
ATOM     11  C   UNL     1      14.237   5.909   2.096  0.00  0.00    +0.130 C 
ATOM     12  C   UNL     1      13.047   3.618  -0.380  0.00  0.00    +0.117 C 
ATOM     13  C   UNL     1      12.519   4.096   2.016  0.00  0.00    +0.027 A 
ATOM     14  C   UNL     1      11.342   3.587   2.413  0.00  0.00    +0.022 A 
ATOM     15  C   UNL     1      12.074   6.191   3.215  0.00  0.00    +0.259 A 
ATOM     16  C   UNL     1      12.374   5.962  -1.172  0.00  0.00    +0.282 C 
ATOM     17  C   UNL     1      10.749   5.603   3.614  0.00  0.00    +0.047 A 
ATOM     18  C   UNL     1      10.444   4.356   3.228  0.00  0.00    +0.015 A 
ENDROOT
BRANCH  17  20
ATOM     20  C   UNL     1       9.828   6.354   4.406  0.00  0.00    -0.011 A 
ATOM     22  C   UNL     1       9.029   7.331   3.811  0.00  0.00    +0.027 A 
ATOM     23  C   UNL     1       9.729   6.112   5.776  0.00  0.00    +0.009 A 
ATOM     26  C   UNL     1       8.132   8.065   4.586  0.00  0.00    +0.052 A 
ATOM     27  C   UNL     1       8.831   6.846   6.552  0.00  0.00    +0.002 A 
ATOM     28  C   UNL     1       8.033   7.823   5.956  0.00  0.00    +0.019 A 
BRANCH  26  29
ATOM      6  N   UNL     1       6.648   9.879   3.482  0.00  0.00    -0.191 NA
ATOM     29  C   UNL     1       7.313   9.066   3.977  0.00  0.00    +0.099 C 
ENDBRANCH  26  29
ENDBRANCH  17  20
BRANCH  16  19
ATOM      3  O   UNL     1      11.550   4.961  -3.197  0.00  0.00    -0.458 OA
ATOM     19  C   UNL     1      11.267   5.438  -1.961  0.00  0.00    +0.189 A 
ATOM     21  C   UNL     1       9.933   5.329  -1.680  0.00  0.00    +0.054 A 
ATOM     24  C   UNL     1       9.344   4.742  -2.826  0.00  0.00    +0.042 A 
ATOM     25  C   UNL     1      10.370   4.538  -3.719  0.00  0.00    +0.196 A 
ENDBRANCH  16  19
TORSDOF 3
ENDMDL
MODEL 6
REMARK VINA RESULT:      -6.6     26.222     28.952
REMARK  Name = 11912159
REMARK  3 active torsions:
REMARK  status: ('A' for Active; 'I' for Inactive)
REMARK    1  A    between atoms: C_16  and  C_19
REMARK    2  A    between atoms: C_17  and  C_20
REMARK    3  A    between atoms: C_26  and  C_29
REMARK                            x       y       z     vdW  Elec       q    Type
REMARK                         _______ _______ _______ _____ _____    ______ ____
ROOT
ATOM      1  O   UNL     1     -14.325   8.200  18.097  0.00  0.00    -0.267 OA
ATOM      2  O   UNL     1     -15.946   9.958  21.937  0.00  0.00    -0.267 OA
ATOM      4  N   UNL     1     -15.669   7.845  22.849  0.00  0.00    -0.294 N 
ATOM      5  N   UNL     1     -14.351   7.013  20.106  0.00  0.00    -0.311 N 
ATOM      7  C   UNL     1     -16.523   6.197  21.194  0.00  0.00    +0.027 C 
ATOM      8  C   UNL     1     -14.366   5.801  22.314  0.00  0.00    +0.054 C 
ATOM      9  C   UNL     1     -15.641   5.120  21.816  0.00  0.00    +0.018 C 
ATOM     10  C   UNL     1     -16.870   7.274  22.238  0.00  0.00    +0.113 C 
ATOM     11  C   UNL     1     -15.798   6.785  19.976  0.00  0.00    +0.130 C 
ATOM     12  C   UNL     1     -14.725   6.850  23.387  0.00  0.00    +0.117 C 
ATOM     13  C   UNL     1     -13.627   6.475  21.174  0.00  0.00    +0.027 A 
ATOM     14  C   UNL     1     -12.291   6.597  21.214  0.00  0.00    +0.022 A 
ATOM     15  C   UNL     1     -13.724   7.717  19.059  0.00  0.00    +0.259 A 
ATOM     16  C   UNL     1     -15.460   9.237  22.808  0.00  0.00    +0.282 C 
ATOM     17  C   UNL     1     -12.231   7.864  19.153  0.00  0.00    +0.047 A 
ATOM     18  C   UNL     1     -11.582   7.303  20.184  0.00  0.00    +0.015 A 
ENDROOT
BRANCH  17  20
ATOM     20  C   UNL     1     -11.505   8.579  18.153  0.00  0.00    -0.011 A 
ATOM     22  C   UNL     1     -11.338   8.027  16.882  0.00  0.00    +0.027 A 
ATOM     23  C   UNL     1     -10.958   9.828  18.447  0.00  0.00    +0.009 A 
ATOM     26  C   UNL     1     -10.628   8.726  15.906  0.00  0.00    +0.052 A 
ATOM     27  C   UNL     1     -10.247  10.527  17.471  0.00  0.00    +0.002 A 
ATOM     28  C   UNL     1     -10.082   9.975  16.201  0.00  0.00    +0.019 A 
BRANCH  26  29
ATOM      6  N   UNL     1     -10.318   7.703  13.545  0.00  0.00    -0.191 NA
ATOM     29  C   UNL     1     -10.457   8.162  14.604  0.00  0.00    +0.099 C 
ENDBRANCH  26  29
ENDBRANCH  17  20
BRANCH  16  19
ATOM      3  O   UNL     1     -15.129   9.955  25.079  0.00  0.00    -0.458 OA
ATOM     19  C   UNL     1     -14.604   9.810  23.838  0.00  0.00    +0.189 A 
ATOM     21  C   UNL     1     -13.310  10.251  23.792  0.00  0.00    +0.054 A 
ATOM     24  C   UNL     1     -13.009  10.703  25.100  0.00  0.00    +0.042 A 
ATOM     25  C   UNL     1     -14.148  10.501  25.844  0.00  0.00    +0.196 A 
ENDBRANCH  16  19
TORSDOF 3
ENDMDL
MODEL 7
REMARK VINA RESULT:      -6.6     26.667     29.456
REMARK  Name = 11912159
REMARK  3 active torsions:
REMARK  status: ('A' for Active; 'I' for Inactive)
REMARK    1  A    between atoms: C_16  and  C_19
REMARK    2  A    between atoms: C_17  and  C_20
REMARK    3  A    between atoms: C_26  and  C_29
REMARK                            x       y       z     vdW  Elec       q    Type
REMARK                         _______ _______ _______ _____ _____    ______ ____
ROOT
ATOM      1  O   UNL     1      -6.773 -10.183  14.217  0.00  0.00    -0.267 OA
ATOM      2  O   UNL     1      -4.871 -14.094  12.973  0.00  0.00    -0.267 OA
ATOM      4  N   UNL     1      -2.834 -13.034  13.289  0.00  0.00    -0.294 N 
ATOM      5  N   UNL     1      -4.473 -10.554  14.344  0.00  0.00    -0.311 N 
ATOM      7  C   UNL     1      -2.997 -10.776  12.261  0.00  0.00    +0.027 C 
ATOM      8  C   UNL     1      -2.005 -11.032  14.500  0.00  0.00    +0.054 C 
ATOM      9  C   UNL     1      -1.879 -10.283  13.173  0.00  0.00    +0.018 C 
ATOM     10  C   UNL     1      -2.870 -12.292  12.027  0.00  0.00    +0.113 C 
ATOM     11  C   UNL     1      -4.346 -10.399  12.887  0.00  0.00    +0.130 C 
ATOM     12  C   UNL     1      -1.836 -12.546  14.257  0.00  0.00    +0.117 C 
ATOM     13  C   UNL     1      -3.351 -10.770  15.149  0.00  0.00    +0.027 A 
ATOM     14  C   UNL     1      -3.471 -10.795  16.486  0.00  0.00    +0.022 A 
ATOM     15  C   UNL     1      -5.760 -10.382  14.891  0.00  0.00    +0.259 A 
ATOM     16  C   UNL     1      -3.768 -14.062  13.520  0.00  0.00    +0.282 C 
ATOM     17  C   UNL     1      -5.865 -10.449  16.389  0.00  0.00    +0.047 A 
ATOM     18  C   UNL     1      -4.752 -10.630  17.114  0.00  0.00    +0.015 A 
ENDROOT
BRANCH  17  20
ATOM     20  C   UNL     1      -7.129 -10.309  17.038  0.00  0.00    -0.011 A 
ATOM     22  C   UNL     1      -7.934  -9.202  16.767  0.00  0.00    +0.027 A 
ATOM     23  C   UNL     1      -7.557 -11.277  17.946  0.00  0.00    +0.009 A 
ATOM     26  C   UNL     1      -9.168  -9.065  17.403  0.00  0.00    +0.052 A 
ATOM     27  C   UNL     1      -8.791 -11.140  18.582  0.00  0.00    +0.002 A 
ATOM     28  C   UNL     1      -9.596 -10.034  18.310  0.00  0.00    +0.019 A 
BRANCH  26  29
ATOM      6  N   UNL     1     -10.665  -7.011  16.900  0.00  0.00    -0.191 NA
ATOM     29  C   UNL     1      -9.993  -7.932  17.126  0.00  0.00    +0.099 C 
ENDBRANCH  26  29
ENDBRANCH  17  20
BRANCH  16  19
ATOM      3  O   UNL     1      -2.283 -15.823  14.205  0.00  0.00    -0.458 OA
ATOM     19  C   UNL     1      -3.394 -15.097  14.473  0.00  0.00    +0.189 A 
ATOM     21  C   UNL     1      -3.977 -15.497  15.645  0.00  0.00    +0.054 A 
ATOM     24  C   UNL     1      -3.168 -16.548  16.140  0.00  0.00    +0.042 A 
ATOM     25  C   UNL     1      -2.151 -16.707  15.228  0.00  0.00    +0.196 A 
ENDBRANCH  16  19
TORSDOF 3
ENDMDL
MODEL 8
REMARK VINA RESULT:      -6.5     25.957     28.408
REMARK  Name = 11912159
REMARK  3 active torsions:
REMARK  status: ('A' for Active; 'I' for Inactive)
REMARK    1  A    between atoms: C_16  and  C_19
REMARK    2  A    between atoms: C_17  and  C_20
REMARK    3  A    between atoms: C_26  and  C_29
REMARK                            x       y       z     vdW  Elec       q    Type
REMARK                         _______ _______ _______ _____ _____    ______ ____
ROOT
ATOM      1  O   UNL     1     -13.182   9.704  20.635  0.00  0.00    -0.267 OA
ATOM      2  O   UNL     1     -14.481  10.970  16.492  0.00  0.00    -0.267 OA
ATOM      4  N   UNL     1     -12.223  11.138  15.995  0.00  0.00    -0.294 N 
ATOM      5  N   UNL     1     -11.671   9.991  18.882  0.00  0.00    -0.311 N 
ATOM      7  C   UNL     1     -11.121  12.294  17.900  0.00  0.00    +0.027 C 
ATOM      8  C   UNL     1     -10.095  10.274  16.936  0.00  0.00    +0.054 C 
ATOM      9  C   UNL     1      -9.791  11.656  17.514  0.00  0.00    +0.018 C 
ATOM     10  C   UNL     1     -12.031  12.425  16.666  0.00  0.00    +0.113 C 
ATOM     11  C   UNL     1     -11.767  11.453  19.010  0.00  0.00    +0.130 C 
ATOM     12  C   UNL     1     -10.975  10.421  15.678  0.00  0.00    +0.117 C 
ATOM     13  C   UNL     1     -10.807   9.402  17.953  0.00  0.00    +0.027 A 
ATOM     14  C   UNL     1     -10.647   8.069  17.929  0.00  0.00    +0.022 A 
ATOM     15  C   UNL     1     -12.416   9.223  19.798  0.00  0.00    +0.259 A 
ATOM     16  C   UNL     1     -13.527  10.649  15.783  0.00  0.00    +0.282 C 
ATOM     17  C   UNL     1     -12.238   7.732  19.721  0.00  0.00    +0.047 A 
ATOM     18  C   UNL     1     -11.375   7.222  18.831  0.00  0.00    +0.015 A 
ENDROOT
BRANCH  17  20
ATOM     20  C   UNL     1     -12.965   6.866  20.592  0.00  0.00    -0.011 A 
ATOM     22  C   UNL     1     -14.361   6.854  20.560  0.00  0.00    +0.027 A 
ATOM     23  C   UNL     1     -12.282   6.034  21.478  0.00  0.00    +0.009 A 
ATOM     26  C   UNL     1     -15.070   6.009  21.413  0.00  0.00    +0.052 A 
ATOM     27  C   UNL     1     -12.992   5.188  22.331  0.00  0.00    +0.002 A 
ATOM     28  C   UNL     1     -14.386   5.176  22.298  0.00  0.00    +0.019 A 
BRANCH  26  29
ATOM      6  N   UNL     1     -17.661   5.986  21.353  0.00  0.00    -0.191 NA
ATOM     29  C   UNL     1     -16.499   5.996  21.380  0.00  0.00    +0.099 C 
ENDBRANCH  26  29
ENDBRANCH  17  20
BRANCH  16  19
ATOM      3  O   UNL     1     -13.723  10.200  13.430  0.00  0.00    -0.458 OA
ATOM     19  C   UNL     1     -13.712   9.705  14.690  0.00  0.00    +0.189 A 
ATOM     21  C   UNL     1     -13.886   8.347  14.691  0.00  0.00    +0.054 A 
ATOM     24  C   UNL     1     -14.014   7.974  13.332  0.00  0.00    +0.042 A 
ATOM     25  C   UNL     1     -13.907   9.137  12.605  0.00  0.00    +0.196 A 
ENDBRANCH  16  19
TORSDOF 3
ENDMDL
MODEL 9
REMARK VINA RESULT:      -6.4     27.379     29.500
REMARK  Name = 11912159
REMARK  3 active torsions:
REMARK  status: ('A' for Active; 'I' for Inactive)
REMARK    1  A    between atoms: C_16  and  C_19
REMARK    2  A    between atoms: C_17  and  C_20
REMARK    3  A    between atoms: C_26  and  C_29
REMARK                            x       y       z     vdW  Elec       q    Type
REMARK                         _______ _______ _______ _____ _____    ______ ____
ROOT
ATOM      1  O   UNL     1      -4.594 -13.223   9.885  0.00  0.00    -0.267 OA
ATOM      2  O   UNL     1      -5.798 -13.366  14.242  0.00  0.00    -0.267 OA
ATOM      4  N   UNL     1      -3.548 -13.080  14.721  0.00  0.00    -0.294 N 
ATOM      5  N   UNL     1      -3.093 -12.777  11.614  0.00  0.00    -0.311 N 
ATOM      7  C   UNL     1      -2.265 -14.593  13.221  0.00  0.00    +0.027 C 
ATOM      8  C   UNL     1      -1.533 -12.262  13.524  0.00  0.00    +0.054 C 
ATOM      9  C   UNL     1      -1.038 -13.700  13.375  0.00  0.00    +0.018 C 
ATOM     10  C   UNL     1      -3.175 -14.471  14.457  0.00  0.00    +0.113 C 
ATOM     11  C   UNL     1      -2.994 -14.210  11.926  0.00  0.00    +0.130 C 
ATOM     12  C   UNL     1      -2.412 -12.145  14.787  0.00  0.00    +0.117 C 
ATOM     13  C   UNL     1      -2.333 -11.831  12.309  0.00  0.00    +0.027 A 
ATOM     14  C   UNL     1      -2.350 -10.542  11.935  0.00  0.00    +0.022 A 
ATOM     15  C   UNL     1      -3.914 -12.420  10.527  0.00  0.00    +0.259 A 
ATOM     16  C   UNL     1      -4.908 -12.727  14.805  0.00  0.00    +0.282 C 
ATOM     17  C   UNL     1      -3.936 -10.963  10.155  0.00  0.00    +0.047 A 
ATOM     18  C   UNL     1      -3.166 -10.103  10.837  0.00  0.00    +0.015 A 
ENDROOT
BRANCH  17  20
ATOM     20  C   UNL     1      -4.754 -10.497   9.082  0.00  0.00    -0.011 A 
ATOM     22  C   UNL     1      -5.764  -9.566   9.326  0.00  0.00    +0.027 A 
ATOM     23  C   UNL     1      -4.545 -10.975   7.788  0.00  0.00    +0.009 A 
ATOM     26  C   UNL     1      -6.563  -9.113   8.277  0.00  0.00    +0.052 A 
ATOM     27  C   UNL     1      -5.344 -10.522   6.738  0.00  0.00    +0.002 A 
ATOM     28  C   UNL     1      -6.354  -9.591   6.984  0.00  0.00    +0.019 A 
BRANCH  26  29
ATOM      6  N   UNL     1      -8.439  -7.384   8.731  0.00  0.00    -0.191 NA
ATOM     29  C   UNL     1      -7.598  -8.160   8.527  0.00  0.00    +0.099 C 
ENDBRANCH  26  29
ENDBRANCH  17  20
BRANCH  16  19
ATOM      3  O   UNL     1      -5.241 -11.641  16.924  0.00  0.00    -0.458 OA
ATOM     19  C   UNL     1      -5.238 -11.535  15.573  0.00  0.00    +0.189 A 
ATOM     21  C   UNL     1      -5.561 -10.266  15.174  0.00  0.00    +0.054 A 
ATOM     24  C   UNL     1      -5.780  -9.531  16.365  0.00  0.00    +0.042 A 
ATOM     25  C   UNL     1      -5.573 -10.413  17.400  0.00  0.00    +0.196 A 
ENDBRANCH  16  19
TORSDOF 3
ENDMDL
MODEL 10
REMARK VINA RESULT:      -6.4     26.949     29.285
REMARK  Name = 11912159
REMARK  3 active torsions:
REMARK  status: ('A' for Active; 'I' for Inactive)
REMARK    1  A    between atoms: C_16  and  C_19
REMARK    2  A    between atoms: C_17  and  C_20
REMARK    3  A    between atoms: C_26  and  C_29
REMARK                            x       y       z     vdW  Elec       q    Type
REMARK                         _______ _______ _______ _____ _____    ______ ____
ROOT
ATOM      1  O   UNL     1      -6.547 -11.036  14.812  0.00  0.00    -0.267 OA
ATOM      2  O   UNL     1      -4.582 -14.281  12.348  0.00  0.00    -0.267 OA
ATOM      4  N   UNL     1      -2.912 -12.734  11.912  0.00  0.00    -0.294 N 
ATOM      5  N   UNL     1      -4.414 -10.797  13.897  0.00  0.00    -0.311 N 
ATOM      7  C   UNL     1      -4.015 -10.572  11.376  0.00  0.00    +0.027 C 
ATOM      8  C   UNL     1      -2.099 -10.617  12.920  0.00  0.00    +0.054 C 
ATOM      9  C   UNL     1      -2.749  -9.828  11.784  0.00  0.00    +0.018 C 
ATOM     10  C   UNL     1      -3.671 -11.995  10.902  0.00  0.00    +0.113 C 
ATOM     11  C   UNL     1      -4.989 -10.576  12.561  0.00  0.00    +0.130 C 
ATOM     12  C   UNL     1      -1.724 -12.028  12.422  0.00  0.00    +0.117 C 
ATOM     13  C   UNL     1      -3.034 -10.733  14.110  0.00  0.00    +0.027 A 
ATOM     14  C   UNL     1      -2.536 -10.822  15.353  0.00  0.00    +0.022 A 
ATOM     15  C   UNL     1      -5.324 -10.981  14.957  0.00  0.00    +0.259 A 
ATOM     16  C   UNL     1      -3.390 -13.976  12.373  0.00  0.00    +0.282 C 
ATOM     17  C   UNL     1      -4.731 -11.111  16.332  0.00  0.00    +0.047 A 
ATOM     18  C   UNL     1      -3.402 -11.014  16.483  0.00  0.00    +0.015 A 
ENDROOT
BRANCH  17  20
ATOM     20  C   UNL     1      -5.568 -11.322  17.469  0.00  0.00    -0.011 A 
ATOM     22  C   UNL     1      -6.497 -12.363  17.469  0.00  0.00    +0.027 A 
ATOM     23  C   UNL     1      -5.459 -10.486  18.580  0.00  0.00    +0.009 A 
ATOM     26  C   UNL     1      -7.315 -12.568  18.579  0.00  0.00    +0.052 A 
ATOM     27  C   UNL     1      -6.277 -10.690  19.691  0.00  0.00    +0.002 A 
ATOM     28  C   UNL     1      -7.206 -11.732  19.690  0.00  0.00    +0.019 A 
BRANCH  26  29
ATOM      6  N   UNL     1      -9.041 -14.501  18.581  0.00  0.00    -0.191 NA
ATOM     29  C   UNL     1      -8.267 -13.634  18.580  0.00  0.00    +0.099 C 
ENDBRANCH  26  29
ENDBRANCH  17  20
BRANCH  16  19
ATOM      3  O   UNL     1      -1.616 -15.566  12.049  0.00  0.00    -0.458 OA
ATOM     19  C   UNL     1      -2.409 -14.902  12.924  0.00  0.00    +0.189 A 
ATOM     21  C   UNL     1      -2.121 -15.246  14.216  0.00  0.00    +0.054 A 
ATOM     24  C   UNL     1      -1.072 -16.194  14.138  0.00  0.00    +0.042 A 
ATOM     25  C   UNL     1      -0.801 -16.353  12.799  0.00  0.00    +0.196 A 
ENDBRANCH  16  19
TORSDOF 3
ENDMDL
