MODEL 1
REMARK VINA RESULT:      -7.9      0.000      0.000
REMARK  Name = 26744154
REMARK  7 active torsions:
REMARK  status: ('A' for Active; 'I' for Inactive)
REMARK    1  A    between atoms: O_1  and  C_10
REMARK    2  A    between atoms: O_3  and  C_28
REMARK    3  A    between atoms: O_3  and  C_29
REMARK    4  A    between atoms: N_4  and  C_12
REMARK    5  A    between atoms: C_8  and  C_13
REMARK    6  A    between atoms: C_12  and  C_14
REMARK    7  A    between atoms: C_18  and  C_22
REMARK                            x       y       z     vdW  Elec       q    Type
REMARK                         _______ _______ _______ _____ _____    ______ ____
ROOT
ATOM      4  N   UNL     1      13.337   7.749  19.470  0.00  0.00    -0.285 NA
ATOM      8  C   UNL     1      14.424   7.027  18.779  0.00  0.00    +0.149 C 
ATOM      9  C   UNL     1      14.454   7.623  17.359  0.00  0.00    +0.061 C 
ATOM     10  C   UNL     1      13.317   8.639  17.335  0.00  0.00    +0.130 C 
ATOM     11  C   UNL     1      12.389   8.159  18.435  0.00  0.00    +0.116 C 
ENDROOT
BRANCH   8  13
ATOM      2  O   UNL     1      16.053   8.372  20.008  0.00  0.00    -0.336 OA
ATOM      5  N   UNL     1      16.676   6.243  19.694  0.00  0.00    -0.190 NA
ATOM      7  N   UNL     1      17.311   8.241  20.610  0.00  0.00    -0.056 NA
ATOM     13  C   UNL     1      15.753   7.151  19.493  0.00  0.00    +0.245 A 
ATOM     18  C   UNL     1      17.611   6.959  20.383  0.00  0.00    +0.202 A 
BRANCH  18  22
ATOM     22  C   UNL     1      18.836   6.362  20.831  0.00  0.00    +0.023 A 
ATOM     24  C   UNL     1      19.441   6.809  22.006  0.00  0.00    +0.015 A 
ATOM     25  C   UNL     1      19.423   5.336  20.091  0.00  0.00    +0.015 A 
ATOM     26  C   UNL     1      20.633   6.229  22.440  0.00  0.00    +0.046 A 
ATOM     27  C   UNL     1      20.615   4.756  20.525  0.00  0.00    +0.046 A 
ATOM     28  C   UNL     1      21.220   5.203  21.700  0.00  0.00    +0.120 A 
BRANCH  28   3
ATOM      3  O   UNL     1      22.382   4.637  22.124  0.00  0.00    -0.495 OA
ATOM     29  C   UNL     1      22.330   3.268  22.522  0.00  0.00    +0.277 C 
ENDBRANCH  28   3
ENDBRANCH  18  22
ENDBRANCH   8  13
BRANCH  10   1
ATOM      1  O   UNL     1      12.676   8.645  16.074  0.00  0.00    -0.390 OA
ATOM     30  H   UNL     1      12.375   7.738  15.895  0.00  0.00    +0.210 HD
ENDBRANCH  10   1
BRANCH   4  12
ATOM     12  C   UNL     1      12.699   6.960  20.516  0.00  0.00    +0.122 C 
BRANCH  12  14
ATOM      6  N   UNL     1       9.978   8.515  22.443  0.00  0.00    -0.360 N 
ATOM     14  C   UNL     1      11.781   7.797  21.367  0.00  0.00    -0.008 A 
ATOM     15  C   UNL     1      12.114   9.009  22.033  0.00  0.00    +0.004 A 
ATOM     16  C   UNL     1      10.461   7.520  21.638  0.00  0.00    +0.088 A 
ATOM     17  C   UNL     1      10.965   9.439  22.701  0.00  0.00    +0.047 A 
ATOM     19  C   UNL     1      13.287   9.784  22.133  0.00  0.00    +0.010 A 
ATOM     20  C   UNL     1      10.930  10.609  23.467  0.00  0.00    +0.026 A 
ATOM     21  C   UNL     1      13.266  10.958  22.895  0.00  0.00    +0.001 A 
ATOM     23  C   UNL     1      12.106  11.363  23.551  0.00  0.00    +0.002 A 
ATOM     31  H   UNL     1       9.033   8.565  22.799  0.00  0.00    +0.165 HD
ENDBRANCH  12  14
ENDBRANCH   4  12
TORSDOF 6
ENDMDL
MODEL 2
REMARK VINA RESULT:      -7.9      3.343      8.753
REMARK  Name = 26744154
REMARK  7 active torsions:
REMARK  status: ('A' for Active; 'I' for Inactive)
REMARK    1  A    between atoms: O_1  and  C_10
REMARK    2  A    between atoms: O_3  and  C_28
REMARK    3  A    between atoms: O_3  and  C_29
REMARK    4  A    between atoms: N_4  and  C_12
REMARK    5  A    between atoms: C_8  and  C_13
REMARK    6  A    between atoms: C_12  and  C_14
REMARK    7  A    between atoms: C_18  and  C_22
REMARK                            x       y       z     vdW  Elec       q    Type
REMARK                         _______ _______ _______ _____ _____    ______ ____
ROOT
ATOM      4  N   UNL     1      13.168   8.129  20.857  0.00  0.00    -0.285 NA
ATOM      8  C   UNL     1      11.903   8.820  20.538  0.00  0.00    +0.149 C 
ATOM      9  C   UNL     1      10.797   7.852  20.999  0.00  0.00    +0.061 C 
ATOM     10  C   UNL     1      11.539   6.627  21.520  0.00  0.00    +0.130 C 
ATOM     11  C   UNL     1      12.880   6.696  20.814  0.00  0.00    +0.116 C 
ENDROOT
BRANCH   8  13
ATOM      2  O   UNL     1      11.896  11.259  20.371  0.00  0.00    -0.336 OA
ATOM      5  N   UNL     1      11.630  10.484  22.456  0.00  0.00    -0.190 NA
ATOM      7  N   UNL     1      11.774  12.386  21.194  0.00  0.00    -0.056 NA
ATOM     13  C   UNL     1      11.800  10.181  21.193  0.00  0.00    +0.245 A 
ATOM     18  C   UNL     1      11.620  11.847  22.406  0.00  0.00    +0.202 A 
BRANCH  18  22
ATOM     22  C   UNL     1      11.454  12.642  23.588  0.00  0.00    +0.023 A 
ATOM     24  C   UNL     1      12.355  12.517  24.646  0.00  0.00    +0.015 A 
ATOM     25  C   UNL     1      10.391  13.540  23.681  0.00  0.00    +0.015 A 
ATOM     26  C   UNL     1      12.191  13.289  25.796  0.00  0.00    +0.046 A 
ATOM     27  C   UNL     1      10.227  14.313  24.831  0.00  0.00    +0.046 A 
ATOM     28  C   UNL     1      11.128  14.187  25.888  0.00  0.00    +0.120 A 
BRANCH  28   3
ATOM      3  O   UNL     1      10.968  14.941  27.010  0.00  0.00    -0.495 OA
ATOM     29  C   UNL     1      12.148  15.285  27.734  0.00  0.00    +0.277 C 
ENDBRANCH  28   3
ENDBRANCH  18  22
ENDBRANCH   8  13
BRANCH  10   1
ATOM      1  O   UNL     1      10.838   5.441  21.200  0.00  0.00    -0.390 OA
ATOM     30  H   UNL     1      10.452   5.561  20.315  0.00  0.00    +0.210 HD
ENDBRANCH  10   1
BRANCH   4  12
ATOM     12  C   UNL     1      14.262   8.495  19.967  0.00  0.00    +0.122 C 
BRANCH  12  14
ATOM      6  N   UNL     1      17.336   8.599  21.987  0.00  0.00    -0.360 N 
ATOM     14  C   UNL     1      15.604   8.320  20.627  0.00  0.00    -0.008 A 
ATOM     15  C   UNL     1      16.599   7.364  20.281  0.00  0.00    +0.004 A 
ATOM     16  C   UNL     1      16.086   9.065  21.678  0.00  0.00    +0.088 A 
ATOM     17  C   UNL     1      17.675   7.560  21.150  0.00  0.00    +0.047 A 
ATOM     19  C   UNL     1      16.688   6.346  19.310  0.00  0.00    +0.010 A 
ATOM     20  C   UNL     1      18.840   6.787  21.096  0.00  0.00    +0.026 A 
ATOM     21  C   UNL     1      17.848   5.565  19.245  0.00  0.00    +0.001 A 
ATOM     23  C   UNL     1      18.906   5.783  20.125  0.00  0.00    +0.002 A 
ATOM     31  H   UNL     1      17.924   8.963  22.724  0.00  0.00    +0.165 HD
ENDBRANCH  12  14
ENDBRANCH   4  12
TORSDOF 6
ENDMDL
MODEL 3
REMARK VINA RESULT:      -7.9      2.495      4.988
REMARK  Name = 26744154
REMARK  7 active torsions:
REMARK  status: ('A' for Active; 'I' for Inactive)
REMARK    1  A    between atoms: O_1  and  C_10
REMARK    2  A    between atoms: O_3  and  C_28
REMARK    3  A    between atoms: O_3  and  C_29
REMARK    4  A    between atoms: N_4  and  C_12
REMARK    5  A    between atoms: C_8  and  C_13
REMARK    6  A    between atoms: C_12  and  C_14
REMARK    7  A    between atoms: C_18  and  C_22
REMARK                            x       y       z     vdW  Elec       q    Type
REMARK                         _______ _______ _______ _____ _____    ______ ____
ROOT
ATOM      4  N   UNL     1      12.169  10.814  22.786  0.00  0.00    -0.285 NA
ATOM      8  C   UNL     1      13.326  11.728  22.708  0.00  0.00    +0.149 C 
ATOM      9  C   UNL     1      13.564  12.187  24.159  0.00  0.00    +0.061 C 
ATOM     10  C   UNL     1      12.463  11.515  24.970  0.00  0.00    +0.130 C 
ATOM     11  C   UNL     1      11.382  11.240  23.943  0.00  0.00    +0.116 C 
ENDROOT
BRANCH   8  13
ATOM      2  O   UNL     1      15.478  11.908  21.563  0.00  0.00    -0.336 OA
ATOM      5  N   UNL     1      14.844   9.803  21.994  0.00  0.00    -0.190 NA
ATOM      7  N   UNL     1      16.495  11.084  21.064  0.00  0.00    -0.056 NA
ATOM     13  C   UNL     1      14.546  11.074  22.094  0.00  0.00    +0.245 A 
ATOM     18  C   UNL     1      16.048   9.860  21.355  0.00  0.00    +0.202 A 
BRANCH  18  22
ATOM     22  C   UNL     1      16.781   8.672  21.023  0.00  0.00    +0.023 A 
ATOM     24  C   UNL     1      16.238   7.741  20.137  0.00  0.00    +0.015 A 
ATOM     25  C   UNL     1      18.037   8.446  21.587  0.00  0.00    +0.015 A 
ATOM     26  C   UNL     1      16.950   6.586  19.817  0.00  0.00    +0.046 A 
ATOM     27  C   UNL     1      18.749   7.291  21.266  0.00  0.00    +0.046 A 
ATOM     28  C   UNL     1      18.206   6.360  20.381  0.00  0.00    +0.120 A 
BRANCH  28   3
ATOM      3  O   UNL     1      18.901   5.234  20.068  0.00  0.00    -0.495 OA
ATOM     29  C   UNL     1      20.270   5.185  20.465  0.00  0.00    +0.277 C 
ENDBRANCH  28   3
ENDBRANCH  18  22
ENDBRANCH   8  13
BRANCH  10   1
ATOM      1  O   UNL     1      12.003  12.371  25.998  0.00  0.00    -0.390 OA
ATOM     30  H   UNL     1      12.783  12.795  26.395  0.00  0.00    +0.210 HD
ENDBRANCH  10   1
BRANCH   4  12
ATOM     12  C   UNL     1      11.376  10.786  21.564  0.00  0.00    +0.122 C 
BRANCH  12  14
ATOM      6  N   UNL     1      11.308   7.353  20.243  0.00  0.00    -0.360 N 
ATOM     14  C   UNL     1      11.529   9.483  20.826  0.00  0.00    -0.008 A 
ATOM     15  C   UNL     1      12.330   9.251  19.673  0.00  0.00    +0.004 A 
ATOM     16  C   UNL     1      10.914   8.297  21.153  0.00  0.00    +0.088 A 
ATOM     17  C   UNL     1      12.173   7.907  19.327  0.00  0.00    +0.047 A 
ATOM     19  C   UNL     1      13.176  10.060  18.886  0.00  0.00    +0.010 A 
ATOM     20  C   UNL     1      12.822   7.328  18.232  0.00  0.00    +0.026 A 
ATOM     21  C   UNL     1      13.831   9.494  17.787  0.00  0.00    +0.001 A 
ATOM     23  C   UNL     1      13.656   8.149  17.466  0.00  0.00    +0.002 A 
ATOM     31  H   UNL     1      11.006   6.387  20.243  0.00  0.00    +0.165 HD
ENDBRANCH  12  14
ENDBRANCH   4  12
TORSDOF 6
ENDMDL
MODEL 4
REMARK VINA RESULT:      -7.4     25.584     29.236
REMARK  Name = 26744154
REMARK  7 active torsions:
REMARK  status: ('A' for Active; 'I' for Inactive)
REMARK    1  A    between atoms: O_1  and  C_10
REMARK    2  A    between atoms: O_3  and  C_28
REMARK    3  A    between atoms: O_3  and  C_29
REMARK    4  A    between atoms: N_4  and  C_12
REMARK    5  A    between atoms: C_8  and  C_13
REMARK    6  A    between atoms: C_12  and  C_14
REMARK    7  A    between atoms: C_18  and  C_22
REMARK                            x       y       z     vdW  Elec       q    Type
REMARK                         _______ _______ _______ _____ _____    ______ ____
ROOT
ATOM      4  N   UNL     1      -3.565 -10.684  14.943  0.00  0.00    -0.285 NA
ATOM      8  C   UNL     1      -3.543 -11.414  16.226  0.00  0.00    +0.149 C 
ATOM      9  C   UNL     1      -2.185 -11.058  16.859  0.00  0.00    +0.061 C 
ATOM     10  C   UNL     1      -1.497 -10.162  15.836  0.00  0.00    +0.130 C 
ATOM     11  C   UNL     1      -2.171 -10.531  14.529  0.00  0.00    +0.116 C 
ENDROOT
BRANCH   8  13
ATOM      2  O   UNL     1      -4.459 -10.982  18.451  0.00  0.00    -0.336 OA
ATOM      5  N   UNL     1      -5.960 -10.817  16.796  0.00  0.00    -0.190 NA
ATOM      7  N   UNL     1      -5.676 -10.648  19.060  0.00  0.00    -0.056 NA
ATOM     13  C   UNL     1      -4.715 -11.061  17.119  0.00  0.00    +0.245 A 
ATOM     18  C   UNL     1      -6.510 -10.569  18.019  0.00  0.00    +0.202 A 
BRANCH  18  22
ATOM     22  C   UNL     1      -7.900 -10.243  18.168  0.00  0.00    +0.023 A 
ATOM     24  C   UNL     1      -8.465  -9.228  17.396  0.00  0.00    +0.015 A 
ATOM     25  C   UNL     1      -8.685 -10.940  19.086  0.00  0.00    +0.015 A 
ATOM     26  C   UNL     1      -9.815  -8.911  17.542  0.00  0.00    +0.046 A 
ATOM     27  C   UNL     1     -10.036 -10.622  19.232  0.00  0.00    +0.046 A 
ATOM     28  C   UNL     1     -10.601  -9.607  18.460  0.00  0.00    +0.120 A 
BRANCH  28   3
ATOM      3  O   UNL     1     -11.918  -9.298  18.602  0.00  0.00    -0.495 OA
ATOM     29  C   UNL     1     -12.572  -9.774  19.778  0.00  0.00    +0.277 C 
ENDBRANCH  28   3
ENDBRANCH  18  22
ENDBRANCH   8  13
BRANCH  10   1
ATOM      1  O   UNL     1      -0.106 -10.417  15.800  0.00  0.00    -0.390 OA
ATOM     30  H   UNL     1       0.011 -11.370  15.648  0.00  0.00    +0.210 HD
ENDBRANCH  10   1
BRANCH   4  12
ATOM     12  C   UNL     1      -4.371 -11.341  13.923  0.00  0.00    +0.122 C 
BRANCH  12  14
ATOM      6  N   UNL     1      -6.616  -8.904  12.323  0.00  0.00    -0.360 N 
ATOM     14  C   UNL     1      -5.098 -10.347  13.056  0.00  0.00    -0.008 A 
ATOM     15  C   UNL     1      -4.684  -9.876  11.779  0.00  0.00    +0.004 A 
ATOM     16  C   UNL     1      -6.289  -9.732  13.363  0.00  0.00    +0.088 A 
ATOM     17  C   UNL     1      -5.654  -8.971  11.341  0.00  0.00    +0.047 A 
ATOM     19  C   UNL     1      -3.572 -10.132  10.950  0.00  0.00    +0.010 A 
ATOM     20  C   UNL     1      -5.569  -8.307  10.113  0.00  0.00    +0.026 A 
ATOM     21  C   UNL     1      -3.475  -9.475   9.718  0.00  0.00    +0.001 A 
ATOM     23  C   UNL     1      -4.457  -8.577   9.307  0.00  0.00    +0.002 A 
ATOM     31  H   UNL     1      -7.444  -8.324  12.282  0.00  0.00    +0.165 HD
ENDBRANCH  12  14
ENDBRANCH   4  12
TORSDOF 6
ENDMDL
MODEL 5
REMARK VINA RESULT:      -7.3     27.999     31.978
REMARK  Name = 26744154
REMARK  7 active torsions:
REMARK  status: ('A' for Active; 'I' for Inactive)
REMARK    1  A    between atoms: O_1  and  C_10
REMARK    2  A    between atoms: O_3  and  C_28
REMARK    3  A    between atoms: O_3  and  C_29
REMARK    4  A    between atoms: N_4  and  C_12
REMARK    5  A    between atoms: C_8  and  C_13
REMARK    6  A    between atoms: C_12  and  C_14
REMARK    7  A    between atoms: C_18  and  C_22
REMARK                            x       y       z     vdW  Elec       q    Type
REMARK                         _______ _______ _______ _____ _____    ______ ____
ROOT
ATOM      4  N   UNL     1     -16.731   4.966  20.769  0.00  0.00    -0.285 NA
ATOM      8  C   UNL     1     -17.909   4.463  21.505  0.00  0.00    +0.149 C 
ATOM      9  C   UNL     1     -18.780   3.780  20.434  0.00  0.00    +0.061 C 
ATOM     10  C   UNL     1     -18.032   3.992  19.123  0.00  0.00    +0.130 C 
ATOM     11  C   UNL     1     -17.174   5.212  19.397  0.00  0.00    +0.116 C 
ENDROOT
BRANCH   8  13
ATOM      2  O   UNL     1     -17.407   2.214  22.321  0.00  0.00    -0.336 OA
ATOM      5  N   UNL     1     -17.311   3.803  23.898  0.00  0.00    -0.190 NA
ATOM      7  N   UNL     1     -17.062   1.562  23.512  0.00  0.00    -0.056 NA
ATOM     13  C   UNL     1     -17.534   3.530  22.637  0.00  0.00    +0.245 A 
ATOM     18  C   UNL     1     -17.026   2.565  24.394  0.00  0.00    +0.202 A 
BRANCH  18  22
ATOM     22  C   UNL     1     -16.706   2.363  25.778  0.00  0.00    +0.023 A 
ATOM     24  C   UNL     1     -16.199   3.418  26.538  0.00  0.00    +0.015 A 
ATOM     25  C   UNL     1     -16.900   1.113  26.364  0.00  0.00    +0.015 A 
ATOM     26  C   UNL     1     -15.887   3.220  27.883  0.00  0.00    +0.046 A 
ATOM     27  C   UNL     1     -16.588   0.915  27.709  0.00  0.00    +0.046 A 
ATOM     28  C   UNL     1     -16.081   1.970  28.469  0.00  0.00    +0.120 A 
BRANCH  28   3
ATOM      3  O   UNL     1     -15.777   1.777  29.780  0.00  0.00    -0.495 OA
ATOM     29  C   UNL     1     -15.637   0.428  30.222  0.00  0.00    +0.277 C 
ENDBRANCH  28   3
ENDBRANCH  18  22
ENDBRANCH   8  13
BRANCH  10   1
ATOM      1  O   UNL     1     -18.937   4.215  18.059  0.00  0.00    -0.390 OA
ATOM     30  H   UNL     1     -19.542   3.455  18.027  0.00  0.00    +0.210 HD
ENDBRANCH  10   1
BRANCH   4  12
ATOM     12  C   UNL     1     -16.140   6.152  21.375  0.00  0.00    +0.122 C 
BRANCH  12  14
ATOM      6  N   UNL     1     -12.574   5.387  21.858  0.00  0.00    -0.360 N 
ATOM     14  C   UNL     1     -14.637   6.072  21.412  0.00  0.00    -0.008 A 
ATOM     15  C   UNL     1     -13.725   6.968  20.787  0.00  0.00    +0.004 A 
ATOM     16  C   UNL     1     -13.899   5.111  22.063  0.00  0.00    +0.088 A 
ATOM     17  C   UNL     1     -12.437   6.515  21.083  0.00  0.00    +0.047 A 
ATOM     19  C   UNL     1     -13.873   8.125  19.995  0.00  0.00    +0.010 A 
ATOM     20  C   UNL     1     -11.285   7.163  20.624  0.00  0.00    +0.026 A 
ATOM     21  C   UNL     1     -12.729   8.783  19.530  0.00  0.00    +0.001 A 
ATOM     23  C   UNL     1     -11.456   8.309  19.840  0.00  0.00    +0.002 A 
ATOM     31  H   UNL     1     -11.805   4.840  22.223  0.00  0.00    +0.165 HD
ENDBRANCH  12  14
ENDBRANCH   4  12
TORSDOF 6
ENDMDL
MODEL 6
REMARK VINA RESULT:      -7.0      4.669      7.677
REMARK  Name = 26744154
REMARK  7 active torsions:
REMARK  status: ('A' for Active; 'I' for Inactive)
REMARK    1  A    between atoms: O_1  and  C_10
REMARK    2  A    between atoms: O_3  and  C_28
REMARK    3  A    between atoms: O_3  and  C_29
REMARK    4  A    between atoms: N_4  and  C_12
REMARK    5  A    between atoms: C_8  and  C_13
REMARK    6  A    between atoms: C_12  and  C_14
REMARK    7  A    between atoms: C_18  and  C_22
REMARK                            x       y       z     vdW  Elec       q    Type
REMARK                         _______ _______ _______ _____ _____    ______ ____
ROOT
ATOM      4  N   UNL     1      13.348   8.397  17.497  0.00  0.00    -0.285 NA
ATOM      8  C   UNL     1      13.426   8.712  16.057  0.00  0.00    +0.149 C 
ATOM      9  C   UNL     1      11.981   9.054  15.649  0.00  0.00    +0.061 C 
ATOM     10  C   UNL     1      11.157   8.858  16.916  0.00  0.00    +0.130 C 
ATOM     11  C   UNL     1      11.995   7.898  17.739  0.00  0.00    +0.116 C 
ENDROOT
BRANCH   8  13
ATOM      2  O   UNL     1      14.491  10.821  16.685  0.00  0.00    -0.336 OA
ATOM      5  N   UNL     1      15.181   9.998  14.719  0.00  0.00    -0.190 NA
ATOM      7  N   UNL     1      15.439  11.728  16.193  0.00  0.00    -0.056 NA
ATOM     13  C   UNL     1      14.400   9.832  15.757  0.00  0.00    +0.245 A 
ATOM     18  C   UNL     1      15.798  11.173  15.033  0.00  0.00    +0.202 A 
BRANCH  18  22
ATOM     22  C   UNL     1      16.772  11.768  14.163  0.00  0.00    +0.023 A 
ATOM     24  C   UNL     1      18.095  11.900  14.584  0.00  0.00    +0.015 A 
ATOM     25  C   UNL     1      16.396  12.214  12.896  0.00  0.00    +0.015 A 
ATOM     26  C   UNL     1      19.041  12.480  13.738  0.00  0.00    +0.046 A 
ATOM     27  C   UNL     1      17.342  12.794  12.051  0.00  0.00    +0.046 A 
ATOM     28  C   UNL     1      18.665  12.926  12.472  0.00  0.00    +0.120 A 
BRANCH  28   3
ATOM      3  O   UNL     1      19.587  13.491  11.647  0.00  0.00    -0.495 OA
ATOM     29  C   UNL     1      19.861  12.815  10.421  0.00  0.00    +0.277 C 
ENDBRANCH  28   3
ENDBRANCH  18  22
ENDBRANCH   8  13
BRANCH  10   1
ATOM      1  O   UNL     1       9.887   8.316  16.611  0.00  0.00    -0.390 OA
ATOM     30  H   UNL     1       9.713   8.494  15.670  0.00  0.00    +0.210 HD
ENDBRANCH  10   1
BRANCH   4  12
ATOM     12  C   UNL     1      14.367   7.451  17.933  0.00  0.00    +0.122 C 
BRANCH  12  14
ATOM      6  N   UNL     1      15.865   9.279  20.753  0.00  0.00    -0.360 N 
ATOM     14  C   UNL     1      15.174   7.988  19.086  0.00  0.00    -0.008 A 
ATOM     15  C   UNL     1      16.346   7.406  19.643  0.00  0.00    +0.004 A 
ATOM     16  C   UNL     1      14.903   9.139  19.789  0.00  0.00    +0.088 A 
ATOM     17  C   UNL     1      16.760   8.235  20.687  0.00  0.00    +0.047 A 
ATOM     19  C   UNL     1      17.098   6.247  19.358  0.00  0.00    +0.010 A 
ATOM     20  C   UNL     1      17.891   7.965  21.465  0.00  0.00    +0.026 A 
ATOM     21  C   UNL     1      18.232   5.965  20.127  0.00  0.00    +0.001 A 
ATOM     23  C   UNL     1      18.621   6.810  21.164  0.00  0.00    +0.002 A 
ATOM     31  H   UNL     1      15.911  10.039  21.419  0.00  0.00    +0.165 HD
ENDBRANCH  12  14
ENDBRANCH   4  12
TORSDOF 6
ENDMDL
MODEL 7
REMARK VINA RESULT:      -7.0      1.738      2.732
REMARK  Name = 26744154
REMARK  7 active torsions:
REMARK  status: ('A' for Active; 'I' for Inactive)
REMARK    1  A    between atoms: O_1  and  C_10
REMARK    2  A    between atoms: O_3  and  C_28
REMARK    3  A    between atoms: O_3  and  C_29
REMARK    4  A    between atoms: N_4  and  C_12
REMARK    5  A    between atoms: C_8  and  C_13
REMARK    6  A    between atoms: C_12  and  C_14
REMARK    7  A    between atoms: C_18  and  C_22
REMARK                            x       y       z     vdW  Elec       q    Type
REMARK                         _______ _______ _______ _____ _____    ______ ____
ROOT
ATOM      4  N   UNL     1      13.407   8.724  20.573  0.00  0.00    -0.285 NA
ATOM      8  C   UNL     1      13.515   7.288  20.250  0.00  0.00    +0.149 C 
ATOM      9  C   UNL     1      12.644   7.099  18.995  0.00  0.00    +0.061 C 
ATOM     10  C   UNL     1      12.051   8.475  18.716  0.00  0.00    +0.130 C 
ATOM     11  C   UNL     1      12.110   9.167  20.064  0.00  0.00    +0.116 C 
ENDROOT
BRANCH   8  13
ATOM      2  O   UNL     1      15.239   6.287  18.835  0.00  0.00    -0.336 OA
ATOM      5  N   UNL     1      15.966   6.912  20.860  0.00  0.00    -0.190 NA
ATOM      7  N   UNL     1      16.601   5.961  18.879  0.00  0.00    -0.056 NA
ATOM     13  C   UNL     1      14.947   6.843  20.041  0.00  0.00    +0.245 A 
ATOM     18  C   UNL     1      16.957   6.359  20.103  0.00  0.00    +0.202 A 
BRANCH  18  22
ATOM     22  C   UNL     1      18.296   6.220  20.600  0.00  0.00    +0.023 A 
ATOM     24  C   UNL     1      19.163   5.293  20.021  0.00  0.00    +0.015 A 
ATOM     25  C   UNL     1      18.731   7.011  21.663  0.00  0.00    +0.015 A 
ATOM     26  C   UNL     1      20.463   5.158  20.506  0.00  0.00    +0.046 A 
ATOM     27  C   UNL     1      20.031   6.876  22.148  0.00  0.00    +0.046 A 
ATOM     28  C   UNL     1      20.898   5.949  21.569  0.00  0.00    +0.120 A 
BRANCH  28   3
ATOM      3  O   UNL     1      22.167   5.817  22.043  0.00  0.00    -0.495 OA
ATOM     29  C   UNL     1      22.317   5.272  23.352  0.00  0.00    +0.277 C 
ENDBRANCH  28   3
ENDBRANCH  18  22
ENDBRANCH   8  13
BRANCH  10   1
ATOM      1  O   UNL     1      10.724   8.364  18.240  0.00  0.00    -0.390 OA
ATOM     30  H   UNL     1      10.228   9.129  18.579  0.00  0.00    +0.210 HD
ENDBRANCH  10   1
BRANCH   4  12
ATOM     12  C   UNL     1      13.564   9.007  21.994  0.00  0.00    +0.122 C 
BRANCH  12  14
ATOM      6  N   UNL     1      14.261  12.605  22.317  0.00  0.00    -0.360 N 
ATOM     14  C   UNL     1      13.602  10.487  22.270  0.00  0.00    -0.008 A 
ATOM     15  C   UNL     1      12.629  11.239  22.986  0.00  0.00    +0.004 A 
ATOM     16  C   UNL     1      14.593  11.354  21.873  0.00  0.00    +0.088 A 
ATOM     17  C   UNL     1      13.067  12.566  23.000  0.00  0.00    +0.047 A 
ATOM     19  C   UNL     1      11.414  10.919  23.624  0.00  0.00    +0.010 A 
ATOM     20  C   UNL     1      12.348  13.591  23.623  0.00  0.00    +0.026 A 
ATOM     21  C   UNL     1      10.684  11.935  24.251  0.00  0.00    +0.001 A 
ATOM     23  C   UNL     1      11.145  13.250  24.250  0.00  0.00    +0.002 A 
ATOM     31  H   UNL     1      14.812  13.439  22.165  0.00  0.00    +0.165 HD
ENDBRANCH  12  14
ENDBRANCH   4  12
TORSDOF 6
ENDMDL
MODEL 8
REMARK VINA RESULT:      -7.0     26.530     29.747
REMARK  Name = 26744154
REMARK  7 active torsions:
REMARK  status: ('A' for Active; 'I' for Inactive)
REMARK    1  A    between atoms: O_1  and  C_10
REMARK    2  A    between atoms: O_3  and  C_28
REMARK    3  A    between atoms: O_3  and  C_29
REMARK    4  A    between atoms: N_4  and  C_12
REMARK    5  A    between atoms: C_8  and  C_13
REMARK    6  A    between atoms: C_12  and  C_14
REMARK    7  A    between atoms: C_18  and  C_22
REMARK                            x       y       z     vdW  Elec       q    Type
REMARK                         _______ _______ _______ _____ _____    ______ ____
ROOT
ATOM      4  N   UNL     1      -4.396 -11.043  14.815  0.00  0.00    -0.285 NA
ATOM      8  C   UNL     1      -4.859 -11.373  16.178  0.00  0.00    +0.149 C 
ATOM      9  C   UNL     1      -3.665 -11.040  17.092  0.00  0.00    +0.061 C 
ATOM     10  C   UNL     1      -2.564 -10.573  16.147  0.00  0.00    +0.130 C 
ATOM     11  C   UNL     1      -2.942 -11.205  14.821  0.00  0.00    +0.116 C 
ENDROOT
BRANCH   8  13
ATOM      2  O   UNL     1      -6.377 -10.521  17.894  0.00  0.00    -0.336 OA
ATOM      5  N   UNL     1      -7.012 -10.055  15.796  0.00  0.00    -0.190 NA
ATOM      7  N   UNL     1      -7.573  -9.800  17.999  0.00  0.00    -0.056 NA
ATOM     13  C   UNL     1      -6.118 -10.626  16.564  0.00  0.00    +0.245 A 
ATOM     18  C   UNL     1      -7.885  -9.562  16.722  0.00  0.00    +0.202 A 
BRANCH  18  22
ATOM     22  C   UNL     1      -9.060  -8.835  16.338  0.00  0.00    +0.023 A 
ATOM     24  C   UNL     1      -9.631  -7.915  17.218  0.00  0.00    +0.015 A 
ATOM     25  C   UNL     1      -9.632  -9.048  15.084  0.00  0.00    +0.015 A 
ATOM     26  C   UNL     1     -10.774  -7.210  16.843  0.00  0.00    +0.046 A 
ATOM     27  C   UNL     1     -10.776  -8.342  14.709  0.00  0.00    +0.046 A 
ATOM     28  C   UNL     1     -11.347  -7.423  15.589  0.00  0.00    +0.120 A 
BRANCH  28   3
ATOM      3  O   UNL     1     -12.462  -6.735  15.223  0.00  0.00    -0.495 OA
ATOM     29  C   UNL     1     -12.269  -5.548  14.456  0.00  0.00    +0.277 C 
ENDBRANCH  28   3
ENDBRANCH  18  22
ENDBRANCH   8  13
BRANCH  10   1
ATOM      1  O   UNL     1      -1.297 -11.015  16.595  0.00  0.00    -0.390 OA
ATOM     30  H   UNL     1      -1.131 -10.598  17.458  0.00  0.00    +0.210 HD
ENDBRANCH  10   1
BRANCH   4  12
ATOM     12  C   UNL     1      -5.033 -11.848  13.782  0.00  0.00    +0.122 C 
BRANCH  12  14
ATOM      6  N   UNL     1      -6.949  -9.932  11.293  0.00  0.00    -0.360 N 
ATOM     14  C   UNL     1      -5.560 -10.999  12.655  0.00  0.00    -0.008 A 
ATOM     15  C   UNL     1      -4.786 -10.324  11.670  0.00  0.00    +0.004 A 
ATOM     16  C   UNL     1      -6.886 -10.739  12.396  0.00  0.00    +0.088 A 
ATOM     17  C   UNL     1      -5.682  -9.662  10.827  0.00  0.00    +0.047 A 
ATOM     19  C   UNL     1      -3.405 -10.212  11.414  0.00  0.00    +0.010 A 
ATOM     20  C   UNL     1      -5.265  -8.891   9.737  0.00  0.00    +0.026 A 
ATOM     21  C   UNL     1      -2.973  -9.444  10.326  0.00  0.00    +0.001 A 
ATOM     23  C   UNL     1      -3.890  -8.794   9.502  0.00  0.00    +0.002 A 
ATOM     31  H   UNL     1      -7.804  -9.583  10.879  0.00  0.00    +0.165 HD
ENDBRANCH  12  14
ENDBRANCH   4  12
TORSDOF 6
ENDMDL
MODEL 9
REMARK VINA RESULT:      -7.0      2.527      4.635
REMARK  Name = 26744154
REMARK  7 active torsions:
REMARK  status: ('A' for Active; 'I' for Inactive)
REMARK    1  A    between atoms: O_1  and  C_10
REMARK    2  A    between atoms: O_3  and  C_28
REMARK    3  A    between atoms: O_3  and  C_29
REMARK    4  A    between atoms: N_4  and  C_12
REMARK    5  A    between atoms: C_8  and  C_13
REMARK    6  A    between atoms: C_12  and  C_14
REMARK    7  A    between atoms: C_18  and  C_22
REMARK                            x       y       z     vdW  Elec       q    Type
REMARK                         _______ _______ _______ _____ _____    ______ ____
ROOT
ATOM      4  N   UNL     1      12.846   8.720  19.789  0.00  0.00    -0.285 NA
ATOM      8  C   UNL     1      13.345   8.786  21.177  0.00  0.00    +0.149 C 
ATOM      9  C   UNL     1      12.635   7.630  21.907  0.00  0.00    +0.061 C 
ATOM     10  C   UNL     1      11.723   7.004  20.858  0.00  0.00    +0.130 C 
ATOM     11  C   UNL     1      11.513   8.123  19.856  0.00  0.00    +0.116 C 
ENDROOT
BRANCH   8  13
ATOM      2  O   UNL     1      15.509   9.802  21.684  0.00  0.00    -0.336 OA
ATOM      5  N   UNL     1      15.638   7.680  20.977  0.00  0.00    -0.190 NA
ATOM      7  N   UNL     1      16.872   9.475  21.677  0.00  0.00    -0.056 NA
ATOM     13  C   UNL     1      14.854   8.690  21.259  0.00  0.00    +0.245 A 
ATOM     18  C   UNL     1      16.866   8.210  21.249  0.00  0.00    +0.202 A 
BRANCH  18  22
ATOM     22  C   UNL     1      18.069   7.446  21.083  0.00  0.00    +0.023 A 
ATOM     24  C   UNL     1      18.042   6.249  20.367  0.00  0.00    +0.015 A 
ATOM     25  C   UNL     1      19.265   7.899  21.638  0.00  0.00    +0.015 A 
ATOM     26  C   UNL     1      19.212   5.506  20.208  0.00  0.00    +0.046 A 
ATOM     27  C   UNL     1      20.435   7.157  21.479  0.00  0.00    +0.046 A 
ATOM     28  C   UNL     1      20.408   5.959  20.764  0.00  0.00    +0.120 A 
BRANCH  28   3
ATOM      3  O   UNL     1      21.550   5.235  20.608  0.00  0.00    -0.495 OA
ATOM     29  C   UNL     1      21.495   3.854  20.961  0.00  0.00    +0.277 C 
ENDBRANCH  28   3
ENDBRANCH  18  22
ENDBRANCH   8  13
BRANCH  10   1
ATOM      1  O   UNL     1      10.504   6.584  21.439  0.00  0.00    -0.390 OA
ATOM     30  H   UNL     1      10.305   5.698  21.091  0.00  0.00    +0.210 HD
ENDBRANCH  10   1
BRANCH   4  12
ATOM     12  C   UNL     1      12.833  10.016  19.122  0.00  0.00    +0.122 C 
BRANCH  12  14
ATOM      6  N   UNL     1      13.762   9.287  15.638  0.00  0.00    -0.360 N 
ATOM     14  C   UNL     1      13.397   9.935  17.729  0.00  0.00    -0.008 A 
ATOM     15  C   UNL     1      14.411  10.766  17.176  0.00  0.00    +0.004 A 
ATOM     16  C   UNL     1      13.018   9.035  16.759  0.00  0.00    +0.088 A 
ATOM     17  C   UNL     1      14.621  10.338  15.863  0.00  0.00    +0.047 A 
ATOM     19  C   UNL     1      15.172  11.845  17.668  0.00  0.00    +0.010 A 
ATOM     20  C   UNL     1      15.558  10.937  15.014  0.00  0.00    +0.026 A 
ATOM     21  C   UNL     1      16.113  12.453  16.830  0.00  0.00    +0.001 A 
ATOM     23  C   UNL     1      16.302  12.006  15.523  0.00  0.00    +0.002 A 
ATOM     31  H   UNL     1      13.690   8.775  14.768  0.00  0.00    +0.165 HD
ENDBRANCH  12  14
ENDBRANCH   4  12
TORSDOF 6
ENDMDL
MODEL 10
REMARK VINA RESULT:      -6.9     26.946     28.888
REMARK  Name = 26744154
REMARK  7 active torsions:
REMARK  status: ('A' for Active; 'I' for Inactive)
REMARK    1  A    between atoms: O_1  and  C_10
REMARK    2  A    between atoms: O_3  and  C_28
REMARK    3  A    between atoms: O_3  and  C_29
REMARK    4  A    between atoms: N_4  and  C_12
REMARK    5  A    between atoms: C_8  and  C_13
REMARK    6  A    between atoms: C_12  and  C_14
REMARK    7  A    between atoms: C_18  and  C_22
REMARK                            x       y       z     vdW  Elec       q    Type
REMARK                         _______ _______ _______ _____ _____    ______ ____
ROOT
ATOM      4  N   UNL     1      -3.301 -11.778  14.577  0.00  0.00    -0.285 NA
ATOM      8  C   UNL     1      -2.228 -11.679  13.567  0.00  0.00    +0.149 C 
ATOM      9  C   UNL     1      -1.869 -13.138  13.229  0.00  0.00    +0.061 C 
ATOM     10  C   UNL     1      -2.760 -13.982  14.132  0.00  0.00    +0.130 C 
ATOM     11  C   UNL     1      -3.096 -13.045  15.276  0.00  0.00    +0.116 C 
ENDROOT
BRANCH   8  13
ATOM      2  O   UNL     1      -1.716 -10.033  11.834  0.00  0.00    -0.336 OA
ATOM      5  N   UNL     1      -3.784 -10.883  11.705  0.00  0.00    -0.190 NA
ATOM      7  N   UNL     1      -2.323  -9.417  10.732  0.00  0.00    -0.056 NA
ATOM     13  C   UNL     1      -2.644 -10.881  12.349  0.00  0.00    +0.245 A 
ATOM     18  C   UNL     1      -3.539  -9.970  10.722  0.00  0.00    +0.202 A 
BRANCH  18  22
ATOM     22  C   UNL     1      -4.532  -9.634   9.743  0.00  0.00    +0.023 A 
ATOM     24  C   UNL     1      -5.518  -8.694  10.043  0.00  0.00    +0.015 A 
ATOM     25  C   UNL     1      -4.512 -10.247   8.490  0.00  0.00    +0.015 A 
ATOM     26  C   UNL     1      -6.483  -8.368   9.091  0.00  0.00    +0.046 A 
ATOM     27  C   UNL     1      -5.477  -9.921   7.538  0.00  0.00    +0.046 A 
ATOM     28  C   UNL     1      -6.464  -8.982   7.838  0.00  0.00    +0.120 A 
BRANCH  28   3
ATOM      3  O   UNL     1      -7.405  -8.664   6.909  0.00  0.00    -0.495 OA
ATOM     29  C   UNL     1      -7.081  -8.919   5.543  0.00  0.00    +0.277 C 
ENDBRANCH  28   3
ENDBRANCH  18  22
ENDBRANCH   8  13
BRANCH  10   1
ATOM      1  O   UNL     1      -2.073 -15.134  14.581  0.00  0.00    -0.390 OA
ATOM     30  H   UNL     1      -1.586 -14.887  15.386  0.00  0.00    +0.210 HD
ENDBRANCH  10   1
BRANCH   4  12
ATOM     12  C   UNL     1      -3.333 -10.645  15.492  0.00  0.00    +0.122 C 
BRANCH  12  14
ATOM      6  N   UNL     1      -6.841  -9.651  15.985  0.00  0.00    -0.360 N 
ATOM     14  C   UNL     1      -4.732 -10.341  15.959  0.00  0.00    -0.008 A 
ATOM     15  C   UNL     1      -5.271 -10.604  17.249  0.00  0.00    +0.004 A 
ATOM     16  C   UNL     1      -5.722  -9.754  15.205  0.00  0.00    +0.088 A 
ATOM     17  C   UNL     1      -6.595 -10.162  17.239  0.00  0.00    +0.047 A 
ATOM     19  C   UNL     1      -4.756 -11.180  18.429  0.00  0.00    +0.010 A 
ATOM     20  C   UNL     1      -7.435 -10.266  18.354  0.00  0.00    +0.026 A 
ATOM     21  C   UNL     1      -5.585 -11.290  19.551  0.00  0.00    +0.001 A 
ATOM     23  C   UNL     1      -6.903 -10.840  19.513  0.00  0.00    +0.002 A 
ATOM     31  H   UNL     1      -7.723  -9.257  15.685  0.00  0.00    +0.165 HD
ENDBRANCH  12  14
ENDBRANCH   4  12
TORSDOF 6
ENDMDL
