MODEL 1
REMARK VINA RESULT:      -7.2      0.000      0.000
REMARK  Name = 38030491
REMARK  12 active torsions:
REMARK  status: ('A' for Active; 'I' for Inactive)
REMARK    1  A    between atoms: O_2  and  C_27
REMARK    2  A    between atoms: O_2  and  C_32
REMARK    3  A    between atoms: N_3  and  C_15
REMARK    4  A    between atoms: N_3  and  C_21
REMARK    5  A    between atoms: C_8  and  C_12
REMARK    6  A    between atoms: C_9  and  C_15
REMARK    7  A    between atoms: C_11  and  C_16
REMARK    8  A    between atoms: C_12  and  C_17
REMARK    9  A    between atoms: C_12  and  C_18
REMARK   10  A    between atoms: C_13  and  C_19
REMARK   11  A    between atoms: C_16  and  C_20
REMARK   12  A    between atoms: C_22  and  C_26
REMARK                            x       y       z     vdW  Elec       q    Type
REMARK                         _______ _______ _______ _____ _____    ______ ____
ROOT
ATOM      8  C   UNL     1      13.037   9.834  20.495  0.00  0.00    +0.000 C 
ATOM      9  C   UNL     1      13.224   9.287  21.932  0.00  0.00    +0.032 C 
ATOM     10  C   UNL     1      11.659   9.436  19.945  0.00  0.00    +0.012 C 
ATOM     11  C   UNL     1      11.462   7.908  19.916  0.00  0.00    +0.024 C 
ATOM     13  C   UNL     1      11.883   7.261  21.219  0.00  0.00    -0.073 C 
ATOM     14  C   UNL     1      12.660   7.898  22.115  0.00  0.00    -0.022 C 
ATOM     19  C   UNL     1      11.354   5.880  21.492  0.00  0.00    +0.039 C 
ENDROOT
BRANCH   8  12
ATOM     12  C   UNL     1      13.196  11.357  20.440  0.00  0.00    -0.013 C 
ATOM     17  C   UNL     1      13.263  11.833  18.993  0.00  0.00    +0.007 C 
ATOM     18  C   UNL     1      12.051  12.039  21.182  0.00  0.00    +0.007 C 
ENDBRANCH   8  12
BRANCH   9  15
ATOM     15  C   UNL     1      14.702   9.296  22.339  0.00  0.00    +0.109 C 
BRANCH  15   3
ATOM      3  N   UNL     1      15.524   9.297  21.161  0.00  0.00    -0.342 N 
ATOM     33  H   UNL     1      15.507  10.097  20.536  0.00  0.00    +0.146 HD
BRANCH   3  21
ATOM      6  N   UNL     1      18.465   7.106  20.910  0.00  0.00    -0.219 NA
ATOM     21  C   UNL     1      16.331   8.233  20.775  0.00  0.00    +0.046 A 
ATOM     23  C   UNL     1      15.861   7.256  19.906  0.00  0.00    +0.029 A 
ATOM     24  C   UNL     1      17.629   8.114  21.246  0.00  0.00    +0.137 A 
ATOM     25  C   UNL     1      16.692   6.203  19.537  0.00  0.00    +0.069 A 
ATOM     27  C   UNL     1      17.973   6.175  20.063  0.00  0.00    +0.214 A 
BRANCH  27   2
ATOM      2  O   UNL     1      18.811   5.148  19.714  0.00  0.00    -0.480 OA
ATOM     32  C   UNL     1      20.051   5.069  20.408  0.00  0.00    +0.279 C 
ENDBRANCH  27   2
ENDBRANCH   3  21
ENDBRANCH  15   3
ENDBRANCH   9  15
BRANCH  11  16
ATOM     16  C   UNL     1      12.199   7.279  18.728  0.00  0.00    +0.105 C 
BRANCH  16  20
ATOM      1  O   UNL     1      13.074   8.855  17.082  0.00  0.00    -0.420 OA
ATOM      4  N   UNL     1      10.977   8.185  16.684  0.00  0.00    -0.112 NA
ATOM      5  N   UNL     1      11.340   9.067  15.684  0.00  0.00    -0.107 NA
ATOM     20  C   UNL     1      12.019   8.092  17.477  0.00  0.00    +0.218 A 
ATOM     22  C   UNL     1      12.571   9.432  15.956  0.00  0.00    +0.250 A 
BRANCH  22  26
ATOM      7  N   UNL     1      13.740  12.079  13.623  0.00  0.00    -0.263 NA
ATOM     26  C   UNL     1      13.451  10.328  15.264  0.00  0.00    +0.057 A 
ATOM     28  C   UNL     1      14.815  10.341  15.529  0.00  0.00    +0.016 A 
ATOM     29  C   UNL     1      12.967  11.210  14.310  0.00  0.00    +0.124 A 
ATOM     30  C   UNL     1      15.643  11.222  14.842  0.00  0.00    +0.020 A 
ATOM     31  C   UNL     1      15.062  12.062  13.907  0.00  0.00    +0.111 A 
ENDBRANCH  22  26
ENDBRANCH  16  20
ENDBRANCH  11  16
TORSDOF 8
ENDMDL
MODEL 2
REMARK VINA RESULT:      -7.1      3.338      7.699
REMARK  Name = 38030491
REMARK  12 active torsions:
REMARK  status: ('A' for Active; 'I' for Inactive)
REMARK    1  A    between atoms: O_2  and  C_27
REMARK    2  A    between atoms: O_2  and  C_32
REMARK    3  A    between atoms: N_3  and  C_15
REMARK    4  A    between atoms: N_3  and  C_21
REMARK    5  A    between atoms: C_8  and  C_12
REMARK    6  A    between atoms: C_9  and  C_15
REMARK    7  A    between atoms: C_11  and  C_16
REMARK    8  A    between atoms: C_12  and  C_17
REMARK    9  A    between atoms: C_12  and  C_18
REMARK   10  A    between atoms: C_13  and  C_19
REMARK   11  A    between atoms: C_16  and  C_20
REMARK   12  A    between atoms: C_22  and  C_26
REMARK                            x       y       z     vdW  Elec       q    Type
REMARK                         _______ _______ _______ _____ _____    ______ ____
ROOT
ATOM      8  C   UNL     1      13.656   9.541  19.428  0.00  0.00    +0.000 C 
ATOM      9  C   UNL     1      12.204   9.750  19.924  0.00  0.00    +0.032 C 
ATOM     10  C   UNL     1      13.830   8.123  18.863  0.00  0.00    +0.012 C 
ATOM     11  C   UNL     1      13.508   7.036  19.906  0.00  0.00    +0.024 C 
ATOM     13  C   UNL     1      12.209   7.320  20.632  0.00  0.00    -0.073 C 
ATOM     14  C   UNL     1      11.634   8.537  20.618  0.00  0.00    -0.022 C 
ATOM     19  C   UNL     1      11.561   6.162  21.341  0.00  0.00    +0.039 C 
ENDROOT
BRANCH   8  12
ATOM     12  C   UNL     1      14.051  10.574  18.368  0.00  0.00    -0.013 C 
ATOM     17  C   UNL     1      15.313  11.316  18.791  0.00  0.00    +0.007 C 
ATOM     18  C   UNL     1      14.248   9.898  17.015  0.00  0.00    +0.007 C 
ENDBRANCH   8  12
BRANCH   9  15
ATOM     15  C   UNL     1      12.107  10.964  20.856  0.00  0.00    +0.109 C 
BRANCH  15   3
ATOM      3  N   UNL     1      11.360  10.609  22.030  0.00  0.00    -0.342 N 
ATOM     33  H   UNL     1      10.960   9.680  22.110  0.00  0.00    +0.146 HD
BRANCH   3  21
ATOM      6  N   UNL     1      10.847  11.842  25.455  0.00  0.00    -0.219 NA
ATOM     21  C   UNL     1      11.097  11.484  23.078  0.00  0.00    +0.046 A 
ATOM     23  C   UNL     1      10.826  12.827  22.840  0.00  0.00    +0.029 A 
ATOM     24  C   UNL     1      11.096  11.044  24.392  0.00  0.00    +0.137 A 
ATOM     25  C   UNL     1      10.566  13.678  23.908  0.00  0.00    +0.069 A 
ATOM     27  C   UNL     1      10.588  13.140  25.185  0.00  0.00    +0.214 A 
BRANCH  27   2
ATOM      2  O   UNL     1      10.333  13.959  26.254  0.00  0.00    -0.480 OA
ATOM     32  C   UNL     1      11.384  14.830  26.658  0.00  0.00    +0.279 C 
ENDBRANCH  27   2
ENDBRANCH   3  21
ENDBRANCH  15   3
ENDBRANCH   9  15
BRANCH  11  16
ATOM     16  C   UNL     1      14.664   6.862  20.897  0.00  0.00    +0.105 C 
BRANCH  16  20
ATOM      1  O   UNL     1      17.082   6.526  20.909  0.00  0.00    -0.420 OA
ATOM      4  N   UNL     1      16.089   5.965  18.985  0.00  0.00    -0.112 NA
ATOM      5  N   UNL     1      17.443   5.726  18.851  0.00  0.00    -0.107 NA
ATOM     20  C   UNL     1      15.923   6.431  20.201  0.00  0.00    +0.218 A 
ATOM     22  C   UNL     1      17.983   6.067  19.998  0.00  0.00    +0.250 A 
BRANCH  22  26
ATOM      7  N   UNL     1      21.418   4.798  20.641  0.00  0.00    -0.263 NA
ATOM     26  C   UNL     1      19.349   6.033  20.430  0.00  0.00    +0.057 A 
ATOM     28  C   UNL     1      19.939   7.137  21.035  0.00  0.00    +0.016 A 
ATOM     29  C   UNL     1      20.125   4.897  20.258  0.00  0.00    +0.124 A 
ATOM     30  C   UNL     1      21.267   7.073  21.444  0.00  0.00    +0.020 A 
ATOM     31  C   UNL     1      21.956   5.892  21.226  0.00  0.00    +0.111 A 
ENDBRANCH  22  26
ENDBRANCH  16  20
ENDBRANCH  11  16
TORSDOF 8
ENDMDL
MODEL 3
REMARK VINA RESULT:      -6.7      3.520      7.681
REMARK  Name = 38030491
REMARK  12 active torsions:
REMARK  status: ('A' for Active; 'I' for Inactive)
REMARK    1  A    between atoms: O_2  and  C_27
REMARK    2  A    between atoms: O_2  and  C_32
REMARK    3  A    between atoms: N_3  and  C_15
REMARK    4  A    between atoms: N_3  and  C_21
REMARK    5  A    between atoms: C_8  and  C_12
REMARK    6  A    between atoms: C_9  and  C_15
REMARK    7  A    between atoms: C_11  and  C_16
REMARK    8  A    between atoms: C_12  and  C_17
REMARK    9  A    between atoms: C_12  and  C_18
REMARK   10  A    between atoms: C_13  and  C_19
REMARK   11  A    between atoms: C_16  and  C_20
REMARK   12  A    between atoms: C_22  and  C_26
REMARK                            x       y       z     vdW  Elec       q    Type
REMARK                         _______ _______ _______ _____ _____    ______ ____
ROOT
ATOM      8  C   UNL     1      15.360   8.116  20.619  0.00  0.00    +0.000 C 
ATOM      9  C   UNL     1      14.704   6.932  19.865  0.00  0.00    +0.032 C 
ATOM     10  C   UNL     1      14.771   8.242  22.033  0.00  0.00    +0.012 C 
ATOM     11  C   UNL     1      13.246   8.461  22.012  0.00  0.00    +0.024 C 
ATOM     13  C   UNL     1      12.552   7.494  21.074  0.00  0.00    -0.073 C 
ATOM     14  C   UNL     1      13.222   6.810  20.129  0.00  0.00    -0.022 C 
ATOM     19  C   UNL     1      11.074   7.298  21.275  0.00  0.00    +0.039 C 
ENDROOT
BRANCH   8  12
ATOM     12  C   UNL     1      16.882   7.965  20.703  0.00  0.00    -0.013 C 
ATOM     17  C   UNL     1      17.480   9.073  21.562  0.00  0.00    +0.007 C 
ATOM     18  C   UNL     1      17.250   6.592  21.258  0.00  0.00    +0.007 C 
ENDBRANCH   8  12
BRANCH   9  15
ATOM     15  C   UNL     1      14.947   7.036  18.355  0.00  0.00    +0.109 C 
BRANCH  15   3
ATOM      3  N   UNL     1      13.839   7.710  17.736  0.00  0.00    -0.342 N 
ATOM     33  H   UNL     1      12.928   7.265  17.715  0.00  0.00    +0.146 HD
BRANCH   3  21
ATOM      6  N   UNL     1      14.053  10.201  15.042  0.00  0.00    -0.219 NA
ATOM     21  C   UNL     1      13.936   8.943  17.102  0.00  0.00    +0.046 A 
ATOM     23  C   UNL     1      14.010  10.122  17.835  0.00  0.00    +0.029 A 
ATOM     24  C   UNL     1      13.960   9.035  15.720  0.00  0.00    +0.137 A 
ATOM     25  C   UNL     1      14.107  11.341  17.173  0.00  0.00    +0.069 A 
ATOM     27  C   UNL     1      14.124  11.326  15.788  0.00  0.00    +0.214 A 
BRANCH  27   2
ATOM      2  O   UNL     1      14.219  12.515  15.112  0.00  0.00    -0.480 OA
ATOM     32  C   UNL     1      13.493  12.618  13.892  0.00  0.00    +0.279 C 
ENDBRANCH  27   2
ENDBRANCH   3  21
ENDBRANCH  15   3
ENDBRANCH   9  15
BRANCH  11  16
ATOM     16  C   UNL     1      12.901   9.912  21.659  0.00  0.00    +0.105 C 
BRANCH  16  20
ATOM      1  O   UNL     1      12.624  11.523  23.471  0.00  0.00    -0.420 OA
ATOM      4  N   UNL     1      10.800  10.301  23.046  0.00  0.00    -0.112 NA
ATOM      5  N   UNL     1      10.503  11.162  24.086  0.00  0.00    -0.107 NA
ATOM     20  C   UNL     1      12.047  10.546  22.720  0.00  0.00    +0.218 A 
ATOM     22  C   UNL     1      11.596  11.856  24.300  0.00  0.00    +0.250 A 
BRANCH  22  26
ATOM      7  N   UNL     1      13.426  13.925  26.789  0.00  0.00    -0.263 NA
ATOM     26  C   UNL     1      11.870  12.891  25.253  0.00  0.00    +0.057 A 
ATOM     28  C   UNL     1      10.909  13.842  25.576  0.00  0.00    +0.016 A 
ATOM     29  C   UNL     1      13.102  12.976  25.882  0.00  0.00    +0.124 A 
ATOM     30  C   UNL     1      11.204  14.834  26.505  0.00  0.00    +0.020 A 
ATOM     31  C   UNL     1      12.465  14.832  27.077  0.00  0.00    +0.111 A 
ENDBRANCH  22  26
ENDBRANCH  16  20
ENDBRANCH  11  16
TORSDOF 8
ENDMDL
MODEL 4
REMARK VINA RESULT:      -6.5     26.775     29.015
REMARK  Name = 38030491
REMARK  12 active torsions:
REMARK  status: ('A' for Active; 'I' for Inactive)
REMARK    1  A    between atoms: O_2  and  C_27
REMARK    2  A    between atoms: O_2  and  C_32
REMARK    3  A    between atoms: N_3  and  C_15
REMARK    4  A    between atoms: N_3  and  C_21
REMARK    5  A    between atoms: C_8  and  C_12
REMARK    6  A    between atoms: C_9  and  C_15
REMARK    7  A    between atoms: C_11  and  C_16
REMARK    8  A    between atoms: C_12  and  C_17
REMARK    9  A    between atoms: C_12  and  C_18
REMARK   10  A    between atoms: C_13  and  C_19
REMARK   11  A    between atoms: C_16  and  C_20
REMARK   12  A    between atoms: C_22  and  C_26
REMARK                            x       y       z     vdW  Elec       q    Type
REMARK                         _______ _______ _______ _____ _____    ______ ____
ROOT
ATOM      8  C   UNL     1      -6.469 -11.081  16.247  0.00  0.00    +0.000 C 
ATOM      9  C   UNL     1      -6.937 -11.045  17.724  0.00  0.00    +0.032 C 
ATOM     10  C   UNL     1      -5.481 -12.237  16.028  0.00  0.00    +0.012 C 
ATOM     11  C   UNL     1      -4.239 -12.121  16.931  0.00  0.00    +0.024 C 
ATOM     13  C   UNL     1      -4.614 -11.817  18.367  0.00  0.00    -0.073 C 
ATOM     14  C   UNL     1      -5.830 -11.349  18.704  0.00  0.00    -0.022 C 
ATOM     19  C   UNL     1      -3.574 -12.104  19.415  0.00  0.00    +0.039 C 
ENDROOT
BRANCH   8  12
ATOM     12  C   UNL     1      -7.649 -11.217  15.279  0.00  0.00    -0.013 C 
ATOM     17  C   UNL     1      -7.734  -9.995  14.371  0.00  0.00    +0.007 C 
ATOM     18  C   UNL     1      -7.518 -12.495  14.457  0.00  0.00    +0.007 C 
ENDBRANCH   8  12
BRANCH   9  15
ATOM     15  C   UNL     1      -7.570  -9.692  18.070  0.00  0.00    +0.109 C 
BRANCH  15   3
ATOM      3  N   UNL     1      -8.983  -9.860  18.268  0.00  0.00    -0.342 N 
ATOM     33  H   UNL     1      -9.323 -10.618  18.851  0.00  0.00    +0.146 HD
BRANCH   3  21
ATOM      6  N   UNL     1     -12.285  -8.675  17.171  0.00  0.00    -0.219 NA
ATOM     21  C   UNL     1      -9.951  -9.065  17.666  0.00  0.00    +0.046 A 
ATOM     23  C   UNL     1      -9.604  -7.909  16.977  0.00  0.00    +0.029 A 
ATOM     24  C   UNL     1     -11.294  -9.402  17.735  0.00  0.00    +0.137 A 
ATOM     25  C   UNL     1     -10.596  -7.135  16.385  0.00  0.00    +0.069 A 
ATOM     27  C   UNL     1     -11.909  -7.558  16.510  0.00  0.00    +0.214 A 
BRANCH  27   2
ATOM      2  O   UNL     1     -12.904  -6.812  15.933  0.00  0.00    -0.480 OA
ATOM     32  C   UNL     1     -12.511  -5.897  14.917  0.00  0.00    +0.279 C 
ENDBRANCH  27   2
ENDBRANCH   3  21
ENDBRANCH  15   3
ENDBRANCH   9  15
BRANCH  11  16
ATOM     16  C   UNL     1      -3.255 -11.079  16.388  0.00  0.00    +0.105 C 
BRANCH  16  20
ATOM      1  O   UNL     1      -3.702 -10.363  14.098  0.00  0.00    -0.420 OA
ATOM      4  N   UNL     1      -2.316 -12.112  14.256  0.00  0.00    -0.112 NA
ATOM      5  N   UNL     1      -2.480 -11.818  12.916  0.00  0.00    -0.107 NA
ATOM     20  C   UNL     1      -3.048 -11.238  14.909  0.00  0.00    +0.218 A 
ATOM     22  C   UNL     1      -3.296 -10.791  12.870  0.00  0.00    +0.250 A 
BRANCH  22  26
ATOM      7  N   UNL     1      -5.693  -8.969  10.690  0.00  0.00    -0.263 NA
ATOM     26  C   UNL     1      -3.816 -10.064  11.750  0.00  0.00    +0.057 A 
ATOM     28  C   UNL     1      -3.008  -9.743  10.665  0.00  0.00    +0.016 A 
ATOM     29  C   UNL     1      -5.140  -9.657  11.714  0.00  0.00    +0.124 A 
ATOM     30  C   UNL     1      -3.541  -9.037   9.592  0.00  0.00    +0.020 A 
ATOM     31  C   UNL     1      -4.876  -8.677   9.653  0.00  0.00    +0.111 A 
ENDBRANCH  22  26
ENDBRANCH  16  20
ENDBRANCH  11  16
TORSDOF 8
ENDMDL
MODEL 5
REMARK VINA RESULT:      -6.5     26.116     28.449
REMARK  Name = 38030491
REMARK  12 active torsions:
REMARK  status: ('A' for Active; 'I' for Inactive)
REMARK    1  A    between atoms: O_2  and  C_27
REMARK    2  A    between atoms: O_2  and  C_32
REMARK    3  A    between atoms: N_3  and  C_15
REMARK    4  A    between atoms: N_3  and  C_21
REMARK    5  A    between atoms: C_8  and  C_12
REMARK    6  A    between atoms: C_9  and  C_15
REMARK    7  A    between atoms: C_11  and  C_16
REMARK    8  A    between atoms: C_12  and  C_17
REMARK    9  A    between atoms: C_12  and  C_18
REMARK   10  A    between atoms: C_13  and  C_19
REMARK   11  A    between atoms: C_16  and  C_20
REMARK   12  A    between atoms: C_22  and  C_26
REMARK                            x       y       z     vdW  Elec       q    Type
REMARK                         _______ _______ _______ _____ _____    ______ ____
ROOT
ATOM      8  C   UNL     1      -3.121 -12.400  13.678  0.00  0.00    +0.000 C 
ATOM      9  C   UNL     1      -1.960 -11.463  14.096  0.00  0.00    +0.032 C 
ATOM     10  C   UNL     1      -3.059 -12.689  12.170  0.00  0.00    +0.012 C 
ATOM     11  C   UNL     1      -3.140 -11.404  11.326  0.00  0.00    +0.024 C 
ATOM     13  C   UNL     1      -2.209 -10.328  11.847  0.00  0.00    -0.073 C 
ATOM     14  C   UNL     1      -1.680 -10.378  13.083  0.00  0.00    -0.022 C 
ATOM     19  C   UNL     1      -1.863  -9.214  10.898  0.00  0.00    +0.039 C 
ENDROOT
BRANCH   8  12
ATOM     12  C   UNL     1      -3.100 -13.717  14.460  0.00  0.00    -0.013 C 
ATOM     17  C   UNL     1      -4.445 -13.956  15.137  0.00  0.00    +0.007 C 
ATOM     18  C   UNL     1      -2.745 -14.878  13.537  0.00  0.00    +0.007 C 
ENDBRANCH   8  12
BRANCH   9  15
ATOM     15  C   UNL     1      -2.229 -10.827  15.465  0.00  0.00    +0.109 C 
BRANCH  15   3
ATOM      3  N   UNL     1      -3.575 -10.328  15.506  0.00  0.00    -0.342 N 
ATOM     33  H   UNL     1      -3.931  -9.776  14.732  0.00  0.00    +0.146 HD
BRANCH   3  21
ATOM      6  N   UNL     1      -6.607 -10.119  17.574  0.00  0.00    -0.219 NA
ATOM     21  C   UNL     1      -4.438 -10.509  16.581  0.00  0.00    +0.046 A 
ATOM     23  C   UNL     1      -4.044 -11.224  17.705  0.00  0.00    +0.029 A 
ATOM     24  C   UNL     1      -5.719  -9.981  16.563  0.00  0.00    +0.137 A 
ATOM     25  C   UNL     1      -4.929 -11.388  18.765  0.00  0.00    +0.069 A 
ATOM     27  C   UNL     1      -6.188 -10.821  18.650  0.00  0.00    +0.214 A 
BRANCH  27   2
ATOM      2  O   UNL     1      -7.078 -10.967  19.682  0.00  0.00    -0.480 OA
ATOM     32  C   UNL     1      -7.700 -12.241  19.815  0.00  0.00    +0.279 C 
ENDBRANCH  27   2
ENDBRANCH   3  21
ENDBRANCH  15   3
ENDBRANCH   9  15
BRANCH  11  16
ATOM     16  C   UNL     1      -4.582 -10.888  11.242  0.00  0.00    +0.105 C 
BRANCH  16  20
ATOM      1  O   UNL     1      -5.943  -9.626   9.658  0.00  0.00    -0.420 OA
ATOM      4  N   UNL     1      -4.490 -11.031   8.700  0.00  0.00    -0.112 NA
ATOM      5  N   UNL     1      -5.188 -10.389   7.695  0.00  0.00    -0.107 NA
ATOM     20  C   UNL     1      -4.964 -10.555   9.828  0.00  0.00    +0.218 A 
ATOM     22  C   UNL     1      -6.025  -9.578   8.299  0.00  0.00    +0.250 A 
BRANCH  22  26
ATOM      7  N   UNL     1      -8.284  -7.914   5.861  0.00  0.00    -0.263 NA
ATOM     26  C   UNL     1      -6.992  -8.668   7.761  0.00  0.00    +0.057 A 
ATOM     28  C   UNL     1      -7.575  -7.687   8.555  0.00  0.00    +0.016 A 
ATOM     29  C   UNL     1      -7.378  -8.739   6.432  0.00  0.00    +0.124 A 
ATOM     30  C   UNL     1      -8.511  -6.819   8.004  0.00  0.00    +0.020 A 
ATOM     31  C   UNL     1      -8.828  -6.972   6.665  0.00  0.00    +0.111 A 
ENDBRANCH  22  26
ENDBRANCH  16  20
ENDBRANCH  11  16
TORSDOF 8
ENDMDL
MODEL 6
REMARK VINA RESULT:      -6.5      3.398      9.798
REMARK  Name = 38030491
REMARK  12 active torsions:
REMARK  status: ('A' for Active; 'I' for Inactive)
REMARK    1  A    between atoms: O_2  and  C_27
REMARK    2  A    between atoms: O_2  and  C_32
REMARK    3  A    between atoms: N_3  and  C_15
REMARK    4  A    between atoms: N_3  and  C_21
REMARK    5  A    between atoms: C_8  and  C_12
REMARK    6  A    between atoms: C_9  and  C_15
REMARK    7  A    between atoms: C_11  and  C_16
REMARK    8  A    between atoms: C_12  and  C_17
REMARK    9  A    between atoms: C_12  and  C_18
REMARK   10  A    between atoms: C_13  and  C_19
REMARK   11  A    between atoms: C_16  and  C_20
REMARK   12  A    between atoms: C_22  and  C_26
REMARK                            x       y       z     vdW  Elec       q    Type
REMARK                         _______ _______ _______ _____ _____    ______ ____
ROOT
ATOM      8  C   UNL     1      17.495   8.412  21.613  0.00  0.00    +0.000 C 
ATOM      9  C   UNL     1      16.747   7.508  20.601  0.00  0.00    +0.032 C 
ATOM     10  C   UNL     1      18.981   8.521  21.236  0.00  0.00    +0.012 C 
ATOM     11  C   UNL     1      19.676   7.146  21.203  0.00  0.00    +0.024 C 
ATOM     13  C   UNL     1      18.859   6.121  20.443  0.00  0.00    -0.073 C 
ATOM     14  C   UNL     1      17.554   6.306  20.172  0.00  0.00    -0.022 C 
ATOM     19  C   UNL     1      19.587   4.896  19.962  0.00  0.00    +0.039 C 
ENDROOT
BRANCH   8  12
ATOM     12  C   UNL     1      16.877   9.812  21.691  0.00  0.00    -0.013 C 
ATOM     17  C   UNL     1      17.907  10.821  22.188  0.00  0.00    +0.007 C 
ATOM     18  C   UNL     1      16.325  10.227  20.331  0.00  0.00    +0.007 C 
ENDBRANCH   8  12
BRANCH   9  15
ATOM     15  C   UNL     1      15.400   7.044  21.167  0.00  0.00    +0.109 C 
BRANCH  15   3
ATOM      3  N   UNL     1      14.633   6.418  20.126  0.00  0.00    -0.342 N 
ATOM     33  H   UNL     1      14.778   5.436  19.915  0.00  0.00    +0.146 HD
BRANCH   3  21
ATOM      6  N   UNL     1      11.422   7.752  18.935  0.00  0.00    -0.219 NA
ATOM     21  C   UNL     1      13.712   7.088  19.329  0.00  0.00    +0.046 A 
ATOM     23  C   UNL     1      14.110   7.746  18.172  0.00  0.00    +0.029 A 
ATOM     24  C   UNL     1      12.368   7.120  19.665  0.00  0.00    +0.137 A 
ATOM     25  C   UNL     1      13.166   8.407  17.394  0.00  0.00    +0.069 A 
ATOM     27  C   UNL     1      11.846   8.381  17.816  0.00  0.00    +0.214 A 
BRANCH  27   2
ATOM      2  O   UNL     1      10.897   9.024  17.066  0.00  0.00    -0.480 OA
ATOM     32  C   UNL     1      11.138   9.111  15.666  0.00  0.00    +0.279 C 
ENDBRANCH  27   2
ENDBRANCH   3  21
ENDBRANCH  15   3
ENDBRANCH   9  15
BRANCH  11  16
ATOM     16  C   UNL     1      19.995   6.653  22.619  0.00  0.00    +0.105 C 
BRANCH  16  20
ATOM      1  O   UNL     1      21.777   5.022  22.275  0.00  0.00    -0.420 OA
ATOM      4  N   UNL     1      22.447   6.915  23.260  0.00  0.00    -0.112 NA
ATOM      5  N   UNL     1      23.548   6.090  23.129  0.00  0.00    -0.107 NA
ATOM     20  C   UNL     1      21.436   6.251  22.748  0.00  0.00    +0.218 A 
ATOM     22  C   UNL     1      23.111   4.997  22.550  0.00  0.00    +0.250 A 
BRANCH  22  26
ATOM      7  N   UNL     1      25.845   2.503  22.199  0.00  0.00    -0.263 NA
ATOM     26  C   UNL     1      23.807   3.803  22.168  0.00  0.00    +0.057 A 
ATOM     28  C   UNL     1      23.176   2.809  21.429  0.00  0.00    +0.016 A 
ATOM     29  C   UNL     1      25.131   3.603  22.525  0.00  0.00    +0.124 A 
ATOM     30  C   UNL     1      23.878   1.663  21.074  0.00  0.00    +0.020 A 
ATOM     31  C   UNL     1      25.198   1.559  21.480  0.00  0.00    +0.111 A 
ENDBRANCH  22  26
ENDBRANCH  16  20
ENDBRANCH  11  16
TORSDOF 8
ENDMDL
MODEL 7
REMARK VINA RESULT:      -6.2     25.720     28.649
REMARK  Name = 38030491
REMARK  12 active torsions:
REMARK  status: ('A' for Active; 'I' for Inactive)
REMARK    1  A    between atoms: O_2  and  C_27
REMARK    2  A    between atoms: O_2  and  C_32
REMARK    3  A    between atoms: N_3  and  C_15
REMARK    4  A    between atoms: N_3  and  C_21
REMARK    5  A    between atoms: C_8  and  C_12
REMARK    6  A    between atoms: C_9  and  C_15
REMARK    7  A    between atoms: C_11  and  C_16
REMARK    8  A    between atoms: C_12  and  C_17
REMARK    9  A    between atoms: C_12  and  C_18
REMARK   10  A    between atoms: C_13  and  C_19
REMARK   11  A    between atoms: C_16  and  C_20
REMARK   12  A    between atoms: C_22  and  C_26
REMARK                            x       y       z     vdW  Elec       q    Type
REMARK                         _______ _______ _______ _____ _____    ______ ____
ROOT
ATOM      8  C   UNL     1      -3.795 -11.895  13.195  0.00  0.00    +0.000 C 
ATOM      9  C   UNL     1      -2.415 -11.551  13.807  0.00  0.00    +0.032 C 
ATOM     10  C   UNL     1      -3.700 -11.962  11.663  0.00  0.00    +0.012 C 
ATOM     11  C   UNL     1      -3.212 -10.635  11.051  0.00  0.00    +0.024 C 
ATOM     13  C   UNL     1      -2.001 -10.091  11.781  0.00  0.00    -0.073 C 
ATOM     14  C   UNL     1      -1.652 -10.522  13.007  0.00  0.00    -0.022 C 
ATOM     19  C   UNL     1      -1.172  -9.070  11.051  0.00  0.00    +0.039 C 
ENDROOT
BRANCH   8  12
ATOM     12  C   UNL     1      -4.345 -13.218  13.738  0.00  0.00    -0.013 C 
ATOM     17  C   UNL     1      -5.838 -13.098  14.022  0.00  0.00    +0.007 C 
ATOM     18  C   UNL     1      -4.071 -14.352  12.755  0.00  0.00    +0.007 C 
ENDBRANCH   8  12
BRANCH   9  15
ATOM     15  C   UNL     1      -2.557 -11.068  15.255  0.00  0.00    +0.109 C 
BRANCH  15   3
ATOM      3  N   UNL     1      -3.739 -10.261  15.378  0.00  0.00    -0.342 N 
ATOM     33  H   UNL     1      -3.941  -9.554  14.679  0.00  0.00    +0.146 HD
BRANCH   3  21
ATOM      6  N   UNL     1      -5.096 -11.101  18.690  0.00  0.00    -0.219 NA
ATOM     21  C   UNL     1      -4.631 -10.346  16.441  0.00  0.00    +0.046 A 
ATOM     23  C   UNL     1      -5.904  -9.794  16.355  0.00  0.00    +0.029 A 
ATOM     24  C   UNL     1      -4.278 -10.983  17.620  0.00  0.00    +0.137 A 
ATOM     25  C   UNL     1      -6.774  -9.895  17.435  0.00  0.00    +0.069 A 
ATOM     27  C   UNL     1      -6.325 -10.553  18.569  0.00  0.00    +0.214 A 
BRANCH  27   2
ATOM      2  O   UNL     1      -7.166 -10.666  19.646  0.00  0.00    -0.480 OA
ATOM     32  C   UNL     1      -8.489 -11.116  19.381  0.00  0.00    +0.279 C 
ENDBRANCH  27   2
ENDBRANCH   3  21
ENDBRANCH  15   3
ENDBRANCH   9  15
BRANCH  11  16
ATOM     16  C   UNL     1      -4.339  -9.598  11.008  0.00  0.00    +0.105 C 
BRANCH  16  20
ATOM      1  O   UNL     1      -4.561 -10.457   8.735  0.00  0.00    -0.420 OA
ATOM      4  N   UNL     1      -6.070  -8.897   9.276  0.00  0.00    -0.112 NA
ATOM      5  N   UNL     1      -6.311  -9.289   7.973  0.00  0.00    -0.107 NA
ATOM     20  C   UNL     1      -5.041  -9.604   9.680  0.00  0.00    +0.218 A 
ATOM     22  C   UNL     1      -5.407 -10.201   7.699  0.00  0.00    +0.250 A 
BRANCH  22  26
ATOM      7  N   UNL     1      -5.807 -11.445   4.219  0.00  0.00    -0.263 NA
ATOM     26  C   UNL     1      -5.178 -10.955   6.502  0.00  0.00    +0.057 A 
ATOM     28  C   UNL     1      -4.155 -11.893   6.429  0.00  0.00    +0.016 A 
ATOM     29  C   UNL     1      -5.969 -10.770   5.378  0.00  0.00    +0.124 A 
ATOM     30  C   UNL     1      -3.957 -12.609   5.253  0.00  0.00    +0.020 A 
ATOM     31  C   UNL     1      -4.802 -12.350   4.187  0.00  0.00    +0.111 A 
ENDBRANCH  22  26
ENDBRANCH  16  20
ENDBRANCH  11  16
TORSDOF 8
ENDMDL
MODEL 8
REMARK VINA RESULT:      -6.2     27.304     30.340
REMARK  Name = 38030491
REMARK  12 active torsions:
REMARK  status: ('A' for Active; 'I' for Inactive)
REMARK    1  A    between atoms: O_2  and  C_27
REMARK    2  A    between atoms: O_2  and  C_32
REMARK    3  A    between atoms: N_3  and  C_15
REMARK    4  A    between atoms: N_3  and  C_21
REMARK    5  A    between atoms: C_8  and  C_12
REMARK    6  A    between atoms: C_9  and  C_15
REMARK    7  A    between atoms: C_11  and  C_16
REMARK    8  A    between atoms: C_12  and  C_17
REMARK    9  A    between atoms: C_12  and  C_18
REMARK   10  A    between atoms: C_13  and  C_19
REMARK   11  A    between atoms: C_16  and  C_20
REMARK   12  A    between atoms: C_22  and  C_26
REMARK                            x       y       z     vdW  Elec       q    Type
REMARK                         _______ _______ _______ _____ _____    ______ ____
ROOT
ATOM      8  C   UNL     1     -12.606   7.952  35.275  0.00  0.00    +0.000 C 
ATOM      9  C   UNL     1     -13.932   7.190  35.030  0.00  0.00    +0.032 C 
ATOM     10  C   UNL     1     -12.682   9.365  34.676  0.00  0.00    +0.012 C 
ATOM     11  C   UNL     1     -12.959   9.342  33.161  0.00  0.00    +0.024 C 
ATOM     13  C   UNL     1     -14.091   8.398  32.810  0.00  0.00    -0.073 C 
ATOM     14  C   UNL     1     -14.521   7.451  33.664  0.00  0.00    -0.022 C 
ATOM     19  C   UNL     1     -14.747   8.595  31.472  0.00  0.00    +0.039 C 
ENDROOT
BRANCH   8  12
ATOM     12  C   UNL     1     -12.266   8.039  36.766  0.00  0.00    -0.013 C 
ATOM     17  C   UNL     1     -10.771   7.837  36.984  0.00  0.00    +0.007 C 
ATOM     18  C   UNL     1     -12.721   9.377  37.339  0.00  0.00    +0.007 C 
ENDBRANCH   8  12
BRANCH   9  15
ATOM     15  C   UNL     1     -13.748   5.681  35.227  0.00  0.00    +0.109 C 
BRANCH  15   3
ATOM      3  N   UNL     1     -14.727   4.972  34.452  0.00  0.00    -0.342 N 
ATOM     33  H   UNL     1     -15.713   5.182  34.573  0.00  0.00    +0.146 HD
BRANCH   3  21
ATOM      6  N   UNL     1     -14.569   1.620  32.951  0.00  0.00    -0.219 NA
ATOM     21  C   UNL     1     -14.421   3.957  33.554  0.00  0.00    +0.046 A 
ATOM     23  C   UNL     1     -13.692   4.216  32.399  0.00  0.00    +0.029 A 
ATOM     24  C   UNL     1     -14.834   2.653  33.782  0.00  0.00    +0.137 A 
ATOM     25  C   UNL     1     -13.400   3.179  31.520  0.00  0.00    +0.069 A 
ATOM     27  C   UNL     1     -13.858   1.911  31.839  0.00  0.00    +0.214 A 
BRANCH  27   2
ATOM      2  O   UNL     1     -13.582   0.872  30.988  0.00  0.00    -0.480 OA
ATOM     32  C   UNL     1     -14.127   0.957  29.676  0.00  0.00    +0.279 C 
ENDBRANCH  27   2
ENDBRANCH   3  21
ENDBRANCH  15   3
ENDBRANCH   9  15
BRANCH  11  16
ATOM     16  C   UNL     1     -11.691   8.997  32.372  0.00  0.00    +0.105 C 
BRANCH  16  20
ATOM      1  O   UNL     1     -11.717   9.949  30.126  0.00  0.00    -0.420 OA
ATOM      4  N   UNL     1     -10.658  11.208  31.642  0.00  0.00    -0.112 NA
ATOM      5  N   UNL     1     -10.595  11.862  30.426  0.00  0.00    -0.107 NA
ATOM     20  C   UNL     1     -11.321  10.097  31.419  0.00  0.00    +0.218 A 
ATOM     22  C   UNL     1     -11.226  11.092  29.571  0.00  0.00    +0.250 A 
BRANCH  22  26
ATOM      7  N   UNL     1     -12.519  12.536  26.399  0.00  0.00    -0.263 NA
ATOM     26  C   UNL     1     -11.473  11.264  28.169  0.00  0.00    +0.057 A 
ATOM     28  C   UNL     1     -10.943  10.384  27.233  0.00  0.00    +0.016 A 
ATOM     29  C   UNL     1     -12.248  12.315  27.704  0.00  0.00    +0.124 A 
ATOM     30  C   UNL     1     -11.200  10.578  25.880  0.00  0.00    +0.020 A 
ATOM     31  C   UNL     1     -11.987  11.658  25.518  0.00  0.00    +0.111 A 
ENDBRANCH  22  26
ENDBRANCH  16  20
ENDBRANCH  11  16
TORSDOF 8
ENDMDL
MODEL 9
REMARK VINA RESULT:      -6.1     26.181     29.727
REMARK  Name = 38030491
REMARK  12 active torsions:
REMARK  status: ('A' for Active; 'I' for Inactive)
REMARK    1  A    between atoms: O_2  and  C_27
REMARK    2  A    between atoms: O_2  and  C_32
REMARK    3  A    between atoms: N_3  and  C_15
REMARK    4  A    between atoms: N_3  and  C_21
REMARK    5  A    between atoms: C_8  and  C_12
REMARK    6  A    between atoms: C_9  and  C_15
REMARK    7  A    between atoms: C_11  and  C_16
REMARK    8  A    between atoms: C_12  and  C_17
REMARK    9  A    between atoms: C_12  and  C_18
REMARK   10  A    between atoms: C_13  and  C_19
REMARK   11  A    between atoms: C_16  and  C_20
REMARK   12  A    between atoms: C_22  and  C_26
REMARK                            x       y       z     vdW  Elec       q    Type
REMARK                         _______ _______ _______ _____ _____    ______ ____
ROOT
ATOM      8  C   UNL     1      -5.262 -11.121  13.903  0.00  0.00    +0.000 C 
ATOM      9  C   UNL     1      -3.885 -11.005  13.203  0.00  0.00    +0.032 C 
ATOM     10  C   UNL     1      -5.311 -10.212  15.141  0.00  0.00    +0.012 C 
ATOM     11  C   UNL     1      -4.213 -10.561  16.163  0.00  0.00    +0.024 C 
ATOM     13  C   UNL     1      -2.860 -10.729  15.501  0.00  0.00    -0.073 C 
ATOM     14  C   UNL     1      -2.732 -10.913  14.175  0.00  0.00    -0.022 C 
ATOM     19  C   UNL     1      -1.653 -10.636  16.393  0.00  0.00    +0.039 C 
ENDROOT
BRANCH   8  12
ATOM     12  C   UNL     1      -6.413 -10.768  12.956  0.00  0.00    -0.013 C 
ATOM     17  C   UNL     1      -7.754 -10.963  13.654  0.00  0.00    +0.007 C 
ATOM     18  C   UNL     1      -6.268  -9.336  12.451  0.00  0.00    +0.007 C 
ENDBRANCH   8  12
BRANCH   9  15
ATOM     15  C   UNL     1      -3.652 -12.178  12.244  0.00  0.00    +0.109 C 
BRANCH  15   3
ATOM      3  N   UNL     1      -3.184 -11.680  10.981  0.00  0.00    -0.342 N 
ATOM     33  H   UNL     1      -2.203 -11.772  10.735  0.00  0.00    +0.146 HD
BRANCH   3  21
ATOM      6  N   UNL     1      -5.894 -11.066   8.575  0.00  0.00    -0.219 NA
ATOM     21  C   UNL     1      -3.988 -11.018  10.060  0.00  0.00    +0.046 A 
ATOM     23  C   UNL     1      -3.729  -9.701   9.697  0.00  0.00    +0.029 A 
ATOM     24  C   UNL     1      -5.073 -11.651   9.476  0.00  0.00    +0.137 A 
ATOM     25  C   UNL     1      -4.551  -9.066   8.773  0.00  0.00    +0.069 A 
ATOM     27  C   UNL     1      -5.611  -9.786   8.246  0.00  0.00    +0.214 A 
BRANCH  27   2
ATOM      2  O   UNL     1      -6.435  -9.181   7.333  0.00  0.00    -0.480 OA
ATOM     32  C   UNL     1      -7.826  -9.458   7.444  0.00  0.00    +0.279 C 
ENDBRANCH  27   2
ENDBRANCH   3  21
ENDBRANCH  15   3
ENDBRANCH   9  15
BRANCH  11  16
ATOM     16  C   UNL     1      -4.586 -11.807  16.973  0.00  0.00    +0.105 C 
BRANCH  16  20
ATOM      1  O   UNL     1      -6.651 -12.139  18.231  0.00  0.00    -0.420 OA
ATOM      4  N   UNL     1      -5.291 -10.587  19.095  0.00  0.00    -0.112 NA
ATOM      5  N   UNL     1      -6.411 -10.669  19.901  0.00  0.00    -0.107 NA
ATOM     20  C   UNL     1      -5.474 -11.462  18.134  0.00  0.00    +0.218 A 
ATOM     22  C   UNL     1      -7.177 -11.587  19.359  0.00  0.00    +0.250 A 
BRANCH  22  26
ATOM      7  N   UNL     1     -10.809 -11.674  20.149  0.00  0.00    -0.263 NA
ATOM     26  C   UNL     1      -8.458 -12.088  19.764  0.00  0.00    +0.057 A 
ATOM     28  C   UNL     1      -8.620 -13.413  20.153  0.00  0.00    +0.016 A 
ATOM     29  C   UNL     1      -9.574 -11.267  19.779  0.00  0.00    +0.124 A 
ATOM     30  C   UNL     1      -9.875 -13.869  20.540  0.00  0.00    +0.020 A 
ATOM     31  C   UNL     1     -10.927 -12.969  20.521  0.00  0.00    +0.111 A 
ENDBRANCH  22  26
ENDBRANCH  16  20
ENDBRANCH  11  16
TORSDOF 8
ENDMDL
MODEL 10
REMARK VINA RESULT:      -6.1      4.186      8.288
REMARK  Name = 38030491
REMARK  12 active torsions:
REMARK  status: ('A' for Active; 'I' for Inactive)
REMARK    1  A    between atoms: O_2  and  C_27
REMARK    2  A    between atoms: O_2  and  C_32
REMARK    3  A    between atoms: N_3  and  C_15
REMARK    4  A    between atoms: N_3  and  C_21
REMARK    5  A    between atoms: C_8  and  C_12
REMARK    6  A    between atoms: C_9  and  C_15
REMARK    7  A    between atoms: C_11  and  C_16
REMARK    8  A    between atoms: C_12  and  C_17
REMARK    9  A    between atoms: C_12  and  C_18
REMARK   10  A    between atoms: C_13  and  C_19
REMARK   11  A    between atoms: C_16  and  C_20
REMARK   12  A    between atoms: C_22  and  C_26
REMARK                            x       y       z     vdW  Elec       q    Type
REMARK                         _______ _______ _______ _____ _____    ______ ____
ROOT
ATOM      8  C   UNL     1      21.379   6.507  22.329  0.00  0.00    +0.000 C 
ATOM      9  C   UNL     1      21.666   5.338  21.354  0.00  0.00    +0.032 C 
ATOM     10  C   UNL     1      19.904   6.494  22.760  0.00  0.00    +0.012 C 
ATOM     11  C   UNL     1      18.946   6.613  21.561  0.00  0.00    +0.024 C 
ATOM     13  C   UNL     1      19.330   5.671  20.438  0.00  0.00    -0.073 C 
ATOM     14  C   UNL     1      20.546   5.100  20.369  0.00  0.00    -0.022 C 
ATOM     19  C   UNL     1      18.268   5.364  19.418  0.00  0.00    +0.039 C 
ENDROOT
BRANCH   8  12
ATOM     12  C   UNL     1      22.281   6.451  23.567  0.00  0.00    -0.013 C 
ATOM     17  C   UNL     1      21.675   7.265  24.704  0.00  0.00    +0.007 C 
ATOM     18  C   UNL     1      22.506   5.005  23.996  0.00  0.00    +0.007 C 
ENDBRANCH   8  12
BRANCH   9  15
ATOM     15  C   UNL     1      22.977   5.564  20.592  0.00  0.00    +0.109 C 
BRANCH  15   3
ATOM      3  N   UNL     1      23.379   4.340  19.955  0.00  0.00    -0.342 N 
ATOM     33  H   UNL     1      23.091   4.151  19.001  0.00  0.00    +0.146 HD
BRANCH   3  21
ATOM      6  N   UNL     1      26.193   2.641  21.600  0.00  0.00    -0.219 NA
ATOM     21  C   UNL     1      24.115   3.343  20.584  0.00  0.00    +0.046 A 
ATOM     23  C   UNL     1      23.564   2.090  20.829  0.00  0.00    +0.029 A 
ATOM     24  C   UNL     1      25.422   3.567  20.986  0.00  0.00    +0.137 A 
ATOM     25  C   UNL     1      24.326   1.112  21.458  0.00  0.00    +0.069 A 
ATOM     27  C   UNL     1      25.623   1.436  21.821  0.00  0.00    +0.214 A 
BRANCH  27   2
ATOM      2  O   UNL     1      26.394   0.488  22.442  0.00  0.00    -0.480 OA
ATOM     32  C   UNL     1      25.837  -0.136  23.594  0.00  0.00    +0.279 C 
ENDBRANCH  27   2
ENDBRANCH   3  21
ENDBRANCH  15   3
ENDBRANCH   9  15
BRANCH  11  16
ATOM     16  C   UNL     1      18.863   8.059  21.060  0.00  0.00    +0.105 C 
BRANCH  16  20
ATOM      1  O   UNL     1      16.625   8.056  20.086  0.00  0.00    -0.420 OA
ATOM      4  N   UNL     1      16.857   9.420  21.843  0.00  0.00    -0.112 NA
ATOM      5  N   UNL     1      15.553   9.518  21.397  0.00  0.00    -0.107 NA
ATOM     20  C   UNL     1      17.445   8.556  21.049  0.00  0.00    +0.218 A 
ATOM     22  C   UNL     1      15.462   8.705  20.370  0.00  0.00    +0.250 A 
BRANCH  22  26
ATOM      7  N   UNL     1      12.486   6.953  18.995  0.00  0.00    -0.263 NA
ATOM     26  C   UNL     1      14.350   8.401  19.518  0.00  0.00    +0.057 A 
ATOM     28  C   UNL     1      14.041   9.205  18.427  0.00  0.00    +0.016 A 
ATOM     29  C   UNL     1      13.548   7.296  19.757  0.00  0.00    +0.124 A 
ATOM     30  C   UNL     1      12.955   8.884  17.619  0.00  0.00    +0.020 A 
ATOM     31  C   UNL     1      12.217   7.759  17.943  0.00  0.00    +0.111 A 
ENDBRANCH  22  26
ENDBRANCH  16  20
ENDBRANCH  11  16
TORSDOF 8
ENDMDL
