MODEL 1
REMARK VINA RESULT:      -7.7      0.000      0.000
REMARK  Name = 45360943
REMARK  11 active torsions:
REMARK  status: ('A' for Active; 'I' for Inactive)
REMARK    1  A    between atoms: O_3  and  C_36
REMARK    2  A    between atoms: O_3  and  C_37
REMARK    3  A    between atoms: N_4  and  C_17
REMARK    4  A    between atoms: N_5  and  C_19
REMARK    5  A    between atoms: N_7  and  C_25
REMARK    6  A    between atoms: N_9  and  C_28
REMARK    7  A    between atoms: C_14  and  C_18
REMARK    8  A    between atoms: C_17  and  C_20
REMARK    9  A    between atoms: C_18  and  C_21
REMARK   10  A    between atoms: C_21  and  C_22
REMARK   11  A    between atoms: C_28  and  C_31
REMARK                            x       y       z     vdW  Elec       q    Type
REMARK                         _______ _______ _______ _____ _____    ______ ____
ROOT
ATOM      1  O   UNL     1     -12.742   4.945  22.288  0.00  0.00    -0.274 OA
ATOM      4  N   UNL     1     -14.085   7.055  21.271  0.00  0.00    -0.283 NA
ATOM      5  N   UNL     1     -16.568   4.455  21.953  0.00  0.00    -0.296 NA
ATOM      6  N   UNL     1     -14.360   4.391  23.809  0.00  0.00    -0.312 N 
ATOM     10  C   UNL     1     -16.139   5.858  21.760  0.00  0.00    +0.084 C 
ATOM     11  C   UNL     1     -14.763   6.300  22.341  0.00  0.00    +0.161 C 
ATOM     12  C   UNL     1     -16.012   6.276  20.283  0.00  0.00    +0.036 C 
ATOM     13  C   UNL     1     -15.115   7.494  20.337  0.00  0.00    +0.087 C 
ATOM     14  C   UNL     1     -16.776   4.065  23.376  0.00  0.00    +0.074 C 
ATOM     15  C   UNL     1     -13.851   5.157  22.778  0.00  0.00    +0.232 C 
ATOM     16  C   UNL     1     -15.693   4.564  24.351  0.00  0.00    +0.123 C 
ATOM     19  C   UNL     1     -17.775   4.163  21.162  0.00  0.00    +0.105 C 
ATOM     38  H   UNL     1     -13.792   3.627  24.163  0.00  0.00    +0.149 HD
ENDROOT
BRANCH   4  17
ATOM     17  C   UNL     1     -13.286   8.169  21.768  0.00  0.00    +0.159 C 
BRANCH  17  20
ATOM      7  N   UNL     1     -12.382  10.142  20.504  0.00  0.00    -0.330 N 
ATOM      8  N   UNL     1     -11.716   8.138  19.812  0.00  0.00    -0.231 NA
ATOM     20  C   UNL     1     -12.452   8.789  20.685  0.00  0.00    +0.125 A 
ATOM     23  C   UNL     1     -11.545  10.380  19.444  0.00  0.00    +0.069 A 
ATOM     24  C   UNL     1     -11.143   9.114  19.029  0.00  0.00    +0.089 A 
ATOM     25  C   UNL     1     -13.066  11.146  21.288  0.00  0.00    +0.150 C 
ATOM     26  C   UNL     1     -11.119  11.559  18.830  0.00  0.00    +0.028 A 
ATOM     27  C   UNL     1     -10.263   8.997  17.940  0.00  0.00    +0.030 A 
ATOM     29  C   UNL     1     -10.244  11.425  17.748  0.00  0.00    +0.002 A 
ATOM     30  C   UNL     1      -9.822  10.167  17.309  0.00  0.00    +0.002 A 
ENDBRANCH  17  20
ENDBRANCH   4  17
BRANCH  14  18
ATOM     18  C   UNL     1     -16.849   2.530  23.509  0.00  0.00    +0.029 C 
BRANCH  18  21
ATOM     21  C   UNL     1     -18.010   2.123  24.399  0.00  0.00    +0.097 C 
BRANCH  21  22
ATOM      2  O   UNL     1     -16.862   0.200  25.320  0.00  0.00    -0.276 OA
ATOM      9  N   UNL     1     -18.042   1.601  26.745  0.00  0.00    -0.311 N 
ATOM     22  C   UNL     1     -17.562   1.191  25.510  0.00  0.00    +0.213 C 
ATOM     39  H   UNL     1     -18.667   2.401  26.794  0.00  0.00    +0.149 HD
BRANCH   9  28
ATOM     28  C   UNL     1     -17.755   0.878  27.963  0.00  0.00    +0.139 C 
BRANCH  28  31
ATOM     31  C   UNL     1     -16.604   1.480  28.715  0.00  0.00    -0.030 A 
ATOM     32  C   UNL     1     -15.871   0.700  29.609  0.00  0.00    +0.009 A 
ATOM     33  C   UNL     1     -16.267   2.819  28.519  0.00  0.00    +0.009 A 
ATOM     34  C   UNL     1     -14.800   1.260  30.308  0.00  0.00    +0.046 A 
ATOM     35  C   UNL     1     -15.198   3.379  29.217  0.00  0.00    +0.046 A 
ATOM     36  C   UNL     1     -14.465   2.599  30.112  0.00  0.00    +0.120 A 
BRANCH  36   3
ATOM      3  O   UNL     1     -13.420   3.145  30.793  0.00  0.00    -0.495 OA
ATOM     37  C   UNL     1     -13.268   2.767  32.160  0.00  0.00    +0.277 C 
ENDBRANCH  36   3
ENDBRANCH  28  31
ENDBRANCH   9  28
ENDBRANCH  21  22
ENDBRANCH  18  21
ENDBRANCH  14  18
TORSDOF 8
ENDMDL
MODEL 2
REMARK VINA RESULT:      -7.6     18.251     21.130
REMARK  Name = 45360943
REMARK  11 active torsions:
REMARK  status: ('A' for Active; 'I' for Inactive)
REMARK    1  A    between atoms: O_3  and  C_36
REMARK    2  A    between atoms: O_3  and  C_37
REMARK    3  A    between atoms: N_4  and  C_17
REMARK    4  A    between atoms: N_5  and  C_19
REMARK    5  A    between atoms: N_7  and  C_25
REMARK    6  A    between atoms: N_9  and  C_28
REMARK    7  A    between atoms: C_14  and  C_18
REMARK    8  A    between atoms: C_17  and  C_20
REMARK    9  A    between atoms: C_18  and  C_21
REMARK   10  A    between atoms: C_21  and  C_22
REMARK   11  A    between atoms: C_28  and  C_31
REMARK                            x       y       z     vdW  Elec       q    Type
REMARK                         _______ _______ _______ _____ _____    ______ ____
ROOT
ATOM      1  O   UNL     1      -7.993  -9.470  15.705  0.00  0.00    -0.274 OA
ATOM      4  N   UNL     1      -8.910 -10.991  17.739  0.00  0.00    -0.283 NA
ATOM      5  N   UNL     1      -5.778 -12.512  16.614  0.00  0.00    -0.296 NA
ATOM      6  N   UNL     1      -5.791  -9.644  16.299  0.00  0.00    -0.312 N 
ATOM     10  C   UNL     1      -6.828 -12.233  17.618  0.00  0.00    +0.084 C 
ATOM     11  C   UNL     1      -7.449 -10.805  17.665  0.00  0.00    +0.161 C 
ATOM     12  C   UNL     1      -8.079 -13.121  17.479  0.00  0.00    +0.036 C 
ATOM     13  C   UNL     1      -9.146 -12.346  18.221  0.00  0.00    +0.087 C 
ATOM     14  C   UNL     1      -4.530 -11.718  16.791  0.00  0.00    +0.074 C 
ATOM     15  C   UNL     1      -7.134  -9.925  16.459  0.00  0.00    +0.232 C 
ATOM     16  C   UNL     1      -4.749 -10.229  17.120  0.00  0.00    +0.123 C 
ATOM     19  C   UNL     1      -5.466 -13.950  16.568  0.00  0.00    +0.105 C 
ATOM     38  H   UNL     1      -5.515  -9.044  15.528  0.00  0.00    +0.149 HD
ENDROOT
BRANCH   4  17
ATOM     17  C   UNL     1      -9.578  -9.992  18.565  0.00  0.00    +0.159 C 
BRANCH  17  20
ATOM      7  N   UNL     1     -11.650  -9.352  17.297  0.00  0.00    -0.330 N 
ATOM      8  N   UNL     1     -10.025  -7.837  17.360  0.00  0.00    -0.231 NA
ATOM     20  C   UNL     1     -10.396  -9.039  17.742  0.00  0.00    +0.125 A 
ATOM     23  C   UNL     1     -12.120  -8.280  16.583  0.00  0.00    +0.069 A 
ATOM     24  C   UNL     1     -11.088  -7.349  16.636  0.00  0.00    +0.089 A 
ATOM     25  C   UNL     1     -12.357 -10.590  17.538  0.00  0.00    +0.150 C 
ATOM     26  C   UNL     1     -13.324  -8.054  15.913  0.00  0.00    +0.028 A 
ATOM     27  C   UNL     1     -11.248  -6.112  15.990  0.00  0.00    +0.030 A 
ATOM     29  C   UNL     1     -13.467  -6.818  15.276  0.00  0.00    +0.002 A 
ATOM     30  C   UNL     1     -12.448  -5.862  15.312  0.00  0.00    +0.002 A 
ENDBRANCH  17  20
ENDBRANCH   4  17
BRANCH  14  18
ATOM     18  C   UNL     1      -3.660 -11.789  15.518  0.00  0.00    +0.029 C 
BRANCH  18  21
ATOM     21  C   UNL     1      -2.330 -11.090  15.737  0.00  0.00    +0.097 C 
BRANCH  21  22
ATOM      2  O   UNL     1      -1.063  -9.464  14.468  0.00  0.00    -0.276 OA
ATOM      9  N   UNL     1      -2.365 -11.016  13.334  0.00  0.00    -0.311 N 
ATOM     22  C   UNL     1      -1.836 -10.419  14.469  0.00  0.00    +0.213 C 
ATOM     39  H   UNL     1      -3.046 -11.763  13.439  0.00  0.00    +0.149 HD
BRANCH   9  28
ATOM     28  C   UNL     1      -2.048 -10.557  12.002  0.00  0.00    +0.139 C 
BRANCH  28  31
ATOM     31  C   UNL     1      -3.236  -9.940  11.323  0.00  0.00    -0.030 A 
ATOM     32  C   UNL     1      -3.094  -9.351  10.068  0.00  0.00    +0.009 A 
ATOM     33  C   UNL     1      -4.483  -9.958  11.949  0.00  0.00    +0.009 A 
ATOM     34  C   UNL     1      -4.199  -8.778   9.437  0.00  0.00    +0.046 A 
ATOM     35  C   UNL     1      -5.587  -9.384  11.319  0.00  0.00    +0.046 A 
ATOM     36  C   UNL     1      -5.445  -8.793  10.063  0.00  0.00    +0.120 A 
BRANCH  36   3
ATOM      3  O   UNL     1      -6.523  -8.236   9.448  0.00  0.00    -0.495 OA
ATOM     37  C   UNL     1      -7.809  -8.736   9.810  0.00  0.00    +0.277 C 
ENDBRANCH  36   3
ENDBRANCH  28  31
ENDBRANCH   9  28
ENDBRANCH  21  22
ENDBRANCH  18  21
ENDBRANCH  14  18
TORSDOF 8
ENDMDL
MODEL 3
REMARK VINA RESULT:      -7.5     20.343     21.770
REMARK  Name = 45360943
REMARK  11 active torsions:
REMARK  status: ('A' for Active; 'I' for Inactive)
REMARK    1  A    between atoms: O_3  and  C_36
REMARK    2  A    between atoms: O_3  and  C_37
REMARK    3  A    between atoms: N_4  and  C_17
REMARK    4  A    between atoms: N_5  and  C_19
REMARK    5  A    between atoms: N_7  and  C_25
REMARK    6  A    between atoms: N_9  and  C_28
REMARK    7  A    between atoms: C_14  and  C_18
REMARK    8  A    between atoms: C_17  and  C_20
REMARK    9  A    between atoms: C_18  and  C_21
REMARK   10  A    between atoms: C_21  and  C_22
REMARK   11  A    between atoms: C_28  and  C_31
REMARK                            x       y       z     vdW  Elec       q    Type
REMARK                         _______ _______ _______ _____ _____    ______ ____
ROOT
ATOM      1  O   UNL     1      -5.549  -9.573   7.464  0.00  0.00    -0.274 OA
ATOM      4  N   UNL     1      -7.574  -8.367   8.782  0.00  0.00    -0.283 NA
ATOM      5  N   UNL     1      -5.752 -10.366  11.248  0.00  0.00    -0.296 NA
ATOM      6  N   UNL     1      -4.036  -9.345   9.166  0.00  0.00    -0.312 N 
ATOM     10  C   UNL     1      -6.627  -9.245  10.838  0.00  0.00    +0.084 C 
ATOM     11  C   UNL     1      -6.299  -8.495   9.513  0.00  0.00    +0.161 C 
ATOM     12  C   UNL     1      -8.098  -9.646  10.623  0.00  0.00    +0.036 C 
ATOM     13  C   UNL     1      -8.645  -8.530   9.758  0.00  0.00    +0.087 C 
ATOM     14  C   UNL     1      -4.345  -9.975  11.540  0.00  0.00    +0.074 C 
ATOM     15  C   UNL     1      -5.291  -9.196   8.607  0.00  0.00    +0.232 C 
ATOM     16  C   UNL     1      -3.724  -8.987  10.534  0.00  0.00    +0.123 C 
ATOM     19  C   UNL     1      -6.330 -11.089  12.393  0.00  0.00    +0.105 C 
ATOM     38  H   UNL     1      -3.311  -9.784   8.606  0.00  0.00    +0.149 HD
ENDROOT
BRANCH   4  17
ATOM     17  C   UNL     1      -7.692  -7.117   8.042  0.00  0.00    +0.159 C 
BRANCH  17  20
ATOM      7  N   UNL     1      -9.611  -6.930   6.433  0.00  0.00    -0.330 N 
ATOM      8  N   UNL     1      -7.756  -7.870   5.650  0.00  0.00    -0.231 NA
ATOM     20  C   UNL     1      -8.328  -7.319   6.697  0.00  0.00    +0.125 A 
ATOM     23  C   UNL     1      -9.886  -7.251   5.128  0.00  0.00    +0.069 A 
ATOM     24  C   UNL     1      -8.713  -7.838   4.662  0.00  0.00    +0.089 A 
ATOM     25  C   UNL     1     -10.519  -6.291   7.360  0.00  0.00    +0.150 C 
ATOM     26  C   UNL     1     -11.026  -7.086   4.341  0.00  0.00    +0.028 A 
ATOM     27  C   UNL     1      -8.655  -8.291   3.334  0.00  0.00    +0.030 A 
ATOM     29  C   UNL     1     -10.951  -7.543   3.021  0.00  0.00    +0.002 A 
ATOM     30  C   UNL     1      -9.787  -8.135   2.524  0.00  0.00    +0.002 A 
ENDBRANCH  17  20
ENDBRANCH   4  17
BRANCH  14  18
ATOM     18  C   UNL     1      -3.437 -11.221  11.589  0.00  0.00    +0.029 C 
BRANCH  18  21
ATOM     21  C   UNL     1      -2.151 -10.920  12.337  0.00  0.00    +0.097 C 
BRANCH  21  22
ATOM      2  O   UNL     1      -1.869 -12.618  14.041  0.00  0.00    -0.276 OA
ATOM      9  N   UNL     1      -2.620 -10.510  14.660  0.00  0.00    -0.311 N 
ATOM     22  C   UNL     1      -2.187 -11.466  13.753  0.00  0.00    +0.213 C 
ATOM     39  H   UNL     1      -2.920  -9.602  14.316  0.00  0.00    +0.149 HD
BRANCH   9  28
ATOM     28  C   UNL     1      -2.742 -10.786  16.072  0.00  0.00    +0.139 C 
BRANCH  28  31
ATOM     31  C   UNL     1      -4.138 -10.546  16.572  0.00  0.00    -0.030 A 
ATOM     32  C   UNL     1      -5.088  -9.966  15.734  0.00  0.00    +0.009 A 
ATOM     33  C   UNL     1      -4.481 -10.903  17.876  0.00  0.00    +0.009 A 
ATOM     34  C   UNL     1      -6.385  -9.743  16.199  0.00  0.00    +0.046 A 
ATOM     35  C   UNL     1      -5.777 -10.680  18.342  0.00  0.00    +0.046 A 
ATOM     36  C   UNL     1      -6.729 -10.099  17.504  0.00  0.00    +0.120 A 
BRANCH  36   3
ATOM      3  O   UNL     1      -7.993  -9.883  17.957  0.00  0.00    -0.495 OA
ATOM     37  C   UNL     1      -8.786  -8.936  17.243  0.00  0.00    +0.277 C 
ENDBRANCH  36   3
ENDBRANCH  28  31
ENDBRANCH   9  28
ENDBRANCH  21  22
ENDBRANCH  18  21
ENDBRANCH  14  18
TORSDOF 8
ENDMDL
MODEL 4
REMARK VINA RESULT:      -7.5      2.257      3.918
REMARK  Name = 45360943
REMARK  11 active torsions:
REMARK  status: ('A' for Active; 'I' for Inactive)
REMARK    1  A    between atoms: O_3  and  C_36
REMARK    2  A    between atoms: O_3  and  C_37
REMARK    3  A    between atoms: N_4  and  C_17
REMARK    4  A    between atoms: N_5  and  C_19
REMARK    5  A    between atoms: N_7  and  C_25
REMARK    6  A    between atoms: N_9  and  C_28
REMARK    7  A    between atoms: C_14  and  C_18
REMARK    8  A    between atoms: C_17  and  C_20
REMARK    9  A    between atoms: C_18  and  C_21
REMARK   10  A    between atoms: C_21  and  C_22
REMARK   11  A    between atoms: C_28  and  C_31
REMARK                            x       y       z     vdW  Elec       q    Type
REMARK                         _______ _______ _______ _____ _____    ______ ____
ROOT
ATOM      1  O   UNL     1     -14.490   4.205  24.065  0.00  0.00    -0.274 OA
ATOM      4  N   UNL     1     -16.590   4.870  22.503  0.00  0.00    -0.283 NA
ATOM      5  N   UNL     1     -17.638   1.996  24.513  0.00  0.00    -0.296 NA
ATOM      6  N   UNL     1     -15.757   3.689  25.899  0.00  0.00    -0.312 N 
ATOM     10  C   UNL     1     -17.890   3.220  23.720  0.00  0.00    +0.084 C 
ATOM     11  C   UNL     1     -16.906   4.418  23.871  0.00  0.00    +0.161 C 
ATOM     12  C   UNL     1     -17.884   2.991  22.197  0.00  0.00    +0.036 C 
ATOM     13  C   UNL     1     -17.651   4.376  21.633  0.00  0.00    +0.087 C 
ATOM     14  C   UNL     1     -17.725   2.188  25.988  0.00  0.00    +0.074 C 
ATOM     15  C   UNL     1     -15.598   4.091  24.587  0.00  0.00    +0.232 C 
ATOM     16  C   UNL     1     -17.049   3.468  26.516  0.00  0.00    +0.123 C 
ATOM     19  C   UNL     1     -18.528   0.903  24.087  0.00  0.00    +0.105 C 
ATOM     38  H   UNL     1     -14.923   3.478  26.439  0.00  0.00    +0.149 HD
ENDROOT
BRANCH   4  17
ATOM     17  C   UNL     1     -16.421   6.314  22.397  0.00  0.00    +0.159 C 
BRANCH  17  20
ATOM      7  N   UNL     1     -15.299   7.209  20.336  0.00  0.00    -0.330 N 
ATOM      8  N   UNL     1     -13.959   6.542  21.978  0.00  0.00    -0.231 NA
ATOM     20  C   UNL     1     -15.207   6.679  21.593  0.00  0.00    +0.125 A 
ATOM     23  C   UNL     1     -14.025   7.429  19.880  0.00  0.00    +0.069 A 
ATOM     24  C   UNL     1     -13.206   7.004  20.922  0.00  0.00    +0.089 A 
ATOM     25  C   UNL     1     -16.520   7.490  19.614  0.00  0.00    +0.150 C 
ATOM     26  C   UNL     1     -13.533   7.946  18.681  0.00  0.00    +0.028 A 
ATOM     27  C   UNL     1     -11.812   7.094  20.779  0.00  0.00    +0.030 A 
ATOM     29  C   UNL     1     -12.142   8.028  18.554  0.00  0.00    +0.002 A 
ATOM     30  C   UNL     1     -11.295   7.610  19.584  0.00  0.00    +0.002 A 
ENDBRANCH  17  20
ENDBRANCH   4  17
BRANCH  14  18
ATOM     18  C   UNL     1     -17.093   0.990  26.726  0.00  0.00    +0.029 C 
BRANCH  18  21
ATOM     21  C   UNL     1     -17.454   1.017  28.200  0.00  0.00    +0.097 C 
BRANCH  21  22
ATOM      2  O   UNL     1     -15.309   0.153  28.916  0.00  0.00    -0.276 OA
ATOM      9  N   UNL     1     -16.256   1.927  30.075  0.00  0.00    -0.311 N 
ATOM     22  C   UNL     1     -16.219   0.962  29.080  0.00  0.00    +0.213 C 
ATOM     39  H   UNL     1     -17.082   2.512  30.168  0.00  0.00    +0.149 HD
BRANCH   9  28
ATOM     28  C   UNL     1     -15.195   2.078  31.044  0.00  0.00    +0.139 C 
BRANCH  28  31
ATOM     31  C   UNL     1     -14.994   3.513  31.437  0.00  0.00    -0.030 A 
ATOM     32  C   UNL     1     -15.865   4.494  30.965  0.00  0.00    +0.009 A 
ATOM     33  C   UNL     1     -13.934   3.864  32.273  0.00  0.00    +0.009 A 
ATOM     34  C   UNL     1     -15.678   5.828  31.331  0.00  0.00    +0.046 A 
ATOM     35  C   UNL     1     -13.746   5.197  32.638  0.00  0.00    +0.046 A 
ATOM     36  C   UNL     1     -14.617   6.179  32.167  0.00  0.00    +0.120 A 
BRANCH  36   3
ATOM      3  O   UNL     1     -14.435   7.479  32.524  0.00  0.00    -0.495 OA
ATOM     37  C   UNL     1     -13.376   7.759  33.438  0.00  0.00    +0.277 C 
ENDBRANCH  36   3
ENDBRANCH  28  31
ENDBRANCH   9  28
ENDBRANCH  21  22
ENDBRANCH  18  21
ENDBRANCH  14  18
TORSDOF 8
ENDMDL
MODEL 5
REMARK VINA RESULT:      -7.4      1.742      2.115
REMARK  Name = 45360943
REMARK  11 active torsions:
REMARK  status: ('A' for Active; 'I' for Inactive)
REMARK    1  A    between atoms: O_3  and  C_36
REMARK    2  A    between atoms: O_3  and  C_37
REMARK    3  A    between atoms: N_4  and  C_17
REMARK    4  A    between atoms: N_5  and  C_19
REMARK    5  A    between atoms: N_7  and  C_25
REMARK    6  A    between atoms: N_9  and  C_28
REMARK    7  A    between atoms: C_14  and  C_18
REMARK    8  A    between atoms: C_17  and  C_20
REMARK    9  A    between atoms: C_18  and  C_21
REMARK   10  A    between atoms: C_21  and  C_22
REMARK   11  A    between atoms: C_28  and  C_31
REMARK                            x       y       z     vdW  Elec       q    Type
REMARK                         _______ _______ _______ _____ _____    ______ ____
ROOT
ATOM      1  O   UNL     1     -13.936   4.716  21.883  0.00  0.00    -0.274 OA
ATOM      4  N   UNL     1     -15.529   6.194  20.279  0.00  0.00    -0.283 NA
ATOM      5  N   UNL     1     -17.651   3.628  21.799  0.00  0.00    -0.296 NA
ATOM      6  N   UNL     1     -15.499   4.454  23.534  0.00  0.00    -0.312 N 
ATOM     10  C   UNL     1     -17.413   4.943  21.164  0.00  0.00    +0.084 C 
ATOM     11  C   UNL     1     -16.124   5.729  21.547  0.00  0.00    +0.161 C 
ATOM     12  C   UNL     1     -17.308   4.887  19.628  0.00  0.00    +0.036 C 
ATOM     13  C   UNL     1     -16.587   6.170  19.276  0.00  0.00    +0.087 C 
ATOM     14  C   UNL     1     -17.838   3.681  23.276  0.00  0.00    +0.074 C 
ATOM     15  C   UNL     1     -15.075   4.918  22.304  0.00  0.00    +0.232 C 
ATOM     16  C   UNL     1     -16.855   4.606  24.021  0.00  0.00    +0.123 C 
ATOM     19  C   UNL     1     -18.788   2.939  21.165  0.00  0.00    +0.105 C 
ATOM     38  H   UNL     1     -14.841   3.926  24.099  0.00  0.00    +0.149 HD
ENDROOT
BRANCH   4  17
ATOM     17  C   UNL     1     -14.902   7.505  20.383  0.00  0.00    +0.159 C 
BRANCH  17  20
ATOM      7  N   UNL     1     -12.608   7.580  19.363  0.00  0.00    -0.330 N 
ATOM      8  N   UNL     1     -14.292   8.191  18.048  0.00  0.00    -0.231 NA
ATOM     20  C   UNL     1     -13.957   7.767  19.246  0.00  0.00    +0.125 A 
ATOM     23  C   UNL     1     -12.035   7.903  18.160  0.00  0.00    +0.069 A 
ATOM     24  C   UNL     1     -13.106   8.282  17.357  0.00  0.00    +0.089 A 
ATOM     25  C   UNL     1     -11.907   7.120  20.541  0.00  0.00    +0.150 C 
ATOM     26  C   UNL     1     -10.710   7.899  17.719  0.00  0.00    +0.028 A 
ATOM     27  C   UNL     1     -12.862   8.683  16.033  0.00  0.00    +0.030 A 
ATOM     29  C   UNL     1     -10.485   8.300  16.399  0.00  0.00    +0.002 A 
ATOM     30  C   UNL     1     -11.541   8.686  15.568  0.00  0.00    +0.002 A 
ENDBRANCH  17  20
ENDBRANCH   4  17
BRANCH  14  18
ATOM     18  C   UNL     1     -17.704   2.271  23.888  0.00  0.00    +0.029 C 
BRANCH  18  21
ATOM     21  C   UNL     1     -17.877   2.322  25.395  0.00  0.00    +0.097 C 
BRANCH  21  22
ATOM      2  O   UNL     1     -16.350   0.448  25.524  0.00  0.00    -0.276 OA
ATOM      9  N   UNL     1     -16.826   1.652  27.451  0.00  0.00    -0.311 N 
ATOM     22  C   UNL     1     -16.935   1.363  26.098  0.00  0.00    +0.213 C 
ATOM     39  H   UNL     1     -17.398   2.393  27.847  0.00  0.00    +0.149 HD
BRANCH   9  28
ATOM     28  C   UNL     1     -15.989   0.880  28.340  0.00  0.00    +0.139 C 
BRANCH  28  31
ATOM     31  C   UNL     1     -15.338   1.740  29.385  0.00  0.00    -0.030 A 
ATOM     32  C   UNL     1     -14.468   1.169  30.313  0.00  0.00    +0.009 A 
ATOM     33  C   UNL     1     -15.605   3.108  29.427  0.00  0.00    +0.009 A 
ATOM     34  C   UNL     1     -13.863   1.969  31.284  0.00  0.00    +0.046 A 
ATOM     35  C   UNL     1     -15.001   3.907  30.398  0.00  0.00    +0.046 A 
ATOM     36  C   UNL     1     -14.130   3.337  31.327  0.00  0.00    +0.120 A 
BRANCH  36   3
ATOM      3  O   UNL     1     -13.540   4.116  32.273  0.00  0.00    -0.495 OA
ATOM     37  C   UNL     1     -14.130   4.121  33.572  0.00  0.00    +0.277 C 
ENDBRANCH  36   3
ENDBRANCH  28  31
ENDBRANCH   9  28
ENDBRANCH  21  22
ENDBRANCH  18  21
ENDBRANCH  14  18
TORSDOF 8
ENDMDL
MODEL 6
REMARK VINA RESULT:      -7.4     18.999     20.443
REMARK  Name = 45360943
REMARK  11 active torsions:
REMARK  status: ('A' for Active; 'I' for Inactive)
REMARK    1  A    between atoms: O_3  and  C_36
REMARK    2  A    between atoms: O_3  and  C_37
REMARK    3  A    between atoms: N_4  and  C_17
REMARK    4  A    between atoms: N_5  and  C_19
REMARK    5  A    between atoms: N_7  and  C_25
REMARK    6  A    between atoms: N_9  and  C_28
REMARK    7  A    between atoms: C_14  and  C_18
REMARK    8  A    between atoms: C_17  and  C_20
REMARK    9  A    between atoms: C_18  and  C_21
REMARK   10  A    between atoms: C_21  and  C_22
REMARK   11  A    between atoms: C_28  and  C_31
REMARK                            x       y       z     vdW  Elec       q    Type
REMARK                         _______ _______ _______ _____ _____    ______ ____
ROOT
ATOM      1  O   UNL     1      -6.160  -9.557  13.473  0.00  0.00    -0.274 OA
ATOM      4  N   UNL     1      -4.130 -10.637  12.057  0.00  0.00    -0.283 NA
ATOM      5  N   UNL     1      -3.167 -10.812  15.584  0.00  0.00    -0.296 NA
ATOM      6  N   UNL     1      -6.017 -11.049  15.202  0.00  0.00    -0.312 N 
ATOM     10  C   UNL     1      -3.116 -11.258  14.174  0.00  0.00    +0.084 C 
ATOM     11  C   UNL     1      -4.438 -11.273  13.352  0.00  0.00    +0.161 C 
ATOM     12  C   UNL     1      -2.194 -10.406  13.281  0.00  0.00    +0.036 C 
ATOM     13  C   UNL     1      -2.684 -10.705  11.880  0.00  0.00    +0.087 C 
ATOM     14  C   UNL     1      -3.988 -11.679  16.475  0.00  0.00    +0.074 C 
ATOM     15  C   UNL     1      -5.604 -10.524  13.993  0.00  0.00    +0.232 C 
ATOM     16  C   UNL     1      -5.333 -12.134  15.877  0.00  0.00    +0.123 C 
ATOM     19  C   UNL     1      -1.809 -10.656  16.133  0.00  0.00    +0.105 C 
ATOM     38  H   UNL     1      -6.804 -10.611  15.671  0.00  0.00    +0.149 HD
ENDROOT
BRANCH   4  17
ATOM     17  C   UNL     1      -4.848 -11.232  10.937  0.00  0.00    +0.159 C 
BRANCH  17  20
ATOM      7  N   UNL     1      -5.688  -9.257   9.632  0.00  0.00    -0.330 N 
ATOM      8  N   UNL     1      -7.224 -10.469  10.684  0.00  0.00    -0.231 NA
ATOM     20  C   UNL     1      -5.942 -10.336  10.432  0.00  0.00    +0.125 A 
ATOM     23  C   UNL     1      -6.887  -8.654   9.349  0.00  0.00    +0.069 A 
ATOM     24  C   UNL     1      -7.830  -9.429  10.017  0.00  0.00    +0.089 A 
ATOM     25  C   UNL     1      -4.389  -8.826   9.165  0.00  0.00    +0.150 C 
ATOM     26  C   UNL     1      -7.216  -7.531   8.589  0.00  0.00    +0.028 A 
ATOM     27  C   UNL     1      -9.187  -9.079   9.934  0.00  0.00    +0.030 A 
ATOM     29  C   UNL     1      -8.572  -7.196   8.517  0.00  0.00    +0.002 A 
ATOM     30  C   UNL     1      -9.543  -7.955   9.177  0.00  0.00    +0.002 A 
ENDBRANCH  17  20
ENDBRANCH   4  17
BRANCH  14  18
ATOM     18  C   UNL     1      -4.291 -10.955  17.803  0.00  0.00    +0.029 C 
BRANCH  18  21
ATOM     21  C   UNL     1      -4.511 -11.956  18.922  0.00  0.00    +0.097 C 
BRANCH  21  22
ATOM      2  O   UNL     1      -5.838 -11.267  20.826  0.00  0.00    -0.276 OA
ATOM      9  N   UNL     1      -6.915 -11.959  18.890  0.00  0.00    -0.311 N 
ATOM     22  C   UNL     1      -5.802 -11.682  19.671  0.00  0.00    +0.213 C 
ATOM     39  H   UNL     1      -6.784 -12.358  17.965  0.00  0.00    +0.149 HD
BRANCH   9  28
ATOM     28  C   UNL     1      -8.263 -11.781  19.378  0.00  0.00    +0.139 C 
BRANCH  28  31
ATOM     31  C   UNL     1      -8.951 -10.622  18.715  0.00  0.00    -0.030 A 
ATOM     32  C   UNL     1     -10.286 -10.345  19.006  0.00  0.00    +0.009 A 
ATOM     33  C   UNL     1      -8.254  -9.825  17.808  0.00  0.00    +0.009 A 
ATOM     34  C   UNL     1     -10.925  -9.268  18.390  0.00  0.00    +0.046 A 
ATOM     35  C   UNL     1      -8.893  -8.749  17.191  0.00  0.00    +0.046 A 
ATOM     36  C   UNL     1     -10.229  -8.471  17.482  0.00  0.00    +0.120 A 
BRANCH  36   3
ATOM      3  O   UNL     1     -10.851  -7.421  16.882  0.00  0.00    -0.495 OA
ATOM     37  C   UNL     1     -10.280  -6.934  15.669  0.00  0.00    +0.277 C 
ENDBRANCH  36   3
ENDBRANCH  28  31
ENDBRANCH   9  28
ENDBRANCH  21  22
ENDBRANCH  18  21
ENDBRANCH  14  18
TORSDOF 8
ENDMDL
MODEL 7
REMARK VINA RESULT:      -7.4     18.889     20.357
REMARK  Name = 45360943
REMARK  11 active torsions:
REMARK  status: ('A' for Active; 'I' for Inactive)
REMARK    1  A    between atoms: O_3  and  C_36
REMARK    2  A    between atoms: O_3  and  C_37
REMARK    3  A    between atoms: N_4  and  C_17
REMARK    4  A    between atoms: N_5  and  C_19
REMARK    5  A    between atoms: N_7  and  C_25
REMARK    6  A    between atoms: N_9  and  C_28
REMARK    7  A    between atoms: C_14  and  C_18
REMARK    8  A    between atoms: C_17  and  C_20
REMARK    9  A    between atoms: C_18  and  C_21
REMARK   10  A    between atoms: C_21  and  C_22
REMARK   11  A    between atoms: C_28  and  C_31
REMARK                            x       y       z     vdW  Elec       q    Type
REMARK                         _______ _______ _______ _____ _____    ______ ____
ROOT
ATOM      1  O   UNL     1      -6.370  -8.575  12.289  0.00  0.00    -0.274 OA
ATOM      4  N   UNL     1      -4.958 -10.127  10.589  0.00  0.00    -0.283 NA
ATOM      5  N   UNL     1      -3.423 -10.511  13.889  0.00  0.00    -0.296 NA
ATOM      6  N   UNL     1      -6.267 -10.046  14.039  0.00  0.00    -0.312 N 
ATOM     10  C   UNL     1      -3.745 -10.965  12.518  0.00  0.00    +0.084 C 
ATOM     11  C   UNL     1      -5.162 -10.661  11.949  0.00  0.00    +0.161 C 
ATOM     12  C   UNL     1      -2.830 -10.369  11.431  0.00  0.00    +0.036 C 
ATOM     13  C   UNL     1      -3.630 -10.548  10.159  0.00  0.00    +0.087 C 
ATOM     14  C   UNL     1      -4.246 -11.145  14.957  0.00  0.00    +0.074 C 
ATOM     15  C   UNL     1      -5.974  -9.646  12.749  0.00  0.00    +0.232 C 
ATOM     16  C   UNL     1      -5.749 -11.261  14.635  0.00  0.00    +0.123 C 
ATOM     19  C   UNL     1      -1.990 -10.688  14.177  0.00  0.00    +0.105 C 
ATOM     38  H   UNL     1      -6.824  -9.426  14.618  0.00  0.00    +0.149 HD
ENDROOT
BRANCH   4  17
ATOM     17  C   UNL     1      -5.994 -10.535   9.648  0.00  0.00    +0.159 C 
BRANCH  17  20
ATOM      7  N   UNL     1      -8.261  -9.454   9.662  0.00  0.00    -0.330 N 
ATOM      8  N   UNL     1      -6.620  -8.293   8.713  0.00  0.00    -0.231 NA
ATOM     20  C   UNL     1      -6.936  -9.411   9.328  0.00  0.00    +0.125 A 
ATOM     23  C   UNL     1      -8.838  -8.285   9.235  0.00  0.00    +0.069 A 
ATOM     24  C   UNL     1      -7.794  -7.579   8.645  0.00  0.00    +0.089 A 
ATOM     25  C   UNL     1      -8.935 -10.535  10.345  0.00  0.00    +0.150 C 
ATOM     26  C   UNL     1     -10.145  -7.802   9.310  0.00  0.00    +0.028 A 
ATOM     27  C   UNL     1      -8.050  -6.312   8.094  0.00  0.00    +0.030 A 
ATOM     29  C   UNL     1     -10.382  -6.540   8.756  0.00  0.00    +0.002 A 
ATOM     30  C   UNL     1      -9.354  -5.806   8.158  0.00  0.00    +0.002 A 
ENDBRANCH  17  20
ENDBRANCH   4  17
BRANCH  14  18
ATOM     18  C   UNL     1      -4.113 -10.360  16.278  0.00  0.00    +0.029 C 
BRANCH  18  21
ATOM     21  C   UNL     1      -3.744 -11.291  17.420  0.00  0.00    +0.097 C 
BRANCH  21  22
ATOM      2  O   UNL     1      -5.078 -12.927  18.605  0.00  0.00    -0.276 OA
ATOM      9  N   UNL     1      -5.948 -10.805  18.249  0.00  0.00    -0.311 N 
ATOM     22  C   UNL     1      -4.974 -11.789  18.155  0.00  0.00    +0.213 C 
ATOM     39  H   UNL     1      -5.794  -9.911  17.791  0.00  0.00    +0.149 HD
BRANCH   9  28
ATOM     28  C   UNL     1      -7.215 -11.033  18.904  0.00  0.00    +0.139 C 
BRANCH  28  31
ATOM     31  C   UNL     1      -8.314 -10.204  18.304  0.00  0.00    -0.030 A 
ATOM     32  C   UNL     1      -8.029  -9.306  17.276  0.00  0.00    +0.009 A 
ATOM     33  C   UNL     1      -9.620 -10.332  18.777  0.00  0.00    +0.009 A 
ATOM     34  C   UNL     1      -9.050  -8.536  16.719  0.00  0.00    +0.046 A 
ATOM     35  C   UNL     1     -10.641  -9.561  18.221  0.00  0.00    +0.046 A 
ATOM     36  C   UNL     1     -10.356  -8.663  17.192  0.00  0.00    +0.120 A 
BRANCH  36   3
ATOM      3  O   UNL     1     -11.352  -7.913  16.649  0.00  0.00    -0.495 OA
ATOM     37  C   UNL     1     -11.092  -6.523  16.463  0.00  0.00    +0.277 C 
ENDBRANCH  36   3
ENDBRANCH  28  31
ENDBRANCH   9  28
ENDBRANCH  21  22
ENDBRANCH  18  21
ENDBRANCH  14  18
TORSDOF 8
ENDMDL
MODEL 8
REMARK VINA RESULT:      -7.3     17.240     19.880
REMARK  Name = 45360943
REMARK  11 active torsions:
REMARK  status: ('A' for Active; 'I' for Inactive)
REMARK    1  A    between atoms: O_3  and  C_36
REMARK    2  A    between atoms: O_3  and  C_37
REMARK    3  A    between atoms: N_4  and  C_17
REMARK    4  A    between atoms: N_5  and  C_19
REMARK    5  A    between atoms: N_7  and  C_25
REMARK    6  A    between atoms: N_9  and  C_28
REMARK    7  A    between atoms: C_14  and  C_18
REMARK    8  A    between atoms: C_17  and  C_20
REMARK    9  A    between atoms: C_18  and  C_21
REMARK   10  A    between atoms: C_21  and  C_22
REMARK   11  A    between atoms: C_28  and  C_31
REMARK                            x       y       z     vdW  Elec       q    Type
REMARK                         _______ _______ _______ _____ _____    ______ ____
ROOT
ATOM      1  O   UNL     1      -6.786  -9.430  16.343  0.00  0.00    -0.274 OA
ATOM      4  N   UNL     1      -7.097 -11.798  17.603  0.00  0.00    -0.283 NA
ATOM      5  N   UNL     1     -10.173  -9.896  18.159  0.00  0.00    -0.296 NA
ATOM      6  N   UNL     1      -8.951  -9.303  15.614  0.00  0.00    -0.312 N 
ATOM     10  C   UNL     1      -9.393 -11.148  18.046  0.00  0.00    +0.084 C 
ATOM     11  C   UNL     1      -8.295 -11.242  16.946  0.00  0.00    +0.161 C 
ATOM     12  C   UNL     1      -8.604 -11.510  19.318  0.00  0.00    +0.036 C 
ATOM     13  C   UNL     1      -7.546 -12.470  18.816  0.00  0.00    +0.087 C 
ATOM     14  C   UNL     1     -11.007  -9.580  16.966  0.00  0.00    +0.074 C 
ATOM     15  C   UNL     1      -7.917  -9.913  16.298  0.00  0.00    +0.232 C 
ATOM     16  C   UNL     1     -10.311  -9.804  15.610  0.00  0.00    +0.123 C 
ATOM     19  C   UNL     1     -11.004  -9.903  19.375  0.00  0.00    +0.105 C 
ATOM     38  H   UNL     1      -8.760  -8.426  15.139  0.00  0.00    +0.149 HD
ENDROOT
BRANCH   4  17
ATOM     17  C   UNL     1      -6.325 -12.685  16.740  0.00  0.00    +0.159 C 
BRANCH  17  20
ATOM      7  N   UNL     1      -4.866 -11.735  14.930  0.00  0.00    -0.330 N 
ATOM      8  N   UNL     1      -4.039 -11.683  16.992  0.00  0.00    -0.231 NA
ATOM     20  C   UNL     1      -5.065 -12.033  16.249  0.00  0.00    +0.125 A 
ATOM     23  C   UNL     1      -3.630 -11.152  14.815  0.00  0.00    +0.069 A 
ATOM     24  C   UNL     1      -3.134 -11.133  16.115  0.00  0.00    +0.089 A 
ATOM     25  C   UNL     1      -5.792 -11.984  13.848  0.00  0.00    +0.150 C 
ATOM     26  C   UNL     1      -2.923 -10.658  13.717  0.00  0.00    +0.028 A 
ATOM     27  C   UNL     1      -1.860 -10.590  16.354  0.00  0.00    +0.030 A 
ATOM     29  C   UNL     1      -1.657 -10.122  13.973  0.00  0.00    +0.002 A 
ATOM     30  C   UNL     1      -1.133 -10.088  15.268  0.00  0.00    +0.002 A 
ENDBRANCH  17  20
ENDBRANCH   4  17
BRANCH  14  18
ATOM     18  C   UNL     1     -11.477  -8.111  17.009  0.00  0.00    +0.029 C 
BRANCH  18  21
ATOM     21  C   UNL     1     -12.315  -7.779  15.788  0.00  0.00    +0.097 C 
BRANCH  21  22
ATOM      2  O   UNL     1     -11.067  -5.710  15.637  0.00  0.00    -0.276 OA
ATOM      9  N   UNL     1     -13.008  -5.952  14.388  0.00  0.00    -0.311 N 
ATOM     22  C   UNL     1     -12.037  -6.375  15.284  0.00  0.00    +0.213 C 
ATOM     39  H   UNL     1     -13.808  -6.551  14.204  0.00  0.00    +0.149 HD
BRANCH   9  28
ATOM     28  C   UNL     1     -12.970  -4.648  13.767  0.00  0.00    +0.139 C 
BRANCH  28  31
ATOM     31  C   UNL     1     -12.501  -4.718  12.342  0.00  0.00    -0.030 A 
ATOM     32  C   UNL     1     -12.147  -3.552  11.666  0.00  0.00    +0.009 A 
ATOM     33  C   UNL     1     -12.419  -5.952  11.696  0.00  0.00    +0.009 A 
ATOM     34  C   UNL     1     -11.711  -3.617  10.342  0.00  0.00    +0.046 A 
ATOM     35  C   UNL     1     -11.985  -6.018  10.372  0.00  0.00    +0.046 A 
ATOM     36  C   UNL     1     -11.631  -4.850   9.695  0.00  0.00    +0.120 A 
BRANCH  36   3
ATOM      3  O   UNL     1     -11.205  -4.915   8.405  0.00  0.00    -0.495 OA
ATOM     37  C   UNL     1     -11.080  -6.213   7.826  0.00  0.00    +0.277 C 
ENDBRANCH  36   3
ENDBRANCH  28  31
ENDBRANCH   9  28
ENDBRANCH  21  22
ENDBRANCH  18  21
ENDBRANCH  14  18
TORSDOF 8
ENDMDL
MODEL 9
REMARK VINA RESULT:      -7.2      2.290     11.038
REMARK  Name = 45360943
REMARK  11 active torsions:
REMARK  status: ('A' for Active; 'I' for Inactive)
REMARK    1  A    between atoms: O_3  and  C_36
REMARK    2  A    between atoms: O_3  and  C_37
REMARK    3  A    between atoms: N_4  and  C_17
REMARK    4  A    between atoms: N_5  and  C_19
REMARK    5  A    between atoms: N_7  and  C_25
REMARK    6  A    between atoms: N_9  and  C_28
REMARK    7  A    between atoms: C_14  and  C_18
REMARK    8  A    between atoms: C_17  and  C_20
REMARK    9  A    between atoms: C_18  and  C_21
REMARK   10  A    between atoms: C_21  and  C_22
REMARK   11  A    between atoms: C_28  and  C_31
REMARK                            x       y       z     vdW  Elec       q    Type
REMARK                         _______ _______ _______ _____ _____    ______ ____
ROOT
ATOM      1  O   UNL     1     -15.174   3.728  24.787  0.00  0.00    -0.274 OA
ATOM      4  N   UNL     1     -17.420   4.316  26.166  0.00  0.00    -0.283 NA
ATOM      5  N   UNL     1     -17.269   6.650  23.351  0.00  0.00    -0.296 NA
ATOM      6  N   UNL     1     -16.103   4.086  22.726  0.00  0.00    -0.312 N 
ATOM     10  C   UNL     1     -17.980   5.878  24.393  0.00  0.00    +0.084 C 
ATOM     11  C   UNL     1     -17.504   4.427  24.697  0.00  0.00    +0.161 C 
ATOM     12  C   UNL     1     -17.939   6.527  25.790  0.00  0.00    +0.036 C 
ATOM     13  C   UNL     1     -18.251   5.377  26.723  0.00  0.00    +0.087 C 
ATOM     14  C   UNL     1     -17.374   6.076  21.980  0.00  0.00    +0.074 C 
ATOM     15  C   UNL     1     -16.146   4.057  24.107  0.00  0.00    +0.232 C 
ATOM     16  C   UNL     1     -17.202   4.547  21.902  0.00  0.00    +0.123 C 
ATOM     19  C   UNL     1     -17.706   8.056  23.350  0.00  0.00    +0.105 C 
ATOM     38  H   UNL     1     -15.234   3.828  22.269  0.00  0.00    +0.149 HD
ENDROOT
BRANCH   4  17
ATOM     17  C   UNL     1     -17.800   3.002  26.668  0.00  0.00    +0.159 C 
BRANCH  17  20
ATOM      7  N   UNL     1     -17.056   1.331  28.390  0.00  0.00    -0.330 N 
ATOM      8  N   UNL     1     -15.830   3.176  28.212  0.00  0.00    -0.231 NA
ATOM     20  C   UNL     1     -16.878   2.528  27.754  0.00  0.00    +0.125 A 
ATOM     23  C   UNL     1     -16.056   1.198  29.318  0.00  0.00    +0.069 A 
ATOM     24  C   UNL     1     -15.305   2.361  29.188  0.00  0.00    +0.089 A 
ATOM     25  C   UNL     1     -18.108   0.374  28.130  0.00  0.00    +0.150 C 
ATOM     26  C   UNL     1     -15.754   0.188  30.234  0.00  0.00    +0.028 A 
ATOM     27  C   UNL     1     -14.182   2.548  30.011  0.00  0.00    +0.030 A 
ATOM     29  C   UNL     1     -14.633   0.390  31.046  0.00  0.00    +0.002 A 
ATOM     30  C   UNL     1     -13.859   1.549  30.938  0.00  0.00    +0.002 A 
ENDBRANCH  17  20
ENDBRANCH   4  17
BRANCH  14  18
ATOM     18  C   UNL     1     -16.321   6.710  21.047  0.00  0.00    +0.029 C 
BRANCH  18  21
ATOM     21  C   UNL     1     -15.184   7.312  21.853  0.00  0.00    +0.097 C 
BRANCH  21  22
ATOM      2  O   UNL     1     -13.624   5.474  21.634  0.00  0.00    -0.276 OA
ATOM      9  N   UNL     1     -12.945   7.610  21.030  0.00  0.00    -0.311 N 
ATOM     22  C   UNL     1     -13.852   6.674  21.504  0.00  0.00    +0.213 C 
ATOM     39  H   UNL     1     -13.207   8.592  21.017  0.00  0.00    +0.149 HD
BRANCH   9  28
ATOM     28  C   UNL     1     -11.604   7.251  20.632  0.00  0.00    +0.139 C 
BRANCH  28  31
ATOM     31  C   UNL     1     -11.121   8.079  19.475  0.00  0.00    -0.030 A 
ATOM     32  C   UNL     1     -10.673   9.381  19.690  0.00  0.00    +0.009 A 
ATOM     33  C   UNL     1     -11.122   7.543  18.188  0.00  0.00    +0.009 A 
ATOM     34  C   UNL     1     -10.224  10.150  18.615  0.00  0.00    +0.046 A 
ATOM     35  C   UNL     1     -10.675   8.312  17.113  0.00  0.00    +0.046 A 
ATOM     36  C   UNL     1     -10.226   9.615  17.326  0.00  0.00    +0.120 A 
BRANCH  36   3
ATOM      3  O   UNL     1      -9.788  10.364  16.278  0.00  0.00    -0.495 OA
ATOM     37  C   UNL     1      -9.704  11.774  16.478  0.00  0.00    +0.277 C 
ENDBRANCH  36   3
ENDBRANCH  28  31
ENDBRANCH   9  28
ENDBRANCH  21  22
ENDBRANCH  18  21
ENDBRANCH  14  18
TORSDOF 8
ENDMDL
MODEL 10
REMARK VINA RESULT:      -7.2     31.196     36.315
REMARK  Name = 45360943
REMARK  11 active torsions:
REMARK  status: ('A' for Active; 'I' for Inactive)
REMARK    1  A    between atoms: O_3  and  C_36
REMARK    2  A    between atoms: O_3  and  C_37
REMARK    3  A    between atoms: N_4  and  C_17
REMARK    4  A    between atoms: N_5  and  C_19
REMARK    5  A    between atoms: N_7  and  C_25
REMARK    6  A    between atoms: N_9  and  C_28
REMARK    7  A    between atoms: C_14  and  C_18
REMARK    8  A    between atoms: C_17  and  C_20
REMARK    9  A    between atoms: C_18  and  C_21
REMARK   10  A    between atoms: C_21  and  C_22
REMARK   11  A    between atoms: C_28  and  C_31
REMARK                            x       y       z     vdW  Elec       q    Type
REMARK                         _______ _______ _______ _____ _____    ______ ____
ROOT
ATOM      1  O   UNL     1      15.800   7.313   4.150  0.00  0.00    -0.274 OA
ATOM      4  N   UNL     1      16.851   9.333   5.600  0.00  0.00    -0.283 NA
ATOM      5  N   UNL     1      13.226   9.463   6.083  0.00  0.00    -0.296 NA
ATOM      6  N   UNL     1      14.194   6.774   5.688  0.00  0.00    -0.312 N 
ATOM     10  C   UNL     1      14.625   9.722   6.488  0.00  0.00    +0.084 C 
ATOM     11  C   UNL     1      15.697   8.631   6.193  0.00  0.00    +0.161 C 
ATOM     12  C   UNL     1      15.246  10.967   5.828  0.00  0.00    +0.036 C 
ATOM     13  C   UNL     1      16.736  10.738   5.973  0.00  0.00    +0.087 C 
ATOM     14  C   UNL     1      12.587   8.310   6.779  0.00  0.00    +0.074 C 
ATOM     15  C   UNL     1      15.252   7.534   5.229  0.00  0.00    +0.232 C 
ATOM     16  C   UNL     1      13.477   7.060   6.915  0.00  0.00    +0.123 C 
ATOM     19  C   UNL     1      12.402  10.673   6.240  0.00  0.00    +0.105 C 
ATOM     38  H   UNL     1      13.864   6.011   5.105  0.00  0.00    +0.149 HD
ENDROOT
BRANCH   4  17
ATOM     17  C   UNL     1      18.135   8.766   5.992  0.00  0.00    +0.159 C 
BRANCH  17  20
ATOM      7  N   UNL     1      20.209   7.828   4.931  0.00  0.00    -0.330 N 
ATOM      8  N   UNL     1      18.624   8.534   3.543  0.00  0.00    -0.231 NA
ATOM     20  C   UNL     1      18.968   8.385   4.802  0.00  0.00    +0.125 A 
ATOM     23  C   UNL     1      20.698   7.601   3.670  0.00  0.00    +0.069 A 
ATOM     24  C   UNL     1      19.691   8.051   2.822  0.00  0.00    +0.089 A 
ATOM     25  C   UNL     1      20.887   7.528   6.172  0.00  0.00    +0.150 C 
ATOM     26  C   UNL     1      21.901   7.059   3.213  0.00  0.00    +0.028 A 
ATOM     27  C   UNL     1      19.875   7.962   1.432  0.00  0.00    +0.030 A 
ATOM     29  C   UNL     1      22.067   6.977   1.827  0.00  0.00    +0.002 A 
ATOM     30  C   UNL     1      21.073   7.420   0.950  0.00  0.00    +0.002 A 
ENDBRANCH  17  20
ENDBRANCH   4  17
BRANCH  14  18
ATOM     18  C   UNL     1      11.298   7.885   6.045  0.00  0.00    +0.029 C 
BRANCH  18  21
ATOM     21  C   UNL     1      10.763   6.582   6.611  0.00  0.00    +0.097 C 
BRANCH  21  22
ATOM      2  O   UNL     1       9.734   4.588   5.700  0.00  0.00    -0.276 OA
ATOM      9  N   UNL     1      10.932   5.988   4.288  0.00  0.00    -0.311 N 
ATOM     22  C   UNL     1      10.406   5.599   5.511  0.00  0.00    +0.213 C 
ATOM     39  H   UNL     1      11.528   6.810   4.243  0.00  0.00    +0.149 HD
BRANCH   9  28
ATOM     28  C   UNL     1      10.733   5.217   3.082  0.00  0.00    +0.139 C 
BRANCH  28  31
ATOM     31  C   UNL     1      12.035   4.824   2.446  0.00  0.00    -0.030 A 
ATOM     32  C   UNL     1      13.060   5.760   2.319  0.00  0.00    +0.009 A 
ATOM     33  C   UNL     1      12.218   3.521   1.984  0.00  0.00    +0.009 A 
ATOM     34  C   UNL     1      14.270   5.394   1.728  0.00  0.00    +0.046 A 
ATOM     35  C   UNL     1      13.427   3.155   1.392  0.00  0.00    +0.046 A 
ATOM     36  C   UNL     1      14.453   4.091   1.263  0.00  0.00    +0.120 A 
BRANCH  36   3
ATOM      3  O   UNL     1      15.632   3.734   0.688  0.00  0.00    -0.495 OA
ATOM     37  C   UNL     1      15.905   4.254  -0.612  0.00  0.00    +0.277 C 
ENDBRANCH  36   3
ENDBRANCH  28  31
ENDBRANCH   9  28
ENDBRANCH  21  22
ENDBRANCH  18  21
ENDBRANCH  14  18
TORSDOF 8
ENDMDL
