MODEL 1
REMARK VINA RESULT:      -5.9      0.000      0.000
REMARK  Name = 56775446
REMARK  9 active torsions:
REMARK  status: ('A' for Active; 'I' for Inactive)
REMARK    1  A    between atoms: N_3  and  C_7
REMARK    2  A    between atoms: N_3  and  C_12
REMARK    3  A    between atoms: N_5  and  C_16
REMARK    4  A    between atoms: N_5  and  C_20
REMARK    5  A    between atoms: N_5  and  C_21
REMARK    6  A    between atoms: C_7  and  C_10
REMARK    7  A    between atoms: C_10  and  C_11
REMARK    8  A    between atoms: C_12  and  C_14
REMARK    9  A    between atoms: C_15  and  C_16
REMARK                            x       y       z     vdW  Elec       q    Type
REMARK                         _______ _______ _______ _____ _____    ______ ____
ROOT
ATOM      1  O   UNL     1      11.722   7.778  18.291  0.00  0.00    -0.376 OA
ATOM      7  C   UNL     1      12.864   8.036  20.076  0.00  0.00    +0.072 C 
ATOM      8  C   UNL     1      11.922   8.871  19.215  0.00  0.00    +0.184 C 
ATOM      9  C   UNL     1      12.529   6.904  19.112  0.00  0.00    +0.184 C 
ENDROOT
BRANCH   7   3
ATOM      3  N   UNL     1      14.232   8.472  19.831  0.00  0.00    -0.302 NA
ATOM     23  H   UNL     1      14.350   9.480  19.734  0.00  0.00    +0.123 HD
BRANCH   3  12
ATOM     12  C   UNL     1      15.105   7.977  20.893  0.00  0.00    +0.118 C 
BRANCH  12  14
ATOM      6  N   UNL     1      17.007   5.573  18.672  0.00  0.00    -0.263 NA
ATOM     14  C   UNL     1      16.222   7.127  20.349  0.00  0.00    -0.015 A 
ATOM     17  C   UNL     1      17.464   7.090  20.976  0.00  0.00    +0.008 A 
ATOM     18  C   UNL     1      16.047   6.357  19.210  0.00  0.00    +0.115 A 
ATOM     19  C   UNL     1      18.477   6.295  20.451  0.00  0.00    +0.020 A 
ATOM     22  C   UNL     1      18.200   5.562  19.308  0.00  0.00    +0.111 A 
ENDBRANCH  12  14
ENDBRANCH   3  12
ENDBRANCH   7   3
BRANCH   7  10
ATOM     10  C   UNL     1      12.550   7.859  21.567  0.00  0.00    +0.085 C 
BRANCH  10  11
ATOM      2  O   UNL     1      10.537  10.419  23.033  0.00  0.00    -0.358 OA
ATOM      4  N   UNL     1      10.725   9.130  22.549  0.00  0.00    -0.083 NA
ATOM     11  C   UNL     1      11.998   9.095  22.144  0.00  0.00    +0.086 A 
ATOM     13  C   UNL     1      12.655  10.321  22.346  0.00  0.00    +0.072 A 
ATOM     15  C   UNL     1      11.693  11.118  22.907  0.00  0.00    +0.151 A 
BRANCH  15  16
ATOM     16  C   UNL     1      11.671  12.546  23.386  0.00  0.00    +0.161 C 
BRANCH  16   5
ATOM      5  N   UNL     1      10.461  12.847  24.149  0.00  0.00    -0.301 NA
ATOM     20  C   UNL     1       9.835  14.071  23.653  0.00  0.00    +0.105 C 
ATOM     21  C   UNL     1      10.772  12.972  25.572  0.00  0.00    +0.105 C 
ENDBRANCH  16   5
ENDBRANCH  15  16
ENDBRANCH  10  11
ENDBRANCH   7  10
TORSDOF 7
ENDMDL
MODEL 2
REMARK VINA RESULT:      -5.8      3.213      5.297
REMARK  Name = 56775446
REMARK  9 active torsions:
REMARK  status: ('A' for Active; 'I' for Inactive)
REMARK    1  A    between atoms: N_3  and  C_7
REMARK    2  A    between atoms: N_3  and  C_12
REMARK    3  A    between atoms: N_5  and  C_16
REMARK    4  A    between atoms: N_5  and  C_20
REMARK    5  A    between atoms: N_5  and  C_21
REMARK    6  A    between atoms: C_7  and  C_10
REMARK    7  A    between atoms: C_10  and  C_11
REMARK    8  A    between atoms: C_12  and  C_14
REMARK    9  A    between atoms: C_15  and  C_16
REMARK                            x       y       z     vdW  Elec       q    Type
REMARK                         _______ _______ _______ _____ _____    ______ ____
ROOT
ATOM      1  O   UNL     1      10.542   8.411  21.382  0.00  0.00    -0.376 OA
ATOM      7  C   UNL     1      12.307   7.463  20.645  0.00  0.00    +0.072 C 
ATOM      8  C   UNL     1      11.119   7.094  21.528  0.00  0.00    +0.184 C 
ATOM      9  C   UNL     1      11.589   8.796  20.462  0.00  0.00    +0.184 C 
ENDROOT
BRANCH   7   3
ATOM      3  N   UNL     1      13.473   7.671  21.491  0.00  0.00    -0.302 NA
ATOM     23  H   UNL     1      13.291   7.616  22.493  0.00  0.00    +0.123 HD
BRANCH   3  12
ATOM     12  C   UNL     1      14.521   6.719  21.131  0.00  0.00    +0.118 C 
BRANCH  12  14
ATOM      6  N   UNL     1      18.289   7.082  21.118  0.00  0.00    -0.263 NA
ATOM     14  C   UNL     1      15.887   7.352  21.161  0.00  0.00    -0.015 A 
ATOM     17  C   UNL     1      16.036   8.732  21.257  0.00  0.00    +0.008 A 
ATOM     18  C   UNL     1      17.035   6.578  21.094  0.00  0.00    +0.115 A 
ATOM     19  C   UNL     1      17.311   9.287  21.283  0.00  0.00    +0.020 A 
ATOM     22  C   UNL     1      18.394   8.426  21.212  0.00  0.00    +0.111 A 
ENDBRANCH  12  14
ENDBRANCH   3  12
ENDBRANCH   7   3
BRANCH   7  10
ATOM     10  C   UNL     1      12.609   6.607  19.409  0.00  0.00    +0.085 C 
BRANCH  10  11
ATOM      2  O   UNL     1      12.243   8.453  16.374  0.00  0.00    -0.358 OA
ATOM      4  N   UNL     1      11.750   7.627  17.376  0.00  0.00    -0.083 NA
ATOM     11  C   UNL     1      12.777   7.444  18.210  0.00  0.00    +0.086 A 
ATOM     13  C   UNL     1      13.933   8.125  17.790  0.00  0.00    +0.072 A 
ATOM     15  C   UNL     1      13.544   8.744  16.632  0.00  0.00    +0.151 A 
BRANCH  15  16
ATOM     16  C   UNL     1      14.243   9.636  15.640  0.00  0.00    +0.161 C 
BRANCH  16   5
ATOM      5  N   UNL     1      13.991  11.051  15.908  0.00  0.00    -0.301 NA
ATOM     20  C   UNL     1      13.927  11.804  14.656  0.00  0.00    +0.105 C 
ATOM     21  C   UNL     1      15.029  11.598  16.781  0.00  0.00    +0.105 C 
ENDBRANCH  16   5
ENDBRANCH  15  16
ENDBRANCH  10  11
ENDBRANCH   7  10
TORSDOF 7
ENDMDL
MODEL 3
REMARK VINA RESULT:      -5.7      2.094      2.437
REMARK  Name = 56775446
REMARK  9 active torsions:
REMARK  status: ('A' for Active; 'I' for Inactive)
REMARK    1  A    between atoms: N_3  and  C_7
REMARK    2  A    between atoms: N_3  and  C_12
REMARK    3  A    between atoms: N_5  and  C_16
REMARK    4  A    between atoms: N_5  and  C_20
REMARK    5  A    between atoms: N_5  and  C_21
REMARK    6  A    between atoms: C_7  and  C_10
REMARK    7  A    between atoms: C_10  and  C_11
REMARK    8  A    between atoms: C_12  and  C_14
REMARK    9  A    between atoms: C_15  and  C_16
REMARK                            x       y       z     vdW  Elec       q    Type
REMARK                         _______ _______ _______ _____ _____    ______ ____
ROOT
ATOM      1  O   UNL     1      11.525   6.279  20.617  0.00  0.00    -0.376 OA
ATOM      7  C   UNL     1      13.379   7.308  20.377  0.00  0.00    +0.072 C 
ATOM      8  C   UNL     1      12.400   6.540  19.496  0.00  0.00    +0.184 C 
ATOM      9  C   UNL     1      12.361   7.074  21.488  0.00  0.00    +0.184 C 
ENDROOT
BRANCH   7   3
ATOM      3  N   UNL     1      14.544   6.470  20.624  0.00  0.00    -0.302 NA
ATOM     23  H   UNL     1      14.350   5.471  20.676  0.00  0.00    +0.123 HD
BRANCH   3  12
ATOM     12  C   UNL     1      15.557   6.719  19.602  0.00  0.00    +0.118 C 
BRANCH  12  14
ATOM      6  N   UNL     1      18.513   7.701  21.754  0.00  0.00    -0.263 NA
ATOM     14  C   UNL     1      16.946   6.741  20.182  0.00  0.00    -0.015 A 
ATOM     17  C   UNL     1      17.930   5.871  19.722  0.00  0.00    +0.008 A 
ATOM     18  C   UNL     1      17.286   7.629  21.191  0.00  0.00    +0.115 A 
ATOM     19  C   UNL     1      19.203   5.916  20.277  0.00  0.00    +0.020 A 
ATOM     22  C   UNL     1      19.442   6.841  21.281  0.00  0.00    +0.111 A 
ENDBRANCH  12  14
ENDBRANCH   3  12
ENDBRANCH   7   3
BRANCH   7  10
ATOM     10  C   UNL     1      13.747   8.749  19.999  0.00  0.00    +0.085 C 
BRANCH  10  11
ATOM      2  O   UNL     1      14.418  10.345  23.122  0.00  0.00    -0.358 OA
ATOM      4  N   UNL     1      14.639   9.348  22.180  0.00  0.00    -0.083 NA
ATOM     11  C   UNL     1      13.786   9.617  21.187  0.00  0.00    +0.086 A 
ATOM     13  C   UNL     1      13.010  10.760  21.445  0.00  0.00    +0.072 A 
ATOM     15  C   UNL     1      13.447  11.180  22.673  0.00  0.00    +0.151 A 
BRANCH  15  16
ATOM     16  C   UNL     1      13.076  12.328  23.575  0.00  0.00    +0.161 C 
BRANCH  16   5
ATOM      5  N   UNL     1      12.662  11.867  24.900  0.00  0.00    -0.301 NA
ATOM     20  C   UNL     1      11.285  11.378  24.863  0.00  0.00    +0.105 C 
ATOM     21  C   UNL     1      12.795  12.945  25.880  0.00  0.00    +0.105 C 
ENDBRANCH  16   5
ENDBRANCH  15  16
ENDBRANCH  10  11
ENDBRANCH   7  10
TORSDOF 7
ENDMDL
MODEL 4
REMARK VINA RESULT:      -5.2     27.069     28.080
REMARK  Name = 56775446
REMARK  9 active torsions:
REMARK  status: ('A' for Active; 'I' for Inactive)
REMARK    1  A    between atoms: N_3  and  C_7
REMARK    2  A    between atoms: N_3  and  C_12
REMARK    3  A    between atoms: N_5  and  C_16
REMARK    4  A    between atoms: N_5  and  C_20
REMARK    5  A    between atoms: N_5  and  C_21
REMARK    6  A    between atoms: C_7  and  C_10
REMARK    7  A    between atoms: C_10  and  C_11
REMARK    8  A    between atoms: C_12  and  C_14
REMARK    9  A    between atoms: C_15  and  C_16
REMARK                            x       y       z     vdW  Elec       q    Type
REMARK                         _______ _______ _______ _____ _____    ______ ____
ROOT
ATOM      1  O   UNL     1      -2.845 -14.588  14.443  0.00  0.00    -0.376 OA
ATOM      7  C   UNL     1      -3.123 -12.471  14.420  0.00  0.00    +0.072 C 
ATOM      8  C   UNL     1      -3.892 -13.700  14.896  0.00  0.00    +0.184 C 
ATOM      9  C   UNL     1      -2.023 -13.463  14.057  0.00  0.00    +0.184 C 
ENDROOT
BRANCH   7   3
ATOM      3  N   UNL     1      -3.736 -11.981  13.194  0.00  0.00    -0.302 NA
ATOM     23  H   UNL     1      -4.697 -11.656  13.296  0.00  0.00    +0.123 HD
BRANCH   3  12
ATOM     12  C   UNL     1      -2.917 -10.913  12.626  0.00  0.00    +0.118 C 
BRANCH  12  14
ATOM      6  N   UNL     1      -5.738  -8.895  11.109  0.00  0.00    -0.263 NA
ATOM     14  C   UNL     1      -3.695 -10.067  11.653  0.00  0.00    -0.015 A 
ATOM     17  C   UNL     1      -3.139  -9.677  10.439  0.00  0.00    +0.008 A 
ATOM     18  C   UNL     1      -4.986  -9.653  11.938  0.00  0.00    +0.115 A 
ATOM     19  C   UNL     1      -3.882  -8.896   9.560  0.00  0.00    +0.020 A 
ATOM     22  C   UNL     1      -5.165  -8.536   9.938  0.00  0.00    +0.111 A 
ENDBRANCH  12  14
ENDBRANCH   3  12
ENDBRANCH   7   3
BRANCH   7  10
ATOM     10  C   UNL     1      -2.813 -11.354  15.424  0.00  0.00    +0.085 C 
BRANCH  10  11
ATOM      2  O   UNL     1      -5.946  -9.978  16.448  0.00  0.00    -0.358 OA
ATOM      4  N   UNL     1      -4.952 -10.200  15.503  0.00  0.00    -0.083 NA
ATOM     11  C   UNL     1      -4.028 -10.928  16.137  0.00  0.00    +0.086 A 
ATOM     13  C   UNL     1      -4.381 -11.193  17.472  0.00  0.00    +0.072 A 
ATOM     15  C   UNL     1      -5.595 -10.575  17.616  0.00  0.00    +0.151 A 
BRANCH  15  16
ATOM     16  C   UNL     1      -6.565 -10.434  18.760  0.00  0.00    +0.161 C 
BRANCH  16   5
ATOM      5  N   UNL     1      -7.655 -11.405  18.672  0.00  0.00    -0.301 NA
ATOM     20  C   UNL     1      -8.949 -10.725  18.718  0.00  0.00    +0.105 C 
ATOM     21  C   UNL     1      -7.555 -12.385  19.752  0.00  0.00    +0.105 C 
ENDBRANCH  16   5
ENDBRANCH  15  16
ENDBRANCH  10  11
ENDBRANCH   7  10
TORSDOF 7
ENDMDL
MODEL 5
REMARK VINA RESULT:      -5.2     25.156     27.712
REMARK  Name = 56775446
REMARK  9 active torsions:
REMARK  status: ('A' for Active; 'I' for Inactive)
REMARK    1  A    between atoms: N_3  and  C_7
REMARK    2  A    between atoms: N_3  and  C_12
REMARK    3  A    between atoms: N_5  and  C_16
REMARK    4  A    between atoms: N_5  and  C_20
REMARK    5  A    between atoms: N_5  and  C_21
REMARK    6  A    between atoms: C_7  and  C_10
REMARK    7  A    between atoms: C_10  and  C_11
REMARK    8  A    between atoms: C_12  and  C_14
REMARK    9  A    between atoms: C_15  and  C_16
REMARK                            x       y       z     vdW  Elec       q    Type
REMARK                         _______ _______ _______ _____ _____    ______ ____
ROOT
ATOM      1  O   UNL     1     -15.750   8.388  21.855  0.00  0.00    -0.376 OA
ATOM      7  C   UNL     1     -13.871   7.410  21.592  0.00  0.00    +0.072 C 
ATOM      8  C   UNL     1     -14.695   7.967  22.748  0.00  0.00    +0.184 C 
ATOM      9  C   UNL     1     -15.066   7.797  20.727  0.00  0.00    +0.184 C 
ENDROOT
BRANCH   7   3
ATOM      3  N   UNL     1     -12.774   8.326  21.313  0.00  0.00    -0.302 NA
ATOM     23  H   UNL     1     -12.484   8.900  22.104  0.00  0.00    +0.123 HD
BRANCH   3  12
ATOM     12  C   UNL     1     -11.626   7.582  20.802  0.00  0.00    +0.118 C 
BRANCH  12  14
ATOM      6  N   UNL     1     -10.000  10.054  18.442  0.00  0.00    -0.263 NA
ATOM     14  C   UNL     1     -11.081   8.190  19.538  0.00  0.00    -0.015 A 
ATOM     17  C   UNL     1     -11.140   7.504  18.329  0.00  0.00    +0.008 A 
ATOM     18  C   UNL     1     -10.506   9.451  19.540  0.00  0.00    +0.115 A 
ATOM     19  C   UNL     1     -10.629   8.092  17.177  0.00  0.00    +0.020 A 
ATOM     22  C   UNL     1     -10.075   9.357  17.286  0.00  0.00    +0.111 A 
ENDBRANCH  12  14
ENDBRANCH   3  12
ENDBRANCH   7   3
BRANCH   7  10
ATOM     10  C   UNL     1     -13.429   5.941  21.633  0.00  0.00    +0.085 C 
BRANCH  10  11
ATOM      2  O   UNL     1     -16.201   3.887  22.553  0.00  0.00    -0.358 OA
ATOM      4  N   UNL     1     -15.470   4.620  21.627  0.00  0.00    -0.083 NA
ATOM     11  C   UNL     1     -14.430   5.104  22.313  0.00  0.00    +0.086 A 
ATOM     13  C   UNL     1     -14.452   4.712  23.663  0.00  0.00    +0.072 A 
ATOM     15  C   UNL     1     -15.585   3.948  23.761  0.00  0.00    +0.151 A 
BRANCH  15  16
ATOM     16  C   UNL     1     -16.246   3.204  24.892  0.00  0.00    +0.161 C 
BRANCH  16   5
ATOM      5  N   UNL     1     -16.258   3.987  26.126  0.00  0.00    -0.301 NA
ATOM     20  C   UNL     1     -16.079   3.115  27.286  0.00  0.00    +0.105 C 
ATOM     21  C   UNL     1     -17.506   4.740  26.241  0.00  0.00    +0.105 C 
ENDBRANCH  16   5
ENDBRANCH  15  16
ENDBRANCH  10  11
ENDBRANCH   7  10
TORSDOF 7
ENDMDL
MODEL 6
REMARK VINA RESULT:      -5.1      3.595      6.290
REMARK  Name = 56775446
REMARK  9 active torsions:
REMARK  status: ('A' for Active; 'I' for Inactive)
REMARK    1  A    between atoms: N_3  and  C_7
REMARK    2  A    between atoms: N_3  and  C_12
REMARK    3  A    between atoms: N_5  and  C_16
REMARK    4  A    between atoms: N_5  and  C_20
REMARK    5  A    between atoms: N_5  and  C_21
REMARK    6  A    between atoms: C_7  and  C_10
REMARK    7  A    between atoms: C_10  and  C_11
REMARK    8  A    between atoms: C_12  and  C_14
REMARK    9  A    between atoms: C_15  and  C_16
REMARK                            x       y       z     vdW  Elec       q    Type
REMARK                         _______ _______ _______ _____ _____    ______ ____
ROOT
ATOM      1  O   UNL     1      19.318   8.945  22.205  0.00  0.00    -0.376 OA
ATOM      7  C   UNL     1      18.617   7.155  21.276  0.00  0.00    +0.072 C 
ATOM      8  C   UNL     1      19.472   7.535  22.481  0.00  0.00    +0.184 C 
ATOM      9  C   UNL     1      18.424   8.658  21.106  0.00  0.00    +0.184 C 
ENDROOT
BRANCH   7   3
ATOM      3  N   UNL     1      19.490   6.672  20.216  0.00  0.00    -0.302 NA
ATOM     23  H   UNL     1      20.416   7.099  20.195  0.00  0.00    +0.123 HD
BRANCH   3  12
ATOM     12  C   UNL     1      19.623   5.220  20.309  0.00  0.00    +0.118 C 
BRANCH  12  14
ATOM      6  N   UNL     1      22.598   3.085  21.270  0.00  0.00    -0.263 NA
ATOM     14  C   UNL     1      21.045   4.804  20.579  0.00  0.00    -0.015 A 
ATOM     17  C   UNL     1      22.098   5.696  20.405  0.00  0.00    +0.008 A 
ATOM     18  C   UNL     1      21.345   3.521  21.009  0.00  0.00    +0.115 A 
ATOM     19  C   UNL     1      23.400   5.283  20.663  0.00  0.00    +0.020 A 
ATOM     22  C   UNL     1      23.595   3.979  21.090  0.00  0.00    +0.111 A 
ENDBRANCH  12  14
ENDBRANCH   3  12
ENDBRANCH   7   3
BRANCH   7  10
ATOM     10  C   UNL     1      17.385   6.267  21.489  0.00  0.00    +0.085 C 
BRANCH  10  11
ATOM      2  O   UNL     1      15.352   6.785  18.599  0.00  0.00    -0.358 OA
ATOM      4  N   UNL     1      16.531   6.386  19.216  0.00  0.00    -0.083 NA
ATOM     11  C   UNL     1      16.325   6.589  20.520  0.00  0.00    +0.086 A 
ATOM     13  C   UNL     1      15.045   7.109  20.783  0.00  0.00    +0.072 A 
ATOM     15  C   UNL     1      14.475   7.213  19.542  0.00  0.00    +0.151 A 
BRANCH  15  16
ATOM     16  C   UNL     1      13.133   7.686  19.048  0.00  0.00    +0.161 C 
BRANCH  16   5
ATOM      5  N   UNL     1      12.540   8.676  19.946  0.00  0.00    -0.301 NA
ATOM     20  C   UNL     1      11.083   8.555  19.949  0.00  0.00    +0.105 C 
ATOM     21  C   UNL     1      12.940  10.027  19.553  0.00  0.00    +0.105 C 
ENDBRANCH  16   5
ENDBRANCH  15  16
ENDBRANCH  10  11
ENDBRANCH   7  10
TORSDOF 7
ENDMDL
MODEL 7
REMARK VINA RESULT:      -5.1     29.729     31.303
REMARK  Name = 56775446
REMARK  9 active torsions:
REMARK  status: ('A' for Active; 'I' for Inactive)
REMARK    1  A    between atoms: N_3  and  C_7
REMARK    2  A    between atoms: N_3  and  C_12
REMARK    3  A    between atoms: N_5  and  C_16
REMARK    4  A    between atoms: N_5  and  C_20
REMARK    5  A    between atoms: N_5  and  C_21
REMARK    6  A    between atoms: C_7  and  C_10
REMARK    7  A    between atoms: C_10  and  C_11
REMARK    8  A    between atoms: C_12  and  C_14
REMARK    9  A    between atoms: C_15  and  C_16
REMARK                            x       y       z     vdW  Elec       q    Type
REMARK                         _______ _______ _______ _____ _____    ______ ____
ROOT
ATOM      1  O   UNL     1     -13.594  -0.212  30.271  0.00  0.00    -0.376 OA
ATOM      7  C   UNL     1     -14.808   1.364  31.045  0.00  0.00    +0.072 C 
ATOM      8  C   UNL     1     -13.621   1.222  30.097  0.00  0.00    +0.184 C 
ATOM      9  C   UNL     1     -14.775  -0.160  31.103  0.00  0.00    +0.184 C 
ENDROOT
BRANCH   7   3
ATOM      3  N   UNL     1     -14.332   1.892  32.316  0.00  0.00    -0.302 NA
ATOM     23  H   UNL     1     -13.451   2.402  32.265  0.00  0.00    +0.123 HD
BRANCH   3  12
ATOM     12  C   UNL     1     -15.357   2.746  32.910  0.00  0.00    +0.118 C 
BRANCH  12  14
ATOM      6  N   UNL     1     -14.038   6.290  32.728  0.00  0.00    -0.263 NA
ATOM     14  C   UNL     1     -14.799   4.078  33.337  0.00  0.00    -0.015 A 
ATOM     17  C   UNL     1     -14.525   4.344  34.676  0.00  0.00    +0.008 A 
ATOM     18  C   UNL     1     -14.540   5.076  32.412  0.00  0.00    +0.115 A 
ATOM     19  C   UNL     1     -14.009   5.582  35.040  0.00  0.00    +0.020 A 
ATOM     22  C   UNL     1     -13.785   6.512  34.038  0.00  0.00    +0.111 A 
ENDBRANCH  12  14
ENDBRANCH   3  12
ENDBRANCH   7   3
BRANCH   7  10
ATOM     10  C   UNL     1     -16.080   2.060  30.545  0.00  0.00    +0.085 C 
BRANCH  10  11
ATOM      2  O   UNL     1     -16.910   0.653  27.370  0.00  0.00    -0.358 OA
ATOM      4  N   UNL     1     -16.809   0.587  28.754  0.00  0.00    -0.083 NA
ATOM     11  C   UNL     1     -16.318   1.774  29.122  0.00  0.00    +0.086 A 
ATOM     13  C   UNL     1     -16.093   2.622  28.023  0.00  0.00    +0.072 A 
ATOM     15  C   UNL     1     -16.482   1.870  26.946  0.00  0.00    +0.151 A 
BRANCH  15  16
ATOM     16  C   UNL     1     -16.522   2.118  25.461  0.00  0.00    +0.161 C 
BRANCH  16   5
ATOM      5  N   UNL     1     -16.561   3.546  25.148  0.00  0.00    -0.301 NA
ATOM     20  C   UNL     1     -17.821   3.891  24.494  0.00  0.00    +0.105 C 
ATOM     21  C   UNL     1     -15.427   3.914  24.300  0.00  0.00    +0.105 C 
ENDBRANCH  16   5
ENDBRANCH  15  16
ENDBRANCH  10  11
ENDBRANCH   7  10
TORSDOF 7
ENDMDL
MODEL 8
REMARK VINA RESULT:      -5.0      5.206      8.600
REMARK  Name = 56775446
REMARK  9 active torsions:
REMARK  status: ('A' for Active; 'I' for Inactive)
REMARK    1  A    between atoms: N_3  and  C_7
REMARK    2  A    between atoms: N_3  and  C_12
REMARK    3  A    between atoms: N_5  and  C_16
REMARK    4  A    between atoms: N_5  and  C_20
REMARK    5  A    between atoms: N_5  and  C_21
REMARK    6  A    between atoms: C_7  and  C_10
REMARK    7  A    between atoms: C_10  and  C_11
REMARK    8  A    between atoms: C_12  and  C_14
REMARK    9  A    between atoms: C_15  and  C_16
REMARK                            x       y       z     vdW  Elec       q    Type
REMARK                         _______ _______ _______ _____ _____    ______ ____
ROOT
ATOM      1  O   UNL     1      23.146   7.720  20.649  0.00  0.00    -0.376 OA
ATOM      7  C   UNL     1      21.687   6.209  21.026  0.00  0.00    +0.072 C 
ATOM      8  C   UNL     1      23.055   6.608  21.568  0.00  0.00    +0.184 C 
ATOM      9  C   UNL     1      21.814   7.454  20.156  0.00  0.00    +0.184 C 
ENDROOT
BRANCH   7   3
ATOM      3  N   UNL     1      21.841   5.031  20.184  0.00  0.00    -0.302 NA
ATOM     23  H   UNL     1      22.793   4.855  19.863  0.00  0.00    +0.123 HD
BRANCH   3  12
ATOM     12  C   UNL     1      21.336   3.853  20.885  0.00  0.00    +0.118 C 
BRANCH  12  14
ATOM      6  N   UNL     1      23.602   2.295  23.488  0.00  0.00    -0.263 NA
ATOM     14  C   UNL     1      22.450   3.047  21.499  0.00  0.00    -0.015 A 
ATOM     17  C   UNL     1      23.338   2.328  20.704  0.00  0.00    +0.008 A 
ATOM     18  C   UNL     1      22.623   2.997  22.873  0.00  0.00    +0.115 A 
ATOM     19  C   UNL     1      24.356   1.593  21.300  0.00  0.00    +0.020 A 
ATOM     22  C   UNL     1      24.444   1.609  22.683  0.00  0.00    +0.111 A 
ENDBRANCH  12  14
ENDBRANCH   3  12
ENDBRANCH   7   3
BRANCH   7  10
ATOM     10  C   UNL     1      20.505   6.099  21.998  0.00  0.00    +0.085 C 
BRANCH  10  11
ATOM      2  O   UNL     1      17.568   7.850  20.966  0.00  0.00    -0.358 OA
ATOM      4  N   UNL     1      18.713   7.723  21.742  0.00  0.00    -0.083 NA
ATOM     11  C   UNL     1      19.256   6.560  21.370  0.00  0.00    +0.086 A 
ATOM     13  C   UNL     1      18.505   5.916  20.372  0.00  0.00    +0.072 A 
ATOM     15  C   UNL     1      17.455   6.768  20.153  0.00  0.00    +0.151 A 
BRANCH  15  16
ATOM     16  C   UNL     1      16.262   6.739  19.235  0.00  0.00    +0.161 C 
BRANCH  16   5
ATOM      5  N   UNL     1      15.193   7.620  19.702  0.00  0.00    -0.301 NA
ATOM     20  C   UNL     1      14.168   6.851  20.407  0.00  0.00    +0.105 C 
ATOM     21  C   UNL     1      14.603   8.349  18.580  0.00  0.00    +0.105 C 
ENDBRANCH  16   5
ENDBRANCH  15  16
ENDBRANCH  10  11
ENDBRANCH   7  10
TORSDOF 7
ENDMDL
MODEL 9
REMARK VINA RESULT:      -5.0     29.744     30.931
REMARK  Name = 56775446
REMARK  9 active torsions:
REMARK  status: ('A' for Active; 'I' for Inactive)
REMARK    1  A    between atoms: N_3  and  C_7
REMARK    2  A    between atoms: N_3  and  C_12
REMARK    3  A    between atoms: N_5  and  C_16
REMARK    4  A    between atoms: N_5  and  C_20
REMARK    5  A    between atoms: N_5  and  C_21
REMARK    6  A    between atoms: C_7  and  C_10
REMARK    7  A    between atoms: C_10  and  C_11
REMARK    8  A    between atoms: C_12  and  C_14
REMARK    9  A    between atoms: C_15  and  C_16
REMARK                            x       y       z     vdW  Elec       q    Type
REMARK                         _______ _______ _______ _____ _____    ______ ____
ROOT
ATOM      1  O   UNL     1     -14.885  -0.971  30.130  0.00  0.00    -0.376 OA
ATOM      7  C   UNL     1     -14.618   1.077  30.669  0.00  0.00    +0.072 C 
ATOM      8  C   UNL     1     -15.264  -0.168  31.270  0.00  0.00    +0.184 C 
ATOM      9  C   UNL     1     -14.173   0.144  29.548  0.00  0.00    +0.184 C 
ENDROOT
BRANCH   7   3
ATOM      3  N   UNL     1     -15.666   1.951  30.163  0.00  0.00    -0.302 NA
ATOM     23  H   UNL     1     -16.142   2.506  30.874  0.00  0.00    +0.123 HD
BRANCH   3  12
ATOM     12  C   UNL     1     -15.119   2.836  29.138  0.00  0.00    +0.118 C 
BRANCH  12  14
ATOM      6  N   UNL     1     -17.523   5.128  27.321  0.00  0.00    -0.263 NA
ATOM     14  C   UNL     1     -16.034   3.998  28.854  0.00  0.00    -0.015 A 
ATOM     17  C   UNL     1     -16.244   4.993  29.804  0.00  0.00    +0.008 A 
ATOM     18  C   UNL     1     -16.691   4.111  27.640  0.00  0.00    +0.115 A 
ATOM     19  C   UNL     1     -17.094   6.054  29.513  0.00  0.00    +0.020 A 
ATOM     22  C   UNL     1     -17.703   6.075  28.269  0.00  0.00    +0.111 A 
ENDBRANCH  12  14
ENDBRANCH   3  12
ENDBRANCH   7   3
BRANCH   7  10
ATOM     10  C   UNL     1     -13.552   1.826  31.479  0.00  0.00    +0.085 C 
BRANCH  10  11
ATOM      2  O   UNL     1     -15.544   4.002  33.492  0.00  0.00    -0.358 OA
ATOM      4  N   UNL     1     -15.271   2.766  32.918  0.00  0.00    -0.083 NA
ATOM     11  C   UNL     1     -14.143   2.948  32.225  0.00  0.00    +0.086 A 
ATOM     13  C   UNL     1     -13.663   4.266  32.324  0.00  0.00    +0.072 A 
ATOM     15  C   UNL     1     -14.579   4.886  33.131  0.00  0.00    +0.151 A 
BRANCH  15  16
ATOM     16  C   UNL     1     -14.716   6.287  33.667  0.00  0.00    +0.161 C 
BRANCH  16   5
ATOM      5  N   UNL     1     -13.478   7.051  33.520  0.00  0.00    -0.301 NA
ATOM     20  C   UNL     1     -13.124   7.698  34.783  0.00  0.00    +0.105 C 
ATOM     21  C   UNL     1     -13.615   8.045  32.457  0.00  0.00    +0.105 C 
ENDBRANCH  16   5
ENDBRANCH  15  16
ENDBRANCH  10  11
ENDBRANCH   7  10
TORSDOF 7
ENDMDL
MODEL 10
REMARK VINA RESULT:      -4.9     26.684     29.321
REMARK  Name = 56775446
REMARK  9 active torsions:
REMARK  status: ('A' for Active; 'I' for Inactive)
REMARK    1  A    between atoms: N_3  and  C_7
REMARK    2  A    between atoms: N_3  and  C_12
REMARK    3  A    between atoms: N_5  and  C_16
REMARK    4  A    between atoms: N_5  and  C_20
REMARK    5  A    between atoms: N_5  and  C_21
REMARK    6  A    between atoms: C_7  and  C_10
REMARK    7  A    between atoms: C_10  and  C_11
REMARK    8  A    between atoms: C_12  and  C_14
REMARK    9  A    between atoms: C_15  and  C_16
REMARK                            x       y       z     vdW  Elec       q    Type
REMARK                         _______ _______ _______ _____ _____    ______ ____
ROOT
ATOM      1  O   UNL     1      -7.509 -13.088  19.026  0.00  0.00    -0.376 OA
ATOM      7  C   UNL     1      -6.836 -11.293  18.086  0.00  0.00    +0.072 C 
ATOM      8  C   UNL     1      -7.596 -11.683  19.351  0.00  0.00    +0.184 C 
ATOM      9  C   UNL     1      -6.703 -12.796  17.862  0.00  0.00    +0.184 C 
ENDROOT
BRANCH   7   3
ATOM      3  N   UNL     1      -7.781 -10.756  17.118  0.00  0.00    -0.302 NA
ATOM     23  H   UNL     1      -8.655 -11.275  17.039  0.00  0.00    +0.123 HD
BRANCH   3  12
ATOM     12  C   UNL     1      -8.069  -9.359  17.432  0.00  0.00    +0.118 C 
BRANCH  12  14
ATOM      6  N   UNL     1     -11.789  -9.748  16.848  0.00  0.00    -0.263 NA
ATOM     14  C   UNL     1      -9.509  -9.009  17.165  0.00  0.00    -0.015 A 
ATOM     17  C   UNL     1      -9.905  -7.687  16.991  0.00  0.00    +0.008 A 
ATOM     18  C   UNL     1     -10.481  -9.993  17.085  0.00  0.00    +0.115 A 
ATOM     19  C   UNL     1     -11.242  -7.395  16.746  0.00  0.00    +0.020 A 
ATOM     22  C   UNL     1     -12.136  -8.451  16.684  0.00  0.00    +0.111 A 
ENDBRANCH  12  14
ENDBRANCH   3  12
ENDBRANCH   7   3
BRANCH   7  10
ATOM     10  C   UNL     1      -5.563 -10.447  18.214  0.00  0.00    +0.085 C 
BRANCH  10  11
ATOM      2  O   UNL     1      -4.142 -10.400  14.939  0.00  0.00    -0.358 OA
ATOM      4  N   UNL     1      -5.170 -10.136  15.836  0.00  0.00    -0.083 NA
ATOM     11  C   UNL     1      -4.719 -10.572  17.016  0.00  0.00    +0.086 A 
ATOM     13  C   UNL     1      -3.425 -11.115  16.925  0.00  0.00    +0.072 A 
ATOM     15  C   UNL     1      -3.109 -10.982  15.599  0.00  0.00    +0.151 A 
BRANCH  15  16
ATOM     16  C   UNL     1      -1.900 -11.339  14.775  0.00  0.00    +0.161 C 
BRANCH  16   5
ATOM      5  N   UNL     1      -2.255 -12.142  13.606  0.00  0.00    -0.301 NA
ATOM     20  C   UNL     1      -1.557 -13.426  13.637  0.00  0.00    +0.105 C 
ATOM     21  C   UNL     1      -1.941 -11.419  12.374  0.00  0.00    +0.105 C 
ENDBRANCH  16   5
ENDBRANCH  15  16
ENDBRANCH  10  11
ENDBRANCH   7  10
TORSDOF 7
ENDMDL
