MODEL 1
REMARK VINA RESULT:      -7.2      0.000      0.000
REMARK  Name = 26742649
REMARK  4 active torsions:
REMARK  status: ('A' for Active; 'I' for Inactive)
REMARK    1  A    between atoms: N_4  and  C_16
REMARK    2  A    between atoms: C_16  and  C_18
REMARK    3  A    between atoms: C_17  and  C_19
REMARK    4  A    between atoms: C_18  and  C_20
REMARK                            x       y       z     vdW  Elec       q    Type
REMARK                         _______ _______ _______ _____ _____    ______ ____
ROOT
ATOM      1  O   UNL     1      -5.813 -11.569  10.330  0.00  0.00    -0.276 OA
ATOM      2  O   UNL     1      -1.662 -10.432  16.362  0.00  0.00    -0.270 OA
ATOM      3  N   UNL     1      -2.719 -12.053  15.050  0.00  0.00    -0.297 N 
ATOM      4  N   UNL     1      -4.024 -10.160  10.774  0.00  0.00    -0.301 N 
ATOM      7  C   UNL     1      -2.036 -11.895  12.672  0.00  0.00    +0.011 C 
ATOM      8  C   UNL     1      -3.252 -12.783  12.307  0.00  0.00    +0.004 C 
ATOM      9  C   UNL     1      -4.386 -12.655  13.343  0.00  0.00    +0.023 C 
ATOM     10  C   UNL     1      -1.597 -12.193  14.120  0.00  0.00    +0.112 C 
ATOM     11  C   UNL     1      -2.256 -10.380  12.493  0.00  0.00    +0.024 C 
ATOM     12  C   UNL     1      -3.742 -12.613  10.864  0.00  0.00    +0.100 C 
ATOM     13  C   UNL     1      -3.868 -12.918  14.756  0.00  0.00    +0.108 C 
ATOM     14  C   UNL     1      -2.602  -9.983  11.062  0.00  0.00    +0.108 C 
ATOM     15  C   UNL     1      -4.627 -11.403  10.627  0.00  0.00    +0.216 C 
ATOM     17  C   UNL     1      -2.625 -11.156  16.116  0.00  0.00    +0.247 C 
ENDROOT
BRANCH  17  19
ATOM     19  C   UNL     1      -3.775 -11.037  17.023  0.00  0.00    +0.037 A 
ATOM     21  C   UNL     1      -4.857 -10.230  16.675  0.00  0.00    +0.013 A 
ATOM     22  C   UNL     1      -3.784 -11.735  18.231  0.00  0.00    +0.013 A 
ATOM     24  C   UNL     1      -5.950 -10.119  17.536  0.00  0.00    +0.001 A 
ATOM     25  C   UNL     1      -4.876 -11.623  19.091  0.00  0.00    +0.001 A 
ATOM     26  C   UNL     1      -5.958 -10.816  18.744  0.00  0.00    +0.000 A 
ENDBRANCH  17  19
BRANCH   4  16
ATOM     16  C   UNL     1      -4.821  -8.945  10.657  0.00  0.00    +0.114 C 
BRANCH  16  18
ATOM     18  C   UNL     1      -5.220  -8.643   9.215  0.00  0.00    +0.073 C 
BRANCH  18  20
ATOM      5  N   UNL     1      -7.047  -7.189   8.252  0.00  0.00    -0.348 N 
ATOM      6  N   UNL     1      -8.901  -7.917   9.233  0.00  0.00    -0.244 NA
ATOM     20  C   UNL     1      -6.658  -8.203   9.083  0.00  0.00    +0.037 A 
ATOM     23  C   UNL     1      -7.819  -8.636   9.678  0.00  0.00    +0.133 A 
ATOM     27  C   UNL     1      -8.402  -7.055   8.376  0.00  0.00    +0.196 A 
ATOM     28  H   UNL     1      -6.446  -6.637   7.656  0.00  0.00    +0.166 HD
ENDBRANCH  18  20
ENDBRANCH  16  18
ENDBRANCH   4  16
TORSDOF 4
ENDMDL
MODEL 2
REMARK VINA RESULT:      -7.1      1.608      1.956
REMARK  Name = 26742649
REMARK  4 active torsions:
REMARK  status: ('A' for Active; 'I' for Inactive)
REMARK    1  A    between atoms: N_4  and  C_16
REMARK    2  A    between atoms: C_16  and  C_18
REMARK    3  A    between atoms: C_17  and  C_19
REMARK    4  A    between atoms: C_18  and  C_20
REMARK                            x       y       z     vdW  Elec       q    Type
REMARK                         _______ _______ _______ _____ _____    ______ ____
ROOT
ATOM      1  O   UNL     1      -5.870 -12.106  10.079  0.00  0.00    -0.276 OA
ATOM      2  O   UNL     1      -1.966 -10.114  16.054  0.00  0.00    -0.270 OA
ATOM      3  N   UNL     1      -2.846 -11.924  14.865  0.00  0.00    -0.297 N 
ATOM      4  N   UNL     1      -4.224 -10.508  10.430  0.00  0.00    -0.301 N 
ATOM      7  C   UNL     1      -2.130 -11.897  12.492  0.00  0.00    +0.011 C 
ATOM      8  C   UNL     1      -3.253 -12.918  12.184  0.00  0.00    +0.004 C 
ATOM      9  C   UNL     1      -4.415 -12.811  13.191  0.00  0.00    +0.023 C 
ATOM     10  C   UNL     1      -1.696 -12.037  13.965  0.00  0.00    +0.112 C 
ATOM     11  C   UNL     1      -2.480 -10.428  12.186  0.00  0.00    +0.024 C 
ATOM     12  C   UNL     1      -3.725 -12.910  10.725  0.00  0.00    +0.100 C 
ATOM     13  C   UNL     1      -3.906 -12.911  14.627  0.00  0.00    +0.108 C 
ATOM     14  C   UNL     1      -2.830 -10.181  10.722  0.00  0.00    +0.108 C 
ATOM     15  C   UNL     1      -4.710 -11.809  10.377  0.00  0.00    +0.216 C 
ATOM     17  C   UNL     1      -2.855 -10.940  15.855  0.00  0.00    +0.247 C 
ENDROOT
BRANCH  17  19
ATOM     19  C   UNL     1      -4.030 -10.853  16.733  0.00  0.00    +0.037 A 
ATOM     21  C   UNL     1      -5.136 -10.097  16.347  0.00  0.00    +0.013 A 
ATOM     22  C   UNL     1      -4.039 -11.530  17.953  0.00  0.00    +0.013 A 
ATOM     24  C   UNL     1      -6.252 -10.017  17.180  0.00  0.00    +0.001 A 
ATOM     25  C   UNL     1      -5.154 -11.449  18.786  0.00  0.00    +0.001 A 
ATOM     26  C   UNL     1      -6.260 -10.693  18.399  0.00  0.00    +0.000 A 
ENDBRANCH  17  19
BRANCH   4  16
ATOM     16  C   UNL     1      -5.123  -9.384  10.203  0.00  0.00    +0.114 C 
BRANCH  16  18
ATOM     18  C   UNL     1      -5.511  -8.672  11.497  0.00  0.00    +0.073 C 
BRANCH  18  20
ATOM      5  N   UNL     1      -7.050  -9.216  13.423  0.00  0.00    -0.348 N 
ATOM      6  N   UNL     1      -8.888  -9.996  12.451  0.00  0.00    -0.244 NA
ATOM     20  C   UNL     1      -6.810  -9.173  12.078  0.00  0.00    +0.037 A 
ATOM     23  C   UNL     1      -7.959  -9.660  11.499  0.00  0.00    +0.133 A 
ATOM     27  C   UNL     1      -8.310  -9.717  13.598  0.00  0.00    +0.196 A 
ATOM     28  H   UNL     1      -6.414  -8.933  14.156  0.00  0.00    +0.166 HD
ENDBRANCH  18  20
ENDBRANCH  16  18
ENDBRANCH   4  16
TORSDOF 4
ENDMDL
MODEL 3
REMARK VINA RESULT:      -6.7     27.874     29.875
REMARK  Name = 26742649
REMARK  4 active torsions:
REMARK  status: ('A' for Active; 'I' for Inactive)
REMARK    1  A    between atoms: N_4  and  C_16
REMARK    2  A    between atoms: C_16  and  C_18
REMARK    3  A    between atoms: C_17  and  C_19
REMARK    4  A    between atoms: C_18  and  C_20
REMARK                            x       y       z     vdW  Elec       q    Type
REMARK                         _______ _______ _______ _____ _____    ______ ____
ROOT
ATOM      1  O   UNL     1      11.935  10.955  24.598  0.00  0.00    -0.276 OA
ATOM      2  O   UNL     1      14.846   8.965  18.080  0.00  0.00    -0.270 OA
ATOM      3  N   UNL     1      13.482   8.279  19.851  0.00  0.00    -0.297 N 
ATOM      4  N   UNL     1      12.259  12.090  22.600  0.00  0.00    -0.301 N 
ATOM      7  C   UNL     1      11.653   9.898  20.279  0.00  0.00    +0.011 C 
ATOM      8  C   UNL     1      11.430   9.219  21.653  0.00  0.00    +0.004 C 
ATOM      9  C   UNL     1      12.714   8.545  22.174  0.00  0.00    +0.023 C 
ATOM     10  C   UNL     1      12.268   8.880  19.296  0.00  0.00    +0.112 C 
ATOM     11  C   UNL     1      12.510  11.177  20.313  0.00  0.00    +0.024 C 
ATOM     12  C   UNL     1      10.766  10.124  22.699  0.00  0.00    +0.100 C 
ATOM     13  C   UNL     1      13.291   7.588  21.131  0.00  0.00    +0.108 C 
ATOM     14  C   UNL     1      11.923  12.277  21.191  0.00  0.00    +0.108 C 
ATOM     15  C   UNL     1      11.704  11.093  23.393  0.00  0.00    +0.216 C 
ATOM     17  C   UNL     1      14.687   8.387  19.154  0.00  0.00    +0.247 C 
ENDROOT
BRANCH  17  19
ATOM     19  C   UNL     1      15.885   7.778  19.747  0.00  0.00    +0.037 A 
ATOM     21  C   UNL     1      16.595   8.456  20.737  0.00  0.00    +0.013 A 
ATOM     22  C   UNL     1      16.311   6.520  19.321  0.00  0.00    +0.013 A 
ATOM     24  C   UNL     1      17.732   7.877  21.301  0.00  0.00    +0.001 A 
ATOM     25  C   UNL     1      17.448   5.942  19.885  0.00  0.00    +0.001 A 
ATOM     26  C   UNL     1      18.158   6.620  20.875  0.00  0.00    +0.000 A 
ENDBRANCH  17  19
BRANCH   4  16
ATOM     16  C   UNL     1      13.243  13.007  23.163  0.00  0.00    +0.114 C 
BRANCH  16  18
ATOM     18  C   UNL     1      14.623  12.371  23.307  0.00  0.00    +0.073 C 
BRANCH  18  20
ATOM      5  N   UNL     1      14.785  11.186  25.530  0.00  0.00    -0.348 N 
ATOM      6  N   UNL     1      15.967  12.569  26.803  0.00  0.00    -0.244 NA
ATOM     20  C   UNL     1      15.075  12.264  24.742  0.00  0.00    +0.037 A 
ATOM     23  C   UNL     1      15.805  13.104  25.550  0.00  0.00    +0.133 A 
ATOM     27  C   UNL     1      15.341  11.414  26.758  0.00  0.00    +0.196 A 
ATOM     28  H   UNL     1      14.255  10.369  25.259  0.00  0.00    +0.166 HD
ENDBRANCH  18  20
ENDBRANCH  16  18
ENDBRANCH   4  16
TORSDOF 4
ENDMDL
MODEL 4
REMARK VINA RESULT:      -6.6     27.747     29.524
REMARK  Name = 26742649
REMARK  4 active torsions:
REMARK  status: ('A' for Active; 'I' for Inactive)
REMARK    1  A    between atoms: N_4  and  C_16
REMARK    2  A    between atoms: C_16  and  C_18
REMARK    3  A    between atoms: C_17  and  C_19
REMARK    4  A    between atoms: C_18  and  C_20
REMARK                            x       y       z     vdW  Elec       q    Type
REMARK                         _______ _______ _______ _____ _____    ______ ____
ROOT
ATOM      1  O   UNL     1      12.344  11.058  24.340  0.00  0.00    -0.276 OA
ATOM      2  O   UNL     1      14.677   8.409  17.825  0.00  0.00    -0.270 OA
ATOM      3  N   UNL     1      13.505   7.900  19.783  0.00  0.00    -0.297 N 
ATOM      4  N   UNL     1      12.448  11.971  22.210  0.00  0.00    -0.301 N 
ATOM      7  C   UNL     1      11.683   9.526  20.209  0.00  0.00    +0.011 C 
ATOM      8  C   UNL     1      11.609   9.000  21.664  0.00  0.00    +0.004 C 
ATOM      9  C   UNL     1      12.954   8.407  22.127  0.00  0.00    +0.023 C 
ATOM     10  C   UNL     1      12.229   8.417  19.287  0.00  0.00    +0.112 C 
ATOM     11  C   UNL     1      12.505  10.815  20.021  0.00  0.00    +0.024 C 
ATOM     12  C   UNL     1      11.023  10.004  22.665  0.00  0.00    +0.100 C 
ATOM     13  C   UNL     1      13.454   7.352  21.143  0.00  0.00    +0.108 C 
ATOM     14  C   UNL     1      11.975  11.996  20.827  0.00  0.00    +0.108 C 
ATOM     15  C   UNL     1      11.997  11.059  23.156  0.00  0.00    +0.216 C 
ATOM     17  C   UNL     1      14.635   7.949  18.965  0.00  0.00    +0.247 C 
ENDROOT
BRANCH  17  19
ATOM     19  C   UNL     1      15.900   7.429  19.502  0.00  0.00    +0.037 A 
ATOM     21  C   UNL     1      16.412   6.220  19.033  0.00  0.00    +0.013 A 
ATOM     22  C   UNL     1      16.590   8.147  20.479  0.00  0.00    +0.013 A 
ATOM     24  C   UNL     1      17.614   5.727  19.541  0.00  0.00    +0.001 A 
ATOM     25  C   UNL     1      17.792   7.653  20.987  0.00  0.00    +0.001 A 
ATOM     26  C   UNL     1      18.304   6.444  20.518  0.00  0.00    +0.000 A 
ENDBRANCH  17  19
BRANCH   4  16
ATOM     16  C   UNL     1      13.455  12.960  22.572  0.00  0.00    +0.114 C 
BRANCH  16  18
ATOM     18  C   UNL     1      12.874  14.364  22.713  0.00  0.00    +0.073 C 
BRANCH  18  20
ATOM      5  N   UNL     1      12.595  14.015  25.198  0.00  0.00    -0.348 N 
ATOM      6  N   UNL     1      10.786  15.194  25.717  0.00  0.00    -0.244 NA
ATOM     20  C   UNL     1      12.167  14.579  24.029  0.00  0.00    +0.037 A 
ATOM     23  C   UNL     1      11.050  15.302  24.375  0.00  0.00    +0.133 A 
ATOM     27  C   UNL     1      11.734  14.412  26.184  0.00  0.00    +0.196 A 
ATOM     28  H   UNL     1      13.397  13.411  25.316  0.00  0.00    +0.166 HD
ENDBRANCH  18  20
ENDBRANCH  16  18
ENDBRANCH   4  16
TORSDOF 4
ENDMDL
MODEL 5
REMARK VINA RESULT:      -6.6     23.407     25.586
REMARK  Name = 26742649
REMARK  4 active torsions:
REMARK  status: ('A' for Active; 'I' for Inactive)
REMARK    1  A    between atoms: N_4  and  C_16
REMARK    2  A    between atoms: C_16  and  C_18
REMARK    3  A    between atoms: C_17  and  C_19
REMARK    4  A    between atoms: C_18  and  C_20
REMARK                            x       y       z     vdW  Elec       q    Type
REMARK                         _______ _______ _______ _____ _____    ______ ____
ROOT
ATOM      1  O   UNL     1      14.234   7.932   2.790  0.00  0.00    -0.276 OA
ATOM      2  O   UNL     1       7.868   8.053   6.580  0.00  0.00    -0.270 OA
ATOM      3  N   UNL     1      10.140   8.602   6.647  0.00  0.00    -0.297 N 
ATOM      4  N   UNL     1      12.044   8.401   2.185  0.00  0.00    -0.301 N 
ATOM      7  C   UNL     1      10.798  10.013   4.717  0.00  0.00    +0.011 C 
ATOM      8  C   UNL     1      12.278   9.685   5.035  0.00  0.00    +0.004 C 
ATOM      9  C   UNL     1      12.421   8.334   5.764  0.00  0.00    +0.023 C 
ATOM     10  C   UNL     1       9.959   9.906   6.007  0.00  0.00    +0.112 C 
ATOM     11  C   UNL     1      10.163   9.156   3.606  0.00  0.00    +0.024 C 
ATOM     12  C   UNL     1      13.222   9.816   3.833  0.00  0.00    +0.100 C 
ATOM     13  C   UNL     1      11.528   8.284   7.002  0.00  0.00    +0.108 C 
ATOM     14  C   UNL     1      10.877   9.277   2.264  0.00  0.00    +0.108 C 
ATOM     15  C   UNL     1      13.221   8.630   2.887  0.00  0.00    +0.216 C 
ATOM     17  C   UNL     1       9.031   7.785   6.878  0.00  0.00    +0.247 C 
ENDROOT
BRANCH  17  19
ATOM     19  C   UNL     1       9.254   6.481   7.514  0.00  0.00    +0.037 A 
ATOM     21  C   UNL     1       9.060   6.331   8.887  0.00  0.00    +0.013 A 
ATOM     22  C   UNL     1       9.658   5.390   6.744  0.00  0.00    +0.013 A 
ATOM     24  C   UNL     1       9.270   5.091   9.490  0.00  0.00    +0.001 A 
ATOM     25  C   UNL     1       9.868   4.150   7.348  0.00  0.00    +0.001 A 
ATOM     26  C   UNL     1       9.674   4.001   8.721  0.00  0.00    +0.000 A 
ENDBRANCH  17  19
BRANCH   4  16
ATOM     16  C   UNL     1      11.924   7.230   1.325  0.00  0.00    +0.114 C 
BRANCH  16  18
ATOM     18  C   UNL     1      11.589   5.962   2.106  0.00  0.00    +0.073 C 
BRANCH  18  20
ATOM      5  N   UNL     1      13.954   5.080   2.057  0.00  0.00    -0.348 N 
ATOM      6  N   UNL     1      13.728   2.933   1.538  0.00  0.00    -0.244 NA
ATOM     20  C   UNL     1      12.611   4.868   1.918  0.00  0.00    +0.037 A 
ATOM     23  C   UNL     1      12.496   3.536   1.597  0.00  0.00    +0.133 A 
ATOM     27  C   UNL     1      14.584   3.890   1.820  0.00  0.00    +0.196 A 
ATOM     28  H   UNL     1      14.404   5.955   2.290  0.00  0.00    +0.166 HD
ENDBRANCH  18  20
ENDBRANCH  16  18
ENDBRANCH   4  16
TORSDOF 4
ENDMDL
MODEL 6
REMARK VINA RESULT:      -6.6     20.512     22.573
REMARK  Name = 26742649
REMARK  4 active torsions:
REMARK  status: ('A' for Active; 'I' for Inactive)
REMARK    1  A    between atoms: N_4  and  C_16
REMARK    2  A    between atoms: C_16  and  C_18
REMARK    3  A    between atoms: C_17  and  C_19
REMARK    4  A    between atoms: C_18  and  C_20
REMARK                            x       y       z     vdW  Elec       q    Type
REMARK                         _______ _______ _______ _____ _____    ______ ____
ROOT
ATOM      1  O   UNL     1     -14.496   9.481  21.626  0.00  0.00    -0.276 OA
ATOM      2  O   UNL     1     -10.369   7.828  15.698  0.00  0.00    -0.270 OA
ATOM      3  N   UNL     1     -11.153   9.563  17.055  0.00  0.00    -0.297 N 
ATOM      4  N   UNL     1     -12.994   7.771  21.175  0.00  0.00    -0.301 N 
ATOM      7  C   UNL     1     -10.624   9.169  19.444  0.00  0.00    +0.011 C 
ATOM      8  C   UNL     1     -11.661  10.259  19.811  0.00  0.00    +0.004 C 
ATOM      9  C   UNL     1     -12.749  10.402  18.729  0.00  0.00    +0.023 C 
ATOM     10  C   UNL     1     -10.069   9.440  18.031  0.00  0.00    +0.112 C 
ATOM     11  C   UNL     1     -11.139   7.720  19.536  0.00  0.00    +0.024 C 
ATOM     12  C   UNL     1     -12.240  10.124  21.225  0.00  0.00    +0.100 C 
ATOM     13  C   UNL     1     -12.126  10.621  17.352  0.00  0.00    +0.108 C 
ATOM     14  C   UNL     1     -11.621   7.334  20.930  0.00  0.00    +0.108 C 
ATOM     15  C   UNL     1     -13.352   9.100  21.365  0.00  0.00    +0.216 C 
ATOM     17  C   UNL     1     -11.185   8.714  15.947  0.00  0.00    +0.247 C 
ENDROOT
BRANCH  17  19
ATOM     19  C   UNL     1     -12.293   8.862  14.994  0.00  0.00    +0.037 A 
ATOM     21  C   UNL     1     -12.136   9.658  13.860  0.00  0.00    +0.013 A 
ATOM     22  C   UNL     1     -13.502   8.203  15.223  0.00  0.00    +0.013 A 
ATOM     24  C   UNL     1     -13.189   9.797  12.954  0.00  0.00    +0.001 A 
ATOM     25  C   UNL     1     -14.553   8.343  14.317  0.00  0.00    +0.001 A 
ATOM     26  C   UNL     1     -14.396   9.139  13.183  0.00  0.00    +0.000 A 
ENDBRANCH  17  19
BRANCH   4  16
ATOM     16  C   UNL     1     -14.015   6.731  21.198  0.00  0.00    +0.114 C 
BRANCH  16  18
ATOM     18  C   UNL     1     -13.546   5.466  21.914  0.00  0.00    +0.073 C 
BRANCH  18  20
ATOM      5  N   UNL     1     -14.318   4.302  24.017  0.00  0.00    -0.348 N 
ATOM      6  N   UNL     1     -16.517   4.119  23.766  0.00  0.00    -0.244 NA
ATOM     20  C   UNL     1     -14.606   4.869  22.807  0.00  0.00    +0.037 A 
ATOM     23  C   UNL     1     -15.969   4.745  22.675  0.00  0.00    +0.133 A 
ATOM     27  C   UNL     1     -15.497   3.866  24.556  0.00  0.00    +0.196 A 
ATOM     28  H   UNL     1     -13.403   4.215  24.438  0.00  0.00    +0.166 HD
ENDBRANCH  18  20
ENDBRANCH  16  18
ENDBRANCH   4  16
TORSDOF 4
ENDMDL
MODEL 7
REMARK VINA RESULT:      -6.4     27.427     29.302
REMARK  Name = 26742649
REMARK  4 active torsions:
REMARK  status: ('A' for Active; 'I' for Inactive)
REMARK    1  A    between atoms: N_4  and  C_16
REMARK    2  A    between atoms: C_16  and  C_18
REMARK    3  A    between atoms: C_17  and  C_19
REMARK    4  A    between atoms: C_18  and  C_20
REMARK                            x       y       z     vdW  Elec       q    Type
REMARK                         _______ _______ _______ _____ _____    ______ ____
ROOT
ATOM      1  O   UNL     1      14.507   7.986  18.214  0.00  0.00    -0.276 OA
ATOM      2  O   UNL     1      11.537  10.571  24.490  0.00  0.00    -0.270 OA
ATOM      3  N   UNL     1      11.569  10.789  22.163  0.00  0.00    -0.297 N 
ATOM      4  N   UNL     1      13.759   6.951  20.150  0.00  0.00    -0.301 N 
ATOM      7  C   UNL     1      11.119   8.628  21.034  0.00  0.00    +0.011 C 
ATOM      8  C   UNL     1      11.666   9.245  19.724  0.00  0.00    +0.004 C 
ATOM      9  C   UNL     1      12.672  10.380  20.001  0.00  0.00    +0.023 C 
ATOM     10  C   UNL     1      10.565   9.747  21.939  0.00  0.00    +0.112 C 
ATOM     11  C   UNL     1      12.126   7.768  21.822  0.00  0.00    +0.024 C 
ATOM     12  C   UNL     1      12.193   8.215  18.717  0.00  0.00    +0.100 C 
ATOM     13  C   UNL     1      12.071  11.425  20.939  0.00  0.00    +0.108 C 
ATOM     14  C   UNL     1      12.655   6.576  21.031  0.00  0.00    +0.108 C 
ATOM     15  C   UNL     1      13.595   7.707  18.996  0.00  0.00    +0.216 C 
ATOM     17  C   UNL     1      11.959  11.105  23.465  0.00  0.00    +0.247 C 
ENDROOT
BRANCH  17  19
ATOM     19  C   UNL     1      12.975  12.150  23.649  0.00  0.00    +0.037 A 
ATOM     21  C   UNL     1      12.587  13.478  23.818  0.00  0.00    +0.013 A 
ATOM     22  C   UNL     1      14.329  11.811  23.656  0.00  0.00    +0.013 A 
ATOM     24  C   UNL     1      13.553  14.470  23.994  0.00  0.00    +0.001 A 
ATOM     25  C   UNL     1      15.293  12.803  23.832  0.00  0.00    +0.001 A 
ATOM     26  C   UNL     1      14.905  14.132  24.001  0.00  0.00    +0.000 A 
ENDBRANCH  17  19
BRANCH   4  16
ATOM     16  C   UNL     1      15.089   6.502  20.545  0.00  0.00    +0.114 C 
BRANCH  16  18
ATOM     18  C   UNL     1      15.865   7.570  21.311  0.00  0.00    +0.073 C 
BRANCH  18  20
ATOM      5  N   UNL     1      18.219   8.023  22.103  0.00  0.00    -0.348 N 
ATOM      6  N   UNL     1      19.479   6.661  20.881  0.00  0.00    -0.244 NA
ATOM     20  C   UNL     1      17.357   7.345  21.288  0.00  0.00    +0.037 A 
ATOM     23  C   UNL     1      18.157   6.511  20.543  0.00  0.00    +0.133 A 
ATOM     27  C   UNL     1      19.482   7.578  21.823  0.00  0.00    +0.196 A 
ATOM     28  H   UNL     1      17.973   8.726  22.786  0.00  0.00    +0.166 HD
ENDBRANCH  18  20
ENDBRANCH  16  18
ENDBRANCH   4  16
TORSDOF 4
ENDMDL
MODEL 8
REMARK VINA RESULT:      -6.4     27.373     28.943
REMARK  Name = 26742649
REMARK  4 active torsions:
REMARK  status: ('A' for Active; 'I' for Inactive)
REMARK    1  A    between atoms: N_4  and  C_16
REMARK    2  A    between atoms: C_16  and  C_18
REMARK    3  A    between atoms: C_17  and  C_19
REMARK    4  A    between atoms: C_18  and  C_20
REMARK                            x       y       z     vdW  Elec       q    Type
REMARK                         _______ _______ _______ _____ _____    ______ ____
ROOT
ATOM      1  O   UNL     1      13.184  12.200  20.937  0.00  0.00    -0.276 OA
ATOM      2  O   UNL     1      16.264   5.828  18.741  0.00  0.00    -0.270 OA
ATOM      3  N   UNL     1      15.161   6.910  20.495  0.00  0.00    -0.297 N 
ATOM      4  N   UNL     1      13.163  11.047  18.923  0.00  0.00    -0.301 N 
ATOM      7  C   UNL     1      13.016   7.908  19.753  0.00  0.00    +0.011 C 
ATOM      8  C   UNL     1      13.006   8.751  21.052  0.00  0.00    +0.004 C 
ATOM      9  C   UNL     1      14.430   8.989  21.591  0.00  0.00    +0.023 C 
ATOM     10  C   UNL     1      13.821   6.613  19.986  0.00  0.00    +0.112 C 
ATOM     11  C   UNL     1      13.547   8.637  18.504  0.00  0.00    +0.024 C 
ATOM     12  C   UNL     1      12.182  10.041  20.956  0.00  0.00    +0.100 C 
ATOM     13  C   UNL     1      15.181   7.669  21.752  0.00  0.00    +0.108 C 
ATOM     14  C   UNL     1      12.746   9.884  18.144  0.00  0.00    +0.108 C 
ATOM     15  C   UNL     1      12.887  11.201  20.277  0.00  0.00    +0.216 C 
ATOM     17  C   UNL     1      16.282   6.464  19.793  0.00  0.00    +0.247 C 
ENDROOT
BRANCH  17  19
ATOM     19  C   UNL     1      17.609   6.789  20.332  0.00  0.00    +0.037 A 
ATOM     21  C   UNL     1      18.617   5.826  20.332  0.00  0.00    +0.013 A 
ATOM     22  C   UNL     1      17.861   8.064  20.842  0.00  0.00    +0.013 A 
ATOM     24  C   UNL     1      19.879   6.136  20.843  0.00  0.00    +0.001 A 
ATOM     25  C   UNL     1      19.122   8.373  21.352  0.00  0.00    +0.001 A 
ATOM     26  C   UNL     1      20.130   7.409  21.352  0.00  0.00    +0.000 A 
ENDBRANCH  17  19
BRANCH   4  16
ATOM     16  C   UNL     1      13.920  12.071  18.213  0.00  0.00    +0.114 C 
BRANCH  16  18
ATOM     18  C   UNL     1      15.216  11.531  17.614  0.00  0.00    +0.073 C 
BRANCH  18  20
ATOM      5  N   UNL     1      15.398  12.590  15.329  0.00  0.00    -0.348 N 
ATOM      6  N   UNL     1      15.060  10.909  13.918  0.00  0.00    -0.244 NA
ATOM     20  C   UNL     1      15.192  11.484  16.106  0.00  0.00    +0.037 A 
ATOM     23  C   UNL     1      14.986  10.459  15.213  0.00  0.00    +0.133 A 
ATOM     27  C   UNL     1      15.309  12.195  14.022  0.00  0.00    +0.196 A 
ATOM     28  H   UNL     1      15.579  13.529  15.656  0.00  0.00    +0.166 HD
ENDBRANCH  18  20
ENDBRANCH  16  18
ENDBRANCH   4  16
TORSDOF 4
ENDMDL
MODEL 9
REMARK VINA RESULT:      -6.4     27.798     29.382
REMARK  Name = 26742649
REMARK  4 active torsions:
REMARK  status: ('A' for Active; 'I' for Inactive)
REMARK    1  A    between atoms: N_4  and  C_16
REMARK    2  A    between atoms: C_16  and  C_18
REMARK    3  A    between atoms: C_17  and  C_19
REMARK    4  A    between atoms: C_18  and  C_20
REMARK                            x       y       z     vdW  Elec       q    Type
REMARK                         _______ _______ _______ _____ _____    ______ ____
ROOT
ATOM      1  O   UNL     1      16.231  13.765  18.695  0.00  0.00    -0.276 OA
ATOM      2  O   UNL     1      14.317   7.286  21.740  0.00  0.00    -0.270 OA
ATOM      3  N   UNL     1      15.752   9.124  21.908  0.00  0.00    -0.297 N 
ATOM      4  N   UNL     1      14.183  12.740  19.072  0.00  0.00    -0.301 N 
ATOM      7  C   UNL     1      14.499  11.264  21.950  0.00  0.00    +0.011 C 
ATOM      8  C   UNL     1      15.826  11.999  21.637  0.00  0.00    +0.004 C 
ATOM      9  C   UNL     1      16.820  11.092  20.886  0.00  0.00    +0.023 C 
ATOM     10  C   UNL     1      14.805   9.936  22.674  0.00  0.00    +0.112 C 
ATOM     11  C   UNL     1      13.595  11.000  20.731  0.00  0.00    +0.024 C 
ATOM     12  C   UNL     1      15.642  13.366  20.966  0.00  0.00    +0.100 C 
ATOM     13  C   UNL     1      17.037   9.779  21.637  0.00  0.00    +0.108 C 
ATOM     14  C   UNL     1      13.165  12.272  20.008  0.00  0.00    +0.108 C 
ATOM     15  C   UNL     1      15.384  13.315  19.471  0.00  0.00    +0.216 C 
ATOM     17  C   UNL     1      15.394   7.835  21.512  0.00  0.00    +0.247 C 
ENDROOT
BRANCH  17  19
ATOM     19  C   UNL     1      16.368   7.054  20.737  0.00  0.00    +0.037 A 
ATOM     21  C   UNL     1      17.627   6.782  21.271  0.00  0.00    +0.013 A 
ATOM     22  C   UNL     1      16.032   6.583  19.468  0.00  0.00    +0.013 A 
ATOM     24  C   UNL     1      18.551   6.039  20.536  0.00  0.00    +0.001 A 
ATOM     25  C   UNL     1      16.956   5.840  18.733  0.00  0.00    +0.001 A 
ATOM     26  C   UNL     1      18.215   5.568  19.267  0.00  0.00    +0.000 A 
ENDBRANCH  17  19
BRANCH   4  16
ATOM     16  C   UNL     1      13.895  12.565  17.654  0.00  0.00    +0.114 C 
BRANCH  16  18
ATOM     18  C   UNL     1      14.417  11.238  17.109  0.00  0.00    +0.073 C 
BRANCH  18  20
ATOM      5  N   UNL     1      12.670  10.280  15.559  0.00  0.00    -0.348 N 
ATOM      6  N   UNL     1      11.745   8.633  16.726  0.00  0.00    -0.244 NA
ATOM     20  C   UNL     1      13.313  10.268  16.765  0.00  0.00    +0.037 A 
ATOM     23  C   UNL     1      12.725   9.243  17.468  0.00  0.00    +0.133 A 
ATOM     27  C   UNL     1      11.737   9.280  15.583  0.00  0.00    +0.196 A 
ATOM     28  H   UNL     1      12.846  10.912  14.790  0.00  0.00    +0.166 HD
ENDBRANCH  18  20
ENDBRANCH  16  18
ENDBRANCH   4  16
TORSDOF 4
ENDMDL
MODEL 10
REMARK VINA RESULT:      -6.3      3.196      6.554
REMARK  Name = 26742649
REMARK  4 active torsions:
REMARK  status: ('A' for Active; 'I' for Inactive)
REMARK    1  A    between atoms: N_4  and  C_16
REMARK    2  A    between atoms: C_16  and  C_18
REMARK    3  A    between atoms: C_17  and  C_19
REMARK    4  A    between atoms: C_18  and  C_20
REMARK                            x       y       z     vdW  Elec       q    Type
REMARK                         _______ _______ _______ _____ _____    ______ ____
ROOT
ATOM      1  O   UNL     1      -6.732  -9.995  18.445  0.00  0.00    -0.276 OA
ATOM      2  O   UNL     1      -4.394 -13.051  12.113  0.00  0.00    -0.270 OA
ATOM      3  N   UNL     1      -3.730 -11.895  14.034  0.00  0.00    -0.297 N 
ATOM      4  N   UNL     1      -7.284 -11.960  17.342  0.00  0.00    -0.301 N 
ATOM      7  C   UNL     1      -4.482 -13.042  16.099  0.00  0.00    +0.011 C 
ATOM      8  C   UNL     1      -4.191 -11.737  16.880  0.00  0.00    +0.004 C 
ATOM      9  C   UNL     1      -4.293 -10.493  15.976  0.00  0.00    +0.023 C 
ATOM     10  C   UNL     1      -3.584 -13.104  14.847  0.00  0.00    +0.112 C 
ATOM     11  C   UNL     1      -5.955 -13.249  15.698  0.00  0.00    +0.024 C 
ATOM     12  C   UNL     1      -4.989 -11.594  18.182  0.00  0.00    +0.100 C 
ATOM     13  C   UNL     1      -3.415 -10.646  14.735  0.00  0.00    +0.108 C 
ATOM     14  C   UNL     1      -6.907 -13.297  16.888  0.00  0.00    +0.108 C 
ATOM     15  C   UNL     1      -6.415 -11.104  18.008  0.00  0.00    +0.216 C 
ATOM     17  C   UNL     1      -4.131 -12.003  12.701  0.00  0.00    +0.247 C 
ENDROOT
BRANCH  17  19
ATOM     19  C   UNL     1      -4.274 -10.767  11.919  0.00  0.00    +0.037 A 
ATOM     21  C   UNL     1      -5.437 -10.006  12.025  0.00  0.00    +0.013 A 
ATOM     22  C   UNL     1      -3.244 -10.355  11.073  0.00  0.00    +0.013 A 
ATOM     24  C   UNL     1      -5.572  -8.831  11.284  0.00  0.00    +0.001 A 
ATOM     25  C   UNL     1      -3.380  -9.180  10.333  0.00  0.00    +0.001 A 
ATOM     26  C   UNL     1      -4.544  -8.419  10.439  0.00  0.00    +0.000 A 
ENDBRANCH  17  19
BRANCH   4  16
ATOM     16  C   UNL     1      -8.646 -11.531  17.048  0.00  0.00    +0.114 C 
BRANCH  16  18
ATOM     18  C   UNL     1      -8.738 -10.711  15.764  0.00  0.00    +0.073 C 
BRANCH  18  20
ATOM      5  N   UNL     1     -10.122  -8.734  15.021  0.00  0.00    -0.348 N 
ATOM      6  N   UNL     1     -10.082  -7.354  16.760  0.00  0.00    -0.244 NA
ATOM     20  C   UNL     1      -9.366  -9.355  15.975  0.00  0.00    +0.037 A 
ATOM     23  C   UNL     1      -9.356  -8.484  17.039  0.00  0.00    +0.133 A 
ATOM     27  C   UNL     1     -10.530  -7.536  15.537  0.00  0.00    +0.196 A 
ATOM     28  H   UNL     1     -10.339  -9.091  14.100  0.00  0.00    +0.166 HD
ENDBRANCH  18  20
ENDBRANCH  16  18
ENDBRANCH   4  16
TORSDOF 4
ENDMDL
