MODEL 1
REMARK VINA RESULT:      -6.8      0.000      0.000
REMARK  Name = 75536780
REMARK  8 active torsions:
REMARK  status: ('A' for Active; 'I' for Inactive)
REMARK    1  A    between atoms: O_2  and  C_10
REMARK    2  A    between atoms: N_4  and  C_9
REMARK    3  A    between atoms: N_4  and  C_14
REMARK    4  A    between atoms: N_5  and  C_13
REMARK    5  A    between atoms: N_6  and  C_18
REMARK    6  A    between atoms: N_8  and  C_20
REMARK    7  A    between atoms: C_11  and  C_13
REMARK    8  A    between atoms: C_14  and  C_15
REMARK                            x       y       z     vdW  Elec       q    Type
REMARK                         _______ _______ _______ _____ _____    ______ ____
ROOT
ATOM      1  O   UNL     1     -16.939   1.728  24.590  0.00  0.00    -0.371 OA
ATOM      9  C   UNL     1     -16.566   3.058  26.522  0.00  0.00    +0.111 C 
ATOM     10  C   UNL     1     -16.165   3.850  25.292  0.00  0.00    +0.164 C 
ATOM     11  C   UNL     1     -16.935   3.113  24.205  0.00  0.00    +0.165 C 
ATOM     12  C   UNL     1     -16.572   1.638  25.978  0.00  0.00    +0.181 C 
ENDROOT
BRANCH  10   2
ATOM      2  O   UNL     1     -16.539   5.211  25.373  0.00  0.00    -0.388 OA
ATOM     27  H   UNL     1     -16.023   5.628  26.083  0.00  0.00    +0.210 HD
ENDBRANCH  10   2
BRANCH   9   4
ATOM      4  N   UNL     1     -15.660   3.229  27.647  0.00  0.00    -0.302 NA
ATOM     26  H   UNL     1     -15.540   4.225  27.832  0.00  0.00    +0.123 HD
BRANCH   4  14
ATOM     14  C   UNL     1     -16.185   2.585  28.846  0.00  0.00    +0.156 C 
BRANCH  14  15
ATOM      6  N   UNL     1     -14.207   1.782  30.179  0.00  0.00    -0.336 N 
ATOM      7  N   UNL     1     -15.345   0.226  29.076  0.00  0.00    -0.239 NA
ATOM     15  C   UNL     1     -15.262   1.509  29.352  0.00  0.00    +0.123 A 
ATOM     17  C   UNL     1     -13.580   0.598  30.448  0.00  0.00    +0.106 A 
ATOM     18  C   UNL     1     -13.815   3.076  30.685  0.00  0.00    +0.150 C 
ATOM     19  C   UNL     1     -14.300  -0.347  29.757  0.00  0.00    +0.130 A 
ENDBRANCH  14  15
ENDBRANCH   4  14
ENDBRANCH   9   4
BRANCH  11  13
ATOM     13  C   UNL     1     -16.318   3.261  22.825  0.00  0.00    +0.140 C 
BRANCH  13   5
ATOM      3  O   UNL     1     -15.621   5.331  20.972  0.00  0.00    -0.253 OA
ATOM      5  N   UNL     1     -15.145   4.086  22.863  0.00  0.00    -0.297 N 
ATOM      8  N   UNL     1     -13.663   5.722  22.206  0.00  0.00    -0.269 N 
ATOM     16  C   UNL     1     -14.872   5.084  21.915  0.00  0.00    +0.304 C 
ATOM     28  H   UNL     1     -14.473   3.930  23.607  0.00  0.00    +0.150 HD
ATOM     29  H   UNL     1     -13.161   5.396  23.028  0.00  0.00    +0.156 HD
BRANCH   8  20
ATOM     20  C   UNL     1     -13.042   6.775  21.493  0.00  0.00    +0.035 A 
ATOM     21  C   UNL     1     -11.905   6.523  20.726  0.00  0.00    +0.023 A 
ATOM     22  C   UNL     1     -13.567   8.066  21.559  0.00  0.00    +0.023 A 
ATOM     23  C   UNL     1     -11.293   7.561  20.023  0.00  0.00    +0.002 A 
ATOM     24  C   UNL     1     -12.956   9.104  20.857  0.00  0.00    +0.002 A 
ATOM     25  C   UNL     1     -11.819   8.852  20.090  0.00  0.00    +0.000 A 
ENDBRANCH   8  20
ENDBRANCH  13   5
ENDBRANCH  11  13
TORSDOF 7
ENDMDL
MODEL 2
REMARK VINA RESULT:      -6.4     15.073     17.794
REMARK  Name = 75536780
REMARK  8 active torsions:
REMARK  status: ('A' for Active; 'I' for Inactive)
REMARK    1  A    between atoms: O_2  and  C_10
REMARK    2  A    between atoms: N_4  and  C_9
REMARK    3  A    between atoms: N_4  and  C_14
REMARK    4  A    between atoms: N_5  and  C_13
REMARK    5  A    between atoms: N_6  and  C_18
REMARK    6  A    between atoms: N_8  and  C_20
REMARK    7  A    between atoms: C_11  and  C_13
REMARK    8  A    between atoms: C_14  and  C_15
REMARK                            x       y       z     vdW  Elec       q    Type
REMARK                         _______ _______ _______ _____ _____    ______ ____
ROOT
ATOM      1  O   UNL     1     -12.527  -8.120  15.185  0.00  0.00    -0.371 OA
ATOM      9  C   UNL     1     -11.875  -6.036  14.250  0.00  0.00    +0.111 C 
ATOM     10  C   UNL     1     -11.146  -6.239  15.565  0.00  0.00    +0.164 C 
ATOM     11  C   UNL     1     -11.250  -7.749  15.729  0.00  0.00    +0.165 C 
ATOM     12  C   UNL     1     -13.017  -7.031  14.383  0.00  0.00    +0.181 C 
ENDROOT
BRANCH  10   2
ATOM      2  O   UNL     1      -9.800  -5.805  15.516  0.00  0.00    -0.388 OA
ATOM     27  H   UNL     1      -9.793  -4.854  15.312  0.00  0.00    +0.210 HD
ENDBRANCH  10   2
BRANCH   9   4
ATOM      4  N   UNL     1     -12.334  -4.672  14.041  0.00  0.00    -0.302 NA
ATOM     26  H   UNL     1     -11.834  -4.050  14.676  0.00  0.00    +0.123 HD
BRANCH   4  14
ATOM     14  C   UNL     1     -12.090  -4.242  12.669  0.00  0.00    +0.156 C 
BRANCH  14  15
ATOM      6  N   UNL     1     -13.466  -3.500  10.697  0.00  0.00    -0.336 N 
ATOM      7  N   UNL     1     -14.355  -3.150  12.701  0.00  0.00    -0.239 NA
ATOM     15  C   UNL     1     -13.317  -3.626  12.050  0.00  0.00    +0.123 A 
ATOM     17  C   UNL     1     -14.677  -2.908  10.471  0.00  0.00    +0.106 A 
ATOM     18  C   UNL     1     -12.528  -3.912   9.679  0.00  0.00    +0.150 C 
ATOM     19  C   UNL     1     -15.207  -2.701  11.722  0.00  0.00    +0.130 A 
ENDBRANCH  14  15
ENDBRANCH   4  14
ENDBRANCH   9   4
BRANCH  11  13
ATOM     13  C   UNL     1     -11.155  -8.204  17.175  0.00  0.00    +0.140 C 
BRANCH  13   5
ATOM      3  O   UNL     1      -9.386 -10.454  17.059  0.00  0.00    -0.253 OA
ATOM      5  N   UNL     1      -9.793  -8.247  17.621  0.00  0.00    -0.297 N 
ATOM      8  N   UNL     1      -7.710  -9.137  18.042  0.00  0.00    -0.269 N 
ATOM     16  C   UNL     1      -8.986  -9.392  17.531  0.00  0.00    +0.304 C 
ATOM     28  H   UNL     1      -9.398  -7.409  18.036  0.00  0.00    +0.150 HD
ATOM     29  H   UNL     1      -7.540  -8.199  18.397  0.00  0.00    +0.156 HD
BRANCH   8  20
ATOM     20  C   UNL     1      -6.615 -10.029  18.130  0.00  0.00    +0.035 A 
ATOM     21  C   UNL     1      -5.804 -10.249  17.017  0.00  0.00    +0.023 A 
ATOM     22  C   UNL     1      -6.348 -10.689  19.329  0.00  0.00    +0.023 A 
ATOM     23  C   UNL     1      -4.724 -11.128  17.103  0.00  0.00    +0.002 A 
ATOM     24  C   UNL     1      -5.269 -11.568  19.416  0.00  0.00    +0.002 A 
ATOM     25  C   UNL     1      -4.458 -11.788  18.303  0.00  0.00    +0.000 A 
ENDBRANCH   8  20
ENDBRANCH  13   5
ENDBRANCH  11  13
TORSDOF 7
ENDMDL
MODEL 3
REMARK VINA RESULT:      -6.3      1.474      2.086
REMARK  Name = 75536780
REMARK  8 active torsions:
REMARK  status: ('A' for Active; 'I' for Inactive)
REMARK    1  A    between atoms: O_2  and  C_10
REMARK    2  A    between atoms: N_4  and  C_9
REMARK    3  A    between atoms: N_4  and  C_14
REMARK    4  A    between atoms: N_5  and  C_13
REMARK    5  A    between atoms: N_6  and  C_18
REMARK    6  A    between atoms: N_8  and  C_20
REMARK    7  A    between atoms: C_11  and  C_13
REMARK    8  A    between atoms: C_14  and  C_15
REMARK                            x       y       z     vdW  Elec       q    Type
REMARK                         _______ _______ _______ _____ _____    ______ ____
ROOT
ATOM      1  O   UNL     1     -17.203   1.398  25.922  0.00  0.00    -0.371 OA
ATOM      9  C   UNL     1     -16.280   2.997  27.416  0.00  0.00    +0.111 C 
ATOM     10  C   UNL     1     -16.145   3.512  25.996  0.00  0.00    +0.164 C 
ATOM     11  C   UNL     1     -17.205   2.685  25.281  0.00  0.00    +0.165 C 
ATOM     12  C   UNL     1     -16.512   1.513  27.178  0.00  0.00    +0.181 C 
ENDROOT
BRANCH  10   2
ATOM      2  O   UNL     1     -16.400   4.899  25.891  0.00  0.00    -0.388 OA
ATOM     27  H   UNL     1     -17.362   5.036  25.909  0.00  0.00    +0.210 HD
ENDBRANCH  10   2
BRANCH   9   4
ATOM      4  N   UNL     1     -15.116   3.262  28.246  0.00  0.00    -0.302 NA
ATOM     26  H   UNL     1     -15.160   4.222  28.587  0.00  0.00    +0.123 HD
BRANCH   4  14
ATOM     14  C   UNL     1     -15.069   2.356  29.389  0.00  0.00    +0.156 C 
BRANCH  14  15
ATOM      6  N   UNL     1     -15.204   3.673  31.529  0.00  0.00    -0.336 N 
ATOM      7  N   UNL     1     -13.174   3.032  30.896  0.00  0.00    -0.239 NA
ATOM     15  C   UNL     1     -14.453   3.011  30.596  0.00  0.00    +0.123 A 
ATOM     17  C   UNL     1     -14.347   4.144  32.484  0.00  0.00    +0.106 A 
ATOM     18  C   UNL     1     -16.637   3.850  31.522  0.00  0.00    +0.150 C 
ATOM     19  C   UNL     1     -13.101   3.737  32.072  0.00  0.00    +0.130 A 
ENDBRANCH  14  15
ENDBRANCH   4  14
ENDBRANCH   9   4
BRANCH  11  13
ATOM     13  C   UNL     1     -16.939   2.520  23.795  0.00  0.00    +0.140 C 
BRANCH  13   5
ATOM      3  O   UNL     1     -16.572   4.836  22.150  0.00  0.00    -0.253 OA
ATOM      5  N   UNL     1     -15.690   3.114  23.420  0.00  0.00    -0.297 N 
ATOM      8  N   UNL     1     -14.251   4.603  22.409  0.00  0.00    -0.269 N 
ATOM     16  C   UNL     1     -15.589   4.254  22.606  0.00  0.00    +0.304 C 
ATOM     28  H   UNL     1     -14.833   2.679  23.748  0.00  0.00    +0.150 HD
ATOM     29  H   UNL     1     -13.554   4.014  22.859  0.00  0.00    +0.156 HD
BRANCH   8  20
ATOM     20  C   UNL     1     -13.736   5.684  21.655  0.00  0.00    +0.035 A 
ATOM     21  C   UNL     1     -12.358   5.877  21.562  0.00  0.00    +0.023 A 
ATOM     22  C   UNL     1     -14.607   6.558  21.005  0.00  0.00    +0.023 A 
ATOM     23  C   UNL     1     -11.850   6.942  20.818  0.00  0.00    +0.002 A 
ATOM     24  C   UNL     1     -14.101   7.623  20.261  0.00  0.00    +0.002 A 
ATOM     25  C   UNL     1     -12.723   7.815  20.168  0.00  0.00    +0.000 A 
ENDBRANCH   8  20
ENDBRANCH  13   5
ENDBRANCH  11  13
TORSDOF 7
ENDMDL
MODEL 4
REMARK VINA RESULT:      -6.1      1.796      9.215
REMARK  Name = 75536780
REMARK  8 active torsions:
REMARK  status: ('A' for Active; 'I' for Inactive)
REMARK    1  A    between atoms: O_2  and  C_10
REMARK    2  A    between atoms: N_4  and  C_9
REMARK    3  A    between atoms: N_4  and  C_14
REMARK    4  A    between atoms: N_5  and  C_13
REMARK    5  A    between atoms: N_6  and  C_18
REMARK    6  A    between atoms: N_8  and  C_20
REMARK    7  A    between atoms: C_11  and  C_13
REMARK    8  A    between atoms: C_14  and  C_15
REMARK                            x       y       z     vdW  Elec       q    Type
REMARK                         _______ _______ _______ _____ _____    ______ ____
ROOT
ATOM      1  O   UNL     1     -17.512   5.674  23.587  0.00  0.00    -0.371 OA
ATOM      9  C   UNL     1     -15.591   4.774  22.520  0.00  0.00    +0.111 C 
ATOM     10  C   UNL     1     -15.552   4.415  23.994  0.00  0.00    +0.164 C 
ATOM     11  C   UNL     1     -17.017   4.578  24.374  0.00  0.00    +0.165 C 
ATOM     12  C   UNL     1     -16.585   5.925  22.517  0.00  0.00    +0.181 C 
ENDROOT
BRANCH  10   2
ATOM      2  O   UNL     1     -15.091   3.097  24.222  0.00  0.00    -0.388 OA
ATOM     27  H   UNL     1     -14.180   3.031  23.891  0.00  0.00    +0.210 HD
ENDBRANCH  10   2
BRANCH   9   4
ATOM      4  N   UNL     1     -14.294   5.145  21.976  0.00  0.00    -0.302 NA
ATOM     26  H   UNL     1     -14.192   4.737  21.047  0.00  0.00    +0.123 HD
BRANCH   4  14
ATOM     14  C   UNL     1     -14.163   6.594  21.873  0.00  0.00    +0.156 C 
BRANCH  14  15
ATOM      6  N   UNL     1     -13.555   7.571  19.635  0.00  0.00    -0.336 N 
ATOM      7  N   UNL     1     -11.867   6.841  20.879  0.00  0.00    -0.239 NA
ATOM     15  C   UNL     1     -13.171   6.992  20.813  0.00  0.00    +0.123 A 
ATOM     17  C   UNL     1     -12.424   7.803  18.905  0.00  0.00    +0.106 A 
ATOM     18  C   UNL     1     -14.903   7.885  19.223  0.00  0.00    +0.150 C 
ATOM     19  C   UNL     1     -11.395   7.345  19.693  0.00  0.00    +0.130 A 
ENDBRANCH  14  15
ENDBRANCH   4  14
ENDBRANCH   9   4
BRANCH  11  13
ATOM     13  C   UNL     1     -17.227   4.868  25.850  0.00  0.00    +0.140 C 
BRANCH  13   5
ATOM      3  O   UNL     1     -17.475   3.701  28.454  0.00  0.00    -0.253 OA
ATOM      5  N   UNL     1     -16.169   4.317  26.646  0.00  0.00    -0.297 N 
ATOM      8  N   UNL     1     -15.161   3.306  28.453  0.00  0.00    -0.269 N 
ATOM     16  C   UNL     1     -16.369   3.760  27.919  0.00  0.00    +0.304 C 
ATOM     28  H   UNL     1     -15.225   4.344  26.274  0.00  0.00    +0.150 HD
ATOM     29  H   UNL     1     -14.331   3.431  27.878  0.00  0.00    +0.156 HD
BRANCH   8  20
ATOM     20  C   UNL     1     -14.944   2.687  29.707  0.00  0.00    +0.035 A 
ATOM     21  C   UNL     1     -15.139   1.313  29.851  0.00  0.00    +0.023 A 
ATOM     22  C   UNL     1     -14.536   3.450  30.800  0.00  0.00    +0.023 A 
ATOM     23  C   UNL     1     -14.925   0.703  31.086  0.00  0.00    +0.002 A 
ATOM     24  C   UNL     1     -14.322   2.841  32.036  0.00  0.00    +0.002 A 
ATOM     25  C   UNL     1     -14.517   1.468  32.179  0.00  0.00    +0.000 A 
ENDBRANCH   8  20
ENDBRANCH  13   5
ENDBRANCH  11  13
TORSDOF 7
ENDMDL
MODEL 5
REMARK VINA RESULT:      -6.1     15.391     16.514
REMARK  Name = 75536780
REMARK  8 active torsions:
REMARK  status: ('A' for Active; 'I' for Inactive)
REMARK    1  A    between atoms: O_2  and  C_10
REMARK    2  A    between atoms: N_4  and  C_9
REMARK    3  A    between atoms: N_4  and  C_14
REMARK    4  A    between atoms: N_5  and  C_13
REMARK    5  A    between atoms: N_6  and  C_18
REMARK    6  A    between atoms: N_8  and  C_20
REMARK    7  A    between atoms: C_11  and  C_13
REMARK    8  A    between atoms: C_14  and  C_15
REMARK                            x       y       z     vdW  Elec       q    Type
REMARK                         _______ _______ _______ _____ _____    ______ ____
ROOT
ATOM      1  O   UNL     1     -10.707  -8.233  14.803  0.00  0.00    -0.371 OA
ATOM      9  C   UNL     1      -8.835  -9.381  15.708  0.00  0.00    +0.111 C 
ATOM     10  C   UNL     1      -9.234  -8.263  16.653  0.00  0.00    +0.164 C 
ATOM     11  C   UNL     1     -10.673  -8.015  16.224  0.00  0.00    +0.165 C 
ATOM     12  C   UNL     1      -9.516  -8.945  14.421  0.00  0.00    +0.181 C 
ENDROOT
BRANCH  10   2
ATOM      2  O   UNL     1      -9.148  -8.641  18.014  0.00  0.00    -0.388 OA
ATOM     27  H   UNL     1      -8.316  -8.292  18.375  0.00  0.00    +0.210 HD
ENDBRANCH  10   2
BRANCH   9   4
ATOM      4  N   UNL     1      -7.396  -9.536  15.563  0.00  0.00    -0.302 NA
ATOM     26  H   UNL     1      -6.924  -8.873  16.177  0.00  0.00    +0.123 HD
BRANCH   4  14
ATOM     14  C   UNL     1      -6.976 -10.888  15.913  0.00  0.00    +0.156 C 
BRANCH  14  15
ATOM      6  N   UNL     1      -5.206 -10.927  17.702  0.00  0.00    -0.336 N 
ATOM      7  N   UNL     1      -7.307 -11.116  18.395  0.00  0.00    -0.239 NA
ATOM     15  C   UNL     1      -6.526 -10.979  17.347  0.00  0.00    +0.123 A 
ATOM     17  C   UNL     1      -5.143 -11.037  19.063  0.00  0.00    +0.106 A 
ATOM     18  C   UNL     1      -4.075 -10.783  16.816  0.00  0.00    +0.150 C 
ATOM     19  C   UNL     1      -6.451 -11.152  19.468  0.00  0.00    +0.130 A 
ENDBRANCH  14  15
ENDBRANCH   4  14
ENDBRANCH   9   4
BRANCH  11  13
ATOM     13  C   UNL     1     -11.162  -6.613  16.540  0.00  0.00    +0.140 C 
BRANCH  13   5
ATOM      3  O   UNL     1     -13.373  -5.906  14.861  0.00  0.00    -0.253 OA
ATOM      5  N   UNL     1     -11.122  -5.771  15.380  0.00  0.00    -0.297 N 
ATOM      8  N   UNL     1     -11.911  -4.629  13.541  0.00  0.00    -0.269 N 
ATOM     16  C   UNL     1     -12.252  -5.469  14.604  0.00  0.00    +0.304 C 
ATOM     28  H   UNL     1     -10.226  -5.385  15.099  0.00  0.00    +0.150 HD
ATOM     29  H   UNL     1     -10.933  -4.358  13.470  0.00  0.00    +0.156 HD
BRANCH   8  20
ATOM     20  C   UNL     1     -12.762  -4.104  12.540  0.00  0.00    +0.035 A 
ATOM     21  C   UNL     1     -12.336  -4.063  11.213  0.00  0.00    +0.023 A 
ATOM     22  C   UNL     1     -14.026  -3.625  12.882  0.00  0.00    +0.023 A 
ATOM     23  C   UNL     1     -13.174  -3.545  10.226  0.00  0.00    +0.002 A 
ATOM     24  C   UNL     1     -14.865  -3.107  11.896  0.00  0.00    +0.002 A 
ATOM     25  C   UNL     1     -14.439  -3.066  10.569  0.00  0.00    +0.000 A 
ENDBRANCH   8  20
ENDBRANCH  13   5
ENDBRANCH  11  13
TORSDOF 7
ENDMDL
MODEL 6
REMARK VINA RESULT:      -6.1     18.224     19.917
REMARK  Name = 75536780
REMARK  8 active torsions:
REMARK  status: ('A' for Active; 'I' for Inactive)
REMARK    1  A    between atoms: O_2  and  C_10
REMARK    2  A    between atoms: N_4  and  C_9
REMARK    3  A    between atoms: N_4  and  C_14
REMARK    4  A    between atoms: N_5  and  C_13
REMARK    5  A    between atoms: N_6  and  C_18
REMARK    6  A    between atoms: N_8  and  C_20
REMARK    7  A    between atoms: C_11  and  C_13
REMARK    8  A    between atoms: C_14  and  C_15
REMARK                            x       y       z     vdW  Elec       q    Type
REMARK                         _______ _______ _______ _____ _____    ______ ____
ROOT
ATOM      1  O   UNL     1      -6.903 -12.694  18.457  0.00  0.00    -0.371 OA
ATOM      9  C   UNL     1      -4.841 -13.239  17.412  0.00  0.00    +0.111 C 
ATOM     10  C   UNL     1      -4.650 -12.001  18.267  0.00  0.00    +0.164 C 
ATOM     11  C   UNL     1      -5.830 -12.117  19.221  0.00  0.00    +0.165 C 
ATOM     12  C   UNL     1      -6.353 -13.269  17.259  0.00  0.00    +0.181 C 
ENDROOT
BRANCH  10   2
ATOM      2  O   UNL     1      -3.414 -11.998  18.955  0.00  0.00    -0.388 OA
ATOM     27  H   UNL     1      -3.538 -11.538  19.803  0.00  0.00    +0.210 HD
ENDBRANCH  10   2
BRANCH   9   4
ATOM      4  N   UNL     1      -4.143 -13.182  16.138  0.00  0.00    -0.302 NA
ATOM     26  H   UNL     1      -4.496 -13.921  15.529  0.00  0.00    +0.123 HD
BRANCH   4  14
ATOM     14  C   UNL     1      -4.349 -11.894  15.484  0.00  0.00    +0.156 C 
BRANCH  14  15
ATOM      6  N   UNL     1      -2.706 -10.593  14.092  0.00  0.00    -0.336 N 
ATOM      7  N   UNL     1      -2.130 -10.957  16.206  0.00  0.00    -0.239 NA
ATOM     15  C   UNL     1      -3.053 -11.153  15.290  0.00  0.00    +0.123 A 
ATOM     17  C   UNL     1      -1.483 -10.003  14.254  0.00  0.00    +0.106 A 
ATOM     18  C   UNL     1      -3.475 -10.613  12.870  0.00  0.00    +0.150 C 
ATOM     19  C   UNL     1      -1.149 -10.241  15.566  0.00  0.00    +0.130 A 
ENDBRANCH  14  15
ENDBRANCH   4  14
ENDBRANCH   9   4
BRANCH  11  13
ATOM     13  C   UNL     1      -6.270 -10.784  19.799  0.00  0.00    +0.140 C 
BRANCH  13   5
ATOM      3  O   UNL     1      -6.973  -9.348  17.422  0.00  0.00    -0.253 OA
ATOM      5  N   UNL     1      -7.593 -10.438  19.367  0.00  0.00    -0.297 N 
ATOM      8  N   UNL     1      -9.234  -9.538  18.023  0.00  0.00    -0.269 N 
ATOM     16  C   UNL     1      -7.859  -9.730  18.184  0.00  0.00    +0.304 C 
ATOM     28  H   UNL     1      -8.376 -10.708  19.954  0.00  0.00    +0.150 HD
ATOM     29  H   UNL     1      -9.836  -9.919  18.749  0.00  0.00    +0.156 HD
BRANCH   8  20
ATOM     20  C   UNL     1      -9.901  -8.874  16.966  0.00  0.00    +0.035 A 
ATOM     21  C   UNL     1     -10.285  -7.542  17.111  0.00  0.00    +0.023 A 
ATOM     22  C   UNL     1     -10.177  -9.554  15.780  0.00  0.00    +0.023 A 
ATOM     23  C   UNL     1     -10.944  -6.887  16.070  0.00  0.00    +0.002 A 
ATOM     24  C   UNL     1     -10.834  -8.900  14.738  0.00  0.00    +0.002 A 
ATOM     25  C   UNL     1     -11.218  -7.568  14.884  0.00  0.00    +0.000 A 
ENDBRANCH   8  20
ENDBRANCH  13   5
ENDBRANCH  11  13
TORSDOF 7
ENDMDL
MODEL 7
REMARK VINA RESULT:      -6.1     19.884     22.083
REMARK  Name = 75536780
REMARK  8 active torsions:
REMARK  status: ('A' for Active; 'I' for Inactive)
REMARK    1  A    between atoms: O_2  and  C_10
REMARK    2  A    between atoms: N_4  and  C_9
REMARK    3  A    between atoms: N_4  and  C_14
REMARK    4  A    between atoms: N_5  and  C_13
REMARK    5  A    between atoms: N_6  and  C_18
REMARK    6  A    between atoms: N_8  and  C_20
REMARK    7  A    between atoms: C_11  and  C_13
REMARK    8  A    between atoms: C_14  and  C_15
REMARK                            x       y       z     vdW  Elec       q    Type
REMARK                         _______ _______ _______ _____ _____    ______ ____
ROOT
ATOM      1  O   UNL     1      -2.026 -12.515  14.599  0.00  0.00    -0.371 OA
ATOM      9  C   UNL     1      -1.646 -11.069  12.754  0.00  0.00    +0.111 C 
ATOM     10  C   UNL     1      -1.821 -10.234  14.009  0.00  0.00    +0.164 C 
ATOM     11  C   UNL     1      -1.519 -11.263  15.090  0.00  0.00    +0.165 C 
ATOM     12  C   UNL     1      -2.257 -12.392  13.185  0.00  0.00    +0.181 C 
ENDROOT
BRANCH  10   2
ATOM      2  O   UNL     1      -0.932  -9.136  14.063  0.00  0.00    -0.388 OA
ATOM     27  H   UNL     1      -0.746  -8.849  13.153  0.00  0.00    +0.210 HD
ENDBRANCH  10   2
BRANCH   9   4
ATOM      4  N   UNL     1      -2.292 -10.502  11.581  0.00  0.00    -0.302 NA
ATOM     26  H   UNL     1      -2.078 -11.080  10.769  0.00  0.00    +0.123 HD
BRANCH   4  14
ATOM     14  C   UNL     1      -3.739 -10.447  11.754  0.00  0.00    +0.156 C 
BRANCH  14  15
ATOM      6  N   UNL     1      -5.582  -9.152  10.632  0.00  0.00    -0.336 N 
ATOM      7  N   UNL     1      -4.024 -10.001   9.296  0.00  0.00    -0.239 NA
ATOM     15  C   UNL     1      -4.426  -9.878  10.541  0.00  0.00    +0.123 A 
ATOM     17  C   UNL     1      -5.937  -8.789   9.363  0.00  0.00    +0.106 A 
ATOM     18  C   UNL     1      -6.306  -8.820  11.836  0.00  0.00    +0.150 C 
ATOM     19  C   UNL     1      -4.961  -9.324   8.556  0.00  0.00    +0.130 A 
ENDBRANCH  14  15
ENDBRANCH   4  14
ENDBRANCH   9   4
BRANCH  11  13
ATOM     13  C   UNL     1      -2.163 -10.937  16.426  0.00  0.00    +0.140 C 
BRANCH  13   5
ATOM      3  O   UNL     1      -4.901 -11.742  16.666  0.00  0.00    -0.253 OA
ATOM      5  N   UNL     1      -3.318 -10.104  16.261  0.00  0.00    -0.297 N 
ATOM      8  N   UNL     1      -5.550  -9.539  16.178  0.00  0.00    -0.269 N 
ATOM     16  C   UNL     1      -4.634 -10.572  16.395  0.00  0.00    +0.304 C 
ATOM     28  H   UNL     1      -3.175  -9.128  16.021  0.00  0.00    +0.150 HD
ATOM     29  H   UNL     1      -5.163  -8.624  15.962  0.00  0.00    +0.156 HD
BRANCH   8  20
ATOM     20  C   UNL     1      -6.963  -9.606  16.222  0.00  0.00    +0.035 A 
ATOM     21  C   UNL     1      -7.678 -10.000  15.092  0.00  0.00    +0.023 A 
ATOM     22  C   UNL     1      -7.640  -9.277  17.396  0.00  0.00    +0.023 A 
ATOM     23  C   UNL     1      -9.071 -10.066  15.135  0.00  0.00    +0.002 A 
ATOM     24  C   UNL     1      -9.032  -9.342  17.440  0.00  0.00    +0.002 A 
ATOM     25  C   UNL     1      -9.747  -9.736  16.309  0.00  0.00    +0.000 A 
ENDBRANCH   8  20
ENDBRANCH  13   5
ENDBRANCH  11  13
TORSDOF 7
ENDMDL
MODEL 8
REMARK VINA RESULT:      -6.0     17.252     18.974
REMARK  Name = 75536780
REMARK  8 active torsions:
REMARK  status: ('A' for Active; 'I' for Inactive)
REMARK    1  A    between atoms: O_2  and  C_10
REMARK    2  A    between atoms: N_4  and  C_9
REMARK    3  A    between atoms: N_4  and  C_14
REMARK    4  A    between atoms: N_5  and  C_13
REMARK    5  A    between atoms: N_6  and  C_18
REMARK    6  A    between atoms: N_8  and  C_20
REMARK    7  A    between atoms: C_11  and  C_13
REMARK    8  A    between atoms: C_14  and  C_15
REMARK                            x       y       z     vdW  Elec       q    Type
REMARK                         _______ _______ _______ _____ _____    ______ ____
ROOT
ATOM      1  O   UNL     1      -7.322 -12.997  18.290  0.00  0.00    -0.371 OA
ATOM      9  C   UNL     1      -5.536 -11.440  18.448  0.00  0.00    +0.111 C 
ATOM     10  C   UNL     1      -6.717 -10.920  19.244  0.00  0.00    +0.164 C 
ATOM     11  C   UNL     1      -7.505 -12.202  19.473  0.00  0.00    +0.165 C 
ATOM     12  C   UNL     1      -6.207 -12.469  17.552  0.00  0.00    +0.181 C 
ENDROOT
BRANCH  10   2
ATOM      2  O   UNL     1      -6.330 -10.314  20.462  0.00  0.00    -0.388 OA
ATOM     27  H   UNL     1      -5.436  -9.950  20.351  0.00  0.00    +0.210 HD
ENDBRANCH  10   2
BRANCH   9   4
ATOM      4  N   UNL     1      -4.836 -10.408  17.699  0.00  0.00    -0.302 NA
ATOM     26  H   UNL     1      -3.874 -10.348  18.032  0.00  0.00    +0.123 HD
BRANCH   4  14
ATOM     14  C   UNL     1      -4.825 -10.711  16.272  0.00  0.00    +0.156 C 
BRANCH  14  15
ATOM      6  N   UNL     1      -3.190 -10.673  14.360  0.00  0.00    -0.336 N 
ATOM      7  N   UNL     1      -2.314 -10.671  16.401  0.00  0.00    -0.239 NA
ATOM     15  C   UNL     1      -3.430 -10.684  15.706  0.00  0.00    +0.123 A 
ATOM     17  C   UNL     1      -1.834 -10.650  14.186  0.00  0.00    +0.106 A 
ATOM     18  C   UNL     1      -4.174 -10.683  13.303  0.00  0.00    +0.150 C 
ATOM     19  C   UNL     1      -1.316 -10.649  15.458  0.00  0.00    +0.130 A 
ENDBRANCH  14  15
ENDBRANCH   4  14
ENDBRANCH   9   4
BRANCH  11  13
ATOM     13  C   UNL     1      -8.986 -11.964  19.709  0.00  0.00    +0.140 C 
BRANCH  13   5
ATOM      3  O   UNL     1     -10.380 -11.050  17.380  0.00  0.00    -0.253 OA
ATOM      5  N   UNL     1      -9.352 -10.611  19.406  0.00  0.00    -0.297 N 
ATOM      8  N   UNL     1     -10.258  -8.860  18.215  0.00  0.00    -0.269 N 
ATOM     16  C   UNL     1     -10.038 -10.240  18.239  0.00  0.00    +0.304 C 
ATOM     28  H   UNL     1      -9.090  -9.884  20.064  0.00  0.00    +0.150 HD
ATOM     29  H   UNL     1      -9.909  -8.328  19.009  0.00  0.00    +0.156 HD
BRANCH   8  20
ATOM     20  C   UNL     1     -10.911  -8.101  17.214  0.00  0.00    +0.035 A 
ATOM     21  C   UNL     1     -12.265  -8.308  16.954  0.00  0.00    +0.023 A 
ATOM     22  C   UNL     1     -10.200  -7.147  16.488  0.00  0.00    +0.023 A 
ATOM     23  C   UNL     1     -12.909  -7.561  15.968  0.00  0.00    +0.002 A 
ATOM     24  C   UNL     1     -10.842  -6.399  15.502  0.00  0.00    +0.002 A 
ATOM     25  C   UNL     1     -12.196  -6.607  15.242  0.00  0.00    +0.000 A 
ENDBRANCH   8  20
ENDBRANCH  13   5
ENDBRANCH  11  13
TORSDOF 7
ENDMDL
MODEL 9
REMARK VINA RESULT:      -6.0     18.376     20.517
REMARK  Name = 75536780
REMARK  8 active torsions:
REMARK  status: ('A' for Active; 'I' for Inactive)
REMARK    1  A    between atoms: O_2  and  C_10
REMARK    2  A    between atoms: N_4  and  C_9
REMARK    3  A    between atoms: N_4  and  C_14
REMARK    4  A    between atoms: N_5  and  C_13
REMARK    5  A    between atoms: N_6  and  C_18
REMARK    6  A    between atoms: N_8  and  C_20
REMARK    7  A    between atoms: C_11  and  C_13
REMARK    8  A    between atoms: C_14  and  C_15
REMARK                            x       y       z     vdW  Elec       q    Type
REMARK                         _______ _______ _______ _____ _____    ______ ____
ROOT
ATOM      1  O   UNL     1      -6.378 -11.362  17.109  0.00  0.00    -0.371 OA
ATOM      9  C   UNL     1      -4.041 -11.213  16.714  0.00  0.00    +0.111 C 
ATOM     10  C   UNL     1      -4.287 -11.265  18.210  0.00  0.00    +0.164 C 
ATOM     11  C   UNL     1      -5.681 -11.875  18.257  0.00  0.00    +0.165 C 
ATOM     12  C   UNL     1      -5.412 -10.810  16.197  0.00  0.00    +0.181 C 
ENDROOT
BRANCH  10   2
ATOM      2  O   UNL     1      -3.339 -12.063  18.892  0.00  0.00    -0.388 OA
ATOM     27  H   UNL     1      -3.759 -12.419  19.693  0.00  0.00    +0.210 HD
ENDBRANCH  10   2
BRANCH   9   4
ATOM      4  N   UNL     1      -2.994 -10.281  16.327  0.00  0.00    -0.302 NA
ATOM     26  H   UNL     1      -2.674  -9.775  17.153  0.00  0.00    +0.123 HD
BRANCH   4  14
ATOM     14  C   UNL     1      -1.861 -10.981  15.733  0.00  0.00    +0.156 C 
BRANCH  14  15
ATOM      6  N   UNL     1      -2.250 -12.242  13.590  0.00  0.00    -0.336 N 
ATOM      7  N   UNL     1      -1.841 -10.068  13.390  0.00  0.00    -0.239 NA
ATOM     15  C   UNL     1      -1.979 -11.066  14.235  0.00  0.00    +0.123 A 
ATOM     17  C   UNL     1      -2.288 -11.975  12.250  0.00  0.00    +0.106 A 
ATOM     18  C   UNL     1      -2.460 -13.535  14.197  0.00  0.00    +0.150 C 
ATOM     19  C   UNL     1      -2.034 -10.628  12.152  0.00  0.00    +0.130 A 
ENDBRANCH  14  15
ENDBRANCH   4  14
ENDBRANCH   9   4
BRANCH  11  13
ATOM     13  C   UNL     1      -6.447 -11.527  19.521  0.00  0.00    +0.140 C 
BRANCH  13   5
ATOM      3  O   UNL     1      -9.235 -12.057  19.911  0.00  0.00    -0.253 OA
ATOM      5  N   UNL     1      -7.535 -10.636  19.244  0.00  0.00    -0.297 N 
ATOM      8  N   UNL     1      -9.716  -9.906  19.102  0.00  0.00    -0.269 N 
ATOM     16  C   UNL     1      -8.882 -10.968  19.462  0.00  0.00    +0.304 C 
ATOM     28  H   UNL     1      -7.320  -9.722  18.857  0.00  0.00    +0.150 HD
ATOM     29  H   UNL     1      -9.261  -9.070  18.744  0.00  0.00    +0.156 HD
BRANCH   8  20
ATOM     20  C   UNL     1     -11.128  -9.849  19.172  0.00  0.00    +0.035 A 
ATOM     21  C   UNL     1     -11.880  -9.726  18.003  0.00  0.00    +0.023 A 
ATOM     22  C   UNL     1     -11.768  -9.912  20.409  0.00  0.00    +0.023 A 
ATOM     23  C   UNL     1     -13.272  -9.668  18.072  0.00  0.00    +0.002 A 
ATOM     24  C   UNL     1     -13.159  -9.855  20.478  0.00  0.00    +0.002 A 
ATOM     25  C   UNL     1     -13.911  -9.732  19.310  0.00  0.00    +0.000 A 
ENDBRANCH   8  20
ENDBRANCH  13   5
ENDBRANCH  11  13
TORSDOF 7
ENDMDL
MODEL 10
REMARK VINA RESULT:      -6.0     31.634     36.571
REMARK  Name = 75536780
REMARK  8 active torsions:
REMARK  status: ('A' for Active; 'I' for Inactive)
REMARK    1  A    between atoms: O_2  and  C_10
REMARK    2  A    between atoms: N_4  and  C_9
REMARK    3  A    between atoms: N_4  and  C_14
REMARK    4  A    between atoms: N_5  and  C_13
REMARK    5  A    between atoms: N_6  and  C_18
REMARK    6  A    between atoms: N_8  and  C_20
REMARK    7  A    between atoms: C_11  and  C_13
REMARK    8  A    between atoms: C_14  and  C_15
REMARK                            x       y       z     vdW  Elec       q    Type
REMARK                         _______ _______ _______ _____ _____    ______ ____
ROOT
ATOM      1  O   UNL     1      13.805   4.312  -0.945  0.00  0.00    -0.371 OA
ATOM      9  C   UNL     1      15.865   4.886   0.089  0.00  0.00    +0.111 C 
ATOM     10  C   UNL     1      14.996   4.152   1.092  0.00  0.00    +0.164 C 
ATOM     11  C   UNL     1      14.026   3.429   0.168  0.00  0.00    +0.165 C 
ATOM     12  C   UNL     1      14.835   5.316  -0.944  0.00  0.00    +0.181 C 
ENDROOT
BRANCH  10   2
ATOM      2  O   UNL     1      15.731   3.249   1.895  0.00  0.00    -0.388 OA
ATOM     27  H   UNL     1      16.101   2.560   1.319  0.00  0.00    +0.210 HD
ENDBRANCH  10   2
BRANCH   9   4
ATOM      4  N   UNL     1      16.596   6.007   0.660  0.00  0.00    -0.302 NA
ATOM     26  H   UNL     1      17.270   6.350  -0.025  0.00  0.00    +0.123 HD
BRANCH   4  14
ATOM     14  C   UNL     1      15.693   7.094   1.020  0.00  0.00    +0.156 C 
BRANCH  14  15
ATOM      6  N   UNL     1      16.671   8.304   2.997  0.00  0.00    -0.336 N 
ATOM      7  N   UNL     1      14.999   6.908   3.430  0.00  0.00    -0.239 NA
ATOM     15  C   UNL     1      15.764   7.416   2.489  0.00  0.00    +0.123 A 
ATOM     17  C   UNL     1      16.471   8.366   4.348  0.00  0.00    +0.106 A 
ATOM     18  C   UNL     1      17.665   9.047   2.259  0.00  0.00    +0.150 C 
ATOM     19  C   UNL     1      15.434   7.497   4.591  0.00  0.00    +0.130 A 
ENDBRANCH  14  15
ENDBRANCH   4  14
ENDBRANCH   9   4
BRANCH  11  13
ATOM     13  C   UNL     1      12.701   3.094   0.829  0.00  0.00    +0.140 C 
BRANCH  13   5
ATOM      3  O   UNL     1      10.202   4.063   1.838  0.00  0.00    -0.253 OA
ATOM      5  N   UNL     1      12.501   3.867   2.019  0.00  0.00    -0.297 N 
ATOM      8  N   UNL     1      11.352   5.037   3.638  0.00  0.00    -0.269 N 
ATOM     16  C   UNL     1      11.239   4.308   2.451  0.00  0.00    +0.304 C 
ATOM     28  H   UNL     1      13.315   4.120   2.570  0.00  0.00    +0.150 HD
ATOM     29  H   UNL     1      12.289   5.150   4.018  0.00  0.00    +0.156 HD
BRANCH   8  20
ATOM     20  C   UNL     1      10.316   5.646   4.386  0.00  0.00    +0.035 A 
ATOM     21  C   UNL     1       9.554   6.667   3.819  0.00  0.00    +0.023 A 
ATOM     22  C   UNL     1      10.059   5.227   5.691  0.00  0.00    +0.023 A 
ATOM     23  C   UNL     1       8.533   7.268   4.555  0.00  0.00    +0.002 A 
ATOM     24  C   UNL     1       9.040   5.827   6.428  0.00  0.00    +0.002 A 
ATOM     25  C   UNL     1       8.277   6.847   5.861  0.00  0.00    +0.000 A 
ENDBRANCH   8  20
ENDBRANCH  13   5
ENDBRANCH  11  13
TORSDOF 7
ENDMDL
