MODEL 1
REMARK VINA RESULT:      -7.4      0.000      0.000
REMARK  Name = 71693707
REMARK  7 active torsions:
REMARK  status: ('A' for Active; 'I' for Inactive)
REMARK    1  A    between atoms: O_3  and  C_17
REMARK    2  A    between atoms: N_6  and  C_9
REMARK    3  A    between atoms: N_7  and  C_24
REMARK    4  A    between atoms: C_10  and  C_17
REMARK    5  A    between atoms: C_11  and  C_19
REMARK    6  A    between atoms: C_25  and  C_26
REMARK    7  A    between atoms: C_31  and  C_32
REMARK                            x       y       z     vdW  Elec       q    Type
REMARK                         _______ _______ _______ _____ _____    ______ ____
ROOT
ATOM     19  C   UNL     1      15.291   7.851  21.246  0.00  0.00    -0.017 A 
ATOM     20  C   UNL     1      15.568   6.553  20.818  0.00  0.00    +0.008 A 
ATOM     21  C   UNL     1      16.337   8.731  21.527  0.00  0.00    +0.008 A 
ATOM     22  C   UNL     1      16.890   6.134  20.672  0.00  0.00    +0.023 A 
ATOM     23  C   UNL     1      17.659   8.311  21.381  0.00  0.00    +0.023 A 
ATOM     24  C   UNL     1      17.936   7.013  20.953  0.00  0.00    +0.034 A 
ENDROOT
BRANCH  19  11
ATOM      1  O   UNL     1      13.887   9.589  22.044  0.00  0.00    -0.361 OA
ATOM      4  O   UNL     1      12.415  11.881  19.973  0.00  0.00    -0.273 OA
ATOM      6  N   UNL     1      12.968   9.664  19.499  0.00  0.00    -0.288 N 
ATOM     10  C   UNL     1      13.111   8.309  20.041  0.00  0.00    +0.135 C 
ATOM     11  C   UNL     1      13.853   8.309  21.404  0.00  0.00    +0.171 C 
ATOM     14  C   UNL     1      12.690  10.740  20.338  0.00  0.00    +0.242 C 
ATOM     18  C   UNL     1      12.739  10.377  21.803  0.00  0.00    +0.256 C 
BRANCH   6   9
ATOM      2  O   UNL     1      13.115   8.637  15.449  0.00  0.00    -0.380 OA
ATOM      9  C   UNL     1      12.991   9.827  18.066  0.00  0.00    +0.081 C 
ATOM     12  C   UNL     1      14.293   9.287  17.470  0.00  0.00    +0.050 C 
ATOM     13  C   UNL     1      11.788   9.141  17.419  0.00  0.00    +0.050 C 
ATOM     15  C   UNL     1      14.251   9.342  15.949  0.00  0.00    +0.161 C 
ATOM     16  C   UNL     1      11.886   9.204  15.900  0.00  0.00    +0.161 C 
ENDBRANCH   6   9
BRANCH  10  17
ATOM     17  C   UNL     1      11.743   7.624  20.155  0.00  0.00    +0.181 C 
BRANCH  17   3
ATOM      3  O   UNL     1      11.938   6.229  20.049  0.00  0.00    -0.393 OA
ATOM     33  H   UNL     1      12.846   6.041  20.345  0.00  0.00    +0.209 HD
ENDBRANCH  17   3
ENDBRANCH  10  17
ENDBRANCH  19  11
BRANCH  24   7
ATOM      5  O   UNL     1      19.952   6.203  23.019  0.00  0.00    -0.270 OA
ATOM      7  N   UNL     1      19.259   6.594  20.807  0.00  0.00    -0.282 N 
ATOM     25  C   UNL     1      20.163   6.225  21.811  0.00  0.00    +0.248 C 
ATOM     34  H   UNL     1      19.559   6.519  19.838  0.00  0.00    +0.155 HD
BRANCH  25  26
ATOM     26  C   UNL     1      21.503   5.793  21.335  0.00  0.00    +0.037 A 
ATOM     27  C   UNL     1      22.442   6.744  20.936  0.00  0.00    +0.014 A 
ATOM     28  C   UNL     1      21.822   4.436  21.291  0.00  0.00    +0.014 A 
ATOM     29  C   UNL     1      23.699   6.337  20.491  0.00  0.00    +0.019 A 
ATOM     30  C   UNL     1      23.081   4.029  20.846  0.00  0.00    +0.019 A 
ATOM     31  C   UNL     1      24.019   4.980  20.446  0.00  0.00    +0.052 A 
BRANCH  31  32
ATOM      8  N   UNL     1      26.356   4.228  19.620  0.00  0.00    -0.191 NA
ATOM     32  C   UNL     1      25.308   4.565  19.990  0.00  0.00    +0.099 C 
ENDBRANCH  31  32
ENDBRANCH  25  26
ENDBRANCH  24   7
TORSDOF 7
ENDMDL
MODEL 2
REMARK VINA RESULT:      -7.2      2.237      3.841
REMARK  Name = 71693707
REMARK  7 active torsions:
REMARK  status: ('A' for Active; 'I' for Inactive)
REMARK    1  A    between atoms: O_3  and  C_17
REMARK    2  A    between atoms: N_6  and  C_9
REMARK    3  A    between atoms: N_7  and  C_24
REMARK    4  A    between atoms: C_10  and  C_17
REMARK    5  A    between atoms: C_11  and  C_19
REMARK    6  A    between atoms: C_25  and  C_26
REMARK    7  A    between atoms: C_31  and  C_32
REMARK                            x       y       z     vdW  Elec       q    Type
REMARK                         _______ _______ _______ _____ _____    ______ ____
ROOT
ATOM     19  C   UNL     1      15.514   7.891  19.252  0.00  0.00    -0.017 A 
ATOM     20  C   UNL     1      15.921   6.642  18.783  0.00  0.00    +0.008 A 
ATOM     21  C   UNL     1      16.195   8.493  20.312  0.00  0.00    +0.008 A 
ATOM     22  C   UNL     1      17.006   5.994  19.373  0.00  0.00    +0.023 A 
ATOM     23  C   UNL     1      17.279   7.845  20.901  0.00  0.00    +0.023 A 
ATOM     24  C   UNL     1      17.685   6.596  20.432  0.00  0.00    +0.034 A 
ENDROOT
BRANCH  19  11
ATOM      1  O   UNL     1      13.337   7.603  18.356  0.00  0.00    -0.361 OA
ATOM      4  O   UNL     1      10.500   8.442  20.075  0.00  0.00    -0.273 OA
ATOM      6  N   UNL     1      12.610   9.428  20.218  0.00  0.00    -0.288 N 
ATOM     10  C   UNL     1      13.838   9.773  19.493  0.00  0.00    +0.135 C 
ATOM     11  C   UNL     1      14.335   8.597  18.610  0.00  0.00    +0.171 C 
ATOM     14  C   UNL     1      11.615   8.666  19.610  0.00  0.00    +0.242 C 
ATOM     18  C   UNL     1      12.026   8.122  18.263  0.00  0.00    +0.256 C 
BRANCH   6   9
ATOM      2  O   UNL     1      12.710  12.255  23.297  0.00  0.00    -0.380 OA
ATOM      9  C   UNL     1      12.406  10.010  21.521  0.00  0.00    +0.081 C 
ATOM     12  C   UNL     1      13.741  10.358  22.185  0.00  0.00    +0.050 C 
ATOM     13  C   UNL     1      11.519  11.252  21.433  0.00  0.00    +0.050 C 
ATOM     15  C   UNL     1      13.512  11.091  23.500  0.00  0.00    +0.161 C 
ATOM     16  C   UNL     1      11.416  11.936  22.790  0.00  0.00    +0.161 C 
ENDBRANCH   6   9
BRANCH  10  17
ATOM     17  C   UNL     1      13.635  11.044  18.659  0.00  0.00    +0.181 C 
BRANCH  17   3
ATOM      3  O   UNL     1      13.861  10.723  17.302  0.00  0.00    -0.393 OA
ATOM     33  H   UNL     1      13.240  10.012  17.067  0.00  0.00    +0.209 HD
ENDBRANCH  17   3
ENDBRANCH  10  17
ENDBRANCH  19  11
BRANCH  24   7
ATOM      5  O   UNL     1      20.618   7.200  20.284  0.00  0.00    -0.270 OA
ATOM      7  N   UNL     1      18.771   5.947  21.022  0.00  0.00    -0.282 N 
ATOM     25  C   UNL     1      20.130   6.272  20.920  0.00  0.00    +0.248 C 
ATOM     34  H   UNL     1      18.506   5.173  21.626  0.00  0.00    +0.155 HD
BRANCH  25  26
ATOM     26  C   UNL     1      21.054   5.403  21.694  0.00  0.00    +0.037 A 
ATOM     27  C   UNL     1      21.634   5.873  22.871  0.00  0.00    +0.014 A 
ATOM     28  C   UNL     1      21.338   4.114  21.242  0.00  0.00    +0.014 A 
ATOM     29  C   UNL     1      22.500   5.056  23.597  0.00  0.00    +0.019 A 
ATOM     30  C   UNL     1      22.205   3.296  21.969  0.00  0.00    +0.019 A 
ATOM     31  C   UNL     1      22.785   3.767  23.146  0.00  0.00    +0.052 A 
BRANCH  31  32
ATOM      8  N   UNL     1      24.394   2.251  24.494  0.00  0.00    -0.191 NA
ATOM     32  C   UNL     1      23.673   2.930  23.890  0.00  0.00    +0.099 C 
ENDBRANCH  31  32
ENDBRANCH  25  26
ENDBRANCH  24   7
TORSDOF 7
ENDMDL
MODEL 3
REMARK VINA RESULT:      -7.0     26.989     31.397
REMARK  Name = 71693707
REMARK  7 active torsions:
REMARK  status: ('A' for Active; 'I' for Inactive)
REMARK    1  A    between atoms: O_3  and  C_17
REMARK    2  A    between atoms: N_6  and  C_9
REMARK    3  A    between atoms: N_7  and  C_24
REMARK    4  A    between atoms: C_10  and  C_17
REMARK    5  A    between atoms: C_11  and  C_19
REMARK    6  A    between atoms: C_25  and  C_26
REMARK    7  A    between atoms: C_31  and  C_32
REMARK                            x       y       z     vdW  Elec       q    Type
REMARK                         _______ _______ _______ _____ _____    ______ ____
ROOT
ATOM     19  C   UNL     1      -4.629 -11.402  15.985  0.00  0.00    -0.017 A 
ATOM     20  C   UNL     1      -4.715 -10.694  17.183  0.00  0.00    +0.008 A 
ATOM     21  C   UNL     1      -5.788 -11.886  15.376  0.00  0.00    +0.008 A 
ATOM     22  C   UNL     1      -5.960 -10.469  17.773  0.00  0.00    +0.023 A 
ATOM     23  C   UNL     1      -7.031 -11.661  15.966  0.00  0.00    +0.023 A 
ATOM     24  C   UNL     1      -7.118 -10.952  17.164  0.00  0.00    +0.034 A 
ENDROOT
BRANCH  19  11
ATOM      1  O   UNL     1      -3.188 -13.049  15.068  0.00  0.00    -0.361 OA
ATOM      4  O   UNL     1      -2.769 -13.475  11.699  0.00  0.00    -0.273 OA
ATOM      6  N   UNL     1      -3.261 -11.504  12.846  0.00  0.00    -0.288 N 
ATOM     10  C   UNL     1      -3.080 -10.749  14.092  0.00  0.00    +0.135 C 
ATOM     11  C   UNL     1      -3.276 -11.646  15.342  0.00  0.00    +0.171 C 
ATOM     14  C   UNL     1      -2.793 -12.811  12.732  0.00  0.00    +0.242 C 
ATOM     18  C   UNL     1      -2.278 -13.371  14.036  0.00  0.00    +0.256 C 
BRANCH   6   9
ATOM      2  O   UNL     1      -4.394  -8.329  10.373  0.00  0.00    -0.380 OA
ATOM      9  C   UNL     1      -3.814 -10.811  11.709  0.00  0.00    +0.081 C 
ATOM     12  C   UNL     1      -4.977  -9.907  12.124  0.00  0.00    +0.050 C 
ATOM     13  C   UNL     1      -2.739  -9.995  10.991  0.00  0.00    +0.050 C 
ATOM     15  C   UNL     1      -5.465  -9.083  10.941  0.00  0.00    +0.161 C 
ATOM     16  C   UNL     1      -3.353  -9.165   9.871  0.00  0.00    +0.161 C 
ENDBRANCH   6   9
BRANCH  10  17
ATOM     17  C   UNL     1      -1.709 -10.061  14.113  0.00  0.00    +0.181 C 
BRANCH  17   3
ATOM      3  O   UNL     1      -1.435  -9.665  15.441  0.00  0.00    -0.393 OA
ATOM     33  H   UNL     1      -0.765  -8.961  15.400  0.00  0.00    +0.209 HD
ENDBRANCH  17   3
ENDBRANCH  10  17
ENDBRANCH  19  11
BRANCH  24   7
ATOM      5  O   UNL     1      -8.970  -8.605  16.945  0.00  0.00    -0.270 OA
ATOM      7  N   UNL     1      -8.362 -10.728  17.754  0.00  0.00    -0.282 N 
ATOM     25  C   UNL     1      -9.191  -9.607  17.618  0.00  0.00    +0.248 C 
ATOM     34  H   UNL     1      -8.697 -11.508  18.312  0.00  0.00    +0.155 HD
BRANCH  25  26
ATOM     26  C   UNL     1     -10.480  -9.674  18.355  0.00  0.00    +0.037 A 
ATOM     27  C   UNL     1     -11.661  -9.268  17.735  0.00  0.00    +0.014 A 
ATOM     28  C   UNL     1     -10.507 -10.145  19.667  0.00  0.00    +0.014 A 
ATOM     29  C   UNL     1     -12.870  -9.332  18.428  0.00  0.00    +0.019 A 
ATOM     30  C   UNL     1     -11.717 -10.210  20.361  0.00  0.00    +0.019 A 
ATOM     31  C   UNL     1     -12.898  -9.803  19.740  0.00  0.00    +0.052 A 
BRANCH  31  32
ATOM      8  N   UNL     1     -15.144  -9.922  21.025  0.00  0.00    -0.191 NA
ATOM     32  C   UNL     1     -14.137  -9.869  20.448  0.00  0.00    +0.099 C 
ENDBRANCH  31  32
ENDBRANCH  25  26
ENDBRANCH  24   7
TORSDOF 7
ENDMDL
MODEL 4
REMARK VINA RESULT:      -6.7     30.315     33.532
REMARK  Name = 71693707
REMARK  7 active torsions:
REMARK  status: ('A' for Active; 'I' for Inactive)
REMARK    1  A    between atoms: O_3  and  C_17
REMARK    2  A    between atoms: N_6  and  C_9
REMARK    3  A    between atoms: N_7  and  C_24
REMARK    4  A    between atoms: C_10  and  C_17
REMARK    5  A    between atoms: C_11  and  C_19
REMARK    6  A    between atoms: C_25  and  C_26
REMARK    7  A    between atoms: C_31  and  C_32
REMARK                            x       y       z     vdW  Elec       q    Type
REMARK                         _______ _______ _______ _____ _____    ______ ____
ROOT
ATOM     19  C   UNL     1     -13.185   7.116  35.102  0.00  0.00    -0.017 A 
ATOM     20  C   UNL     1     -13.724   5.864  35.395  0.00  0.00    +0.008 A 
ATOM     21  C   UNL     1     -13.114   7.552  33.778  0.00  0.00    +0.008 A 
ATOM     22  C   UNL     1     -14.192   5.047  34.366  0.00  0.00    +0.023 A 
ATOM     23  C   UNL     1     -13.581   6.735  32.749  0.00  0.00    +0.023 A 
ATOM     24  C   UNL     1     -14.121   5.483  33.042  0.00  0.00    +0.034 A 
ENDROOT
BRANCH  19  11
ATOM      1  O   UNL     1     -11.756   7.228  36.992  0.00  0.00    -0.361 OA
ATOM      4  O   UNL     1      -8.700   8.766  36.917  0.00  0.00    -0.273 OA
ATOM      6  N   UNL     1     -10.605   9.295  35.677  0.00  0.00    -0.288 N 
ATOM     10  C   UNL     1     -12.072   9.320  35.661  0.00  0.00    +0.135 C 
ATOM     11  C   UNL     1     -12.677   8.006  36.221  0.00  0.00    +0.171 C 
ATOM     14  C   UNL     1      -9.916   8.716  36.740  0.00  0.00    +0.242 C 
ATOM     18  C   UNL     1     -10.821   8.003  37.715  0.00  0.00    +0.256 C 
BRANCH   6   9
ATOM      2  O   UNL     1      -9.764  12.238  32.828  0.00  0.00    -0.380 OA
ATOM      9  C   UNL     1      -9.904   9.999  34.632  0.00  0.00    +0.081 C 
ATOM     12  C   UNL     1     -10.748  10.082  33.359  0.00  0.00    +0.050 C 
ATOM     13  C   UNL     1      -9.502  11.400  35.093  0.00  0.00    +0.050 C 
ATOM     15  C   UNL     1     -10.055  10.940  32.309  0.00  0.00    +0.161 C 
ATOM     16  C   UNL     1      -8.879  12.185  33.946  0.00  0.00    +0.161 C 
ENDBRANCH   6   9
BRANCH  10  17
ATOM     17  C   UNL     1     -12.600  10.543  36.423  0.00  0.00    +0.181 C 
BRANCH  17   3
ATOM      3  O   UNL     1     -13.311  10.083  37.554  0.00  0.00    -0.393 OA
ATOM     33  H   UNL     1     -14.049  10.699  37.701  0.00  0.00    +0.209 HD
ENDBRANCH  17   3
ENDBRANCH  10  17
ENDBRANCH  19  11
BRANCH  24   7
ATOM      5  O   UNL     1     -13.084   2.859  32.028  0.00  0.00    -0.270 OA
ATOM      7  N   UNL     1     -14.588   4.665  32.013  0.00  0.00    -0.282 N 
ATOM     25  C   UNL     1     -14.064   3.442  31.577  0.00  0.00    +0.248 C 
ATOM     34  H   UNL     1     -15.438   5.008  31.572  0.00  0.00    +0.155 HD
BRANCH  25  26
ATOM     26  C   UNL     1     -14.806   2.789  30.467  0.00  0.00    +0.037 A 
ATOM     27  C   UNL     1     -15.307   3.556  29.415  0.00  0.00    +0.014 A 
ATOM     28  C   UNL     1     -14.998   1.408  30.476  0.00  0.00    +0.014 A 
ATOM     29  C   UNL     1     -16.002   2.942  28.374  0.00  0.00    +0.019 A 
ATOM     30  C   UNL     1     -15.694   0.793  29.434  0.00  0.00    +0.019 A 
ATOM     31  C   UNL     1     -16.195   1.561  28.383  0.00  0.00    +0.052 A 
BRANCH  31  32
ATOM      8  N   UNL     1     -17.487   0.422  26.448  0.00  0.00    -0.191 NA
ATOM     32  C   UNL     1     -16.907   0.933  27.315  0.00  0.00    +0.099 C 
ENDBRANCH  31  32
ENDBRANCH  25  26
ENDBRANCH  24   7
TORSDOF 7
ENDMDL
MODEL 5
REMARK VINA RESULT:      -6.6     27.699     31.825
REMARK  Name = 71693707
REMARK  7 active torsions:
REMARK  status: ('A' for Active; 'I' for Inactive)
REMARK    1  A    between atoms: O_3  and  C_17
REMARK    2  A    between atoms: N_6  and  C_9
REMARK    3  A    between atoms: N_7  and  C_24
REMARK    4  A    between atoms: C_10  and  C_17
REMARK    5  A    between atoms: C_11  and  C_19
REMARK    6  A    between atoms: C_25  and  C_26
REMARK    7  A    between atoms: C_31  and  C_32
REMARK                            x       y       z     vdW  Elec       q    Type
REMARK                         _______ _______ _______ _____ _____    ______ ____
ROOT
ATOM     19  C   UNL     1     -12.512   8.218  20.642  0.00  0.00    -0.017 A 
ATOM     20  C   UNL     1     -13.734   8.540  21.232  0.00  0.00    +0.008 A 
ATOM     21  C   UNL     1     -11.973   6.941  20.807  0.00  0.00    +0.008 A 
ATOM     22  C   UNL     1     -14.417   7.587  21.988  0.00  0.00    +0.023 A 
ATOM     23  C   UNL     1     -12.656   5.989  21.563  0.00  0.00    +0.023 A 
ATOM     24  C   UNL     1     -13.878   6.311  22.153  0.00  0.00    +0.034 A 
ENDROOT
BRANCH  19  11
ATOM      1  O   UNL     1     -10.484   8.702  19.510  0.00  0.00    -0.361 OA
ATOM      4  O   UNL     1     -10.170   8.512  16.108  0.00  0.00    -0.273 OA
ATOM      6  N   UNL     1     -12.075   9.043  17.346  0.00  0.00    -0.288 N 
ATOM     10  C   UNL     1     -12.589   9.670  18.569  0.00  0.00    +0.135 C 
ATOM     11  C   UNL     1     -11.769   9.253  19.819  0.00  0.00    +0.171 C 
ATOM     14  C   UNL     1     -10.705   8.892  17.147  0.00  0.00    +0.242 C 
ATOM     18  C   UNL     1      -9.886   9.263  18.359  0.00  0.00    +0.256 C 
BRANCH   6   9
ATOM      2  O   UNL     1     -15.510   9.254  14.972  0.00  0.00    -0.380 OA
ATOM      9  C   UNL     1     -13.018   8.714  16.306  0.00  0.00    +0.081 C 
ATOM     12  C   UNL     1     -14.370   8.306  16.895  0.00  0.00    +0.050 C 
ATOM     13  C   UNL     1     -13.193   9.883  15.337  0.00  0.00    +0.050 C 
ATOM     15  C   UNL     1     -15.394   8.089  15.790  0.00  0.00    +0.161 C 
ATOM     16  C   UNL     1     -14.284   9.578  14.319  0.00  0.00    +0.161 C 
ENDBRANCH   6   9
BRANCH  10  17
ATOM     17  C   UNL     1     -12.632  11.196  18.419  0.00  0.00    +0.181 C 
BRANCH  17   3
ATOM      3  O   UNL     1     -11.839  11.763  19.441  0.00  0.00    -0.393 OA
ATOM     33  H   UNL     1     -11.232  11.070  19.752  0.00  0.00    +0.209 HD
ENDBRANCH  17   3
ENDBRANCH  10  17
ENDBRANCH  19  11
BRANCH  24   7
ATOM      5  O   UNL     1     -16.291   4.666  21.475  0.00  0.00    -0.270 OA
ATOM      7  N   UNL     1     -14.561   5.358  22.909  0.00  0.00    -0.282 N 
ATOM     25  C   UNL     1     -15.690   4.614  22.543  0.00  0.00    +0.248 C 
ATOM     34  H   UNL     1     -14.139   5.176  23.816  0.00  0.00    +0.155 HD
BRANCH  25  26
ATOM     26  C   UNL     1     -16.175   3.648  23.563  0.00  0.00    +0.037 A 
ATOM     27  C   UNL     1     -15.636   3.660  24.849  0.00  0.00    +0.014 A 
ATOM     28  C   UNL     1     -17.172   2.730  23.233  0.00  0.00    +0.014 A 
ATOM     29  C   UNL     1     -16.094   2.753  25.805  0.00  0.00    +0.019 A 
ATOM     30  C   UNL     1     -17.631   1.823  24.190  0.00  0.00    +0.019 A 
ATOM     31  C   UNL     1     -17.091   1.835  25.475  0.00  0.00    +0.052 A 
BRANCH  31  32
ATOM      8  N   UNL     1     -17.939   0.152  27.252  0.00  0.00    -0.191 NA
ATOM     32  C   UNL     1     -17.559   0.907  26.456  0.00  0.00    +0.099 C 
ENDBRANCH  31  32
ENDBRANCH  25  26
ENDBRANCH  24   7
TORSDOF 7
ENDMDL
MODEL 6
REMARK VINA RESULT:      -6.6     27.249     31.553
REMARK  Name = 71693707
REMARK  7 active torsions:
REMARK  status: ('A' for Active; 'I' for Inactive)
REMARK    1  A    between atoms: O_3  and  C_17
REMARK    2  A    between atoms: N_6  and  C_9
REMARK    3  A    between atoms: N_7  and  C_24
REMARK    4  A    between atoms: C_10  and  C_17
REMARK    5  A    between atoms: C_11  and  C_19
REMARK    6  A    between atoms: C_25  and  C_26
REMARK    7  A    between atoms: C_31  and  C_32
REMARK                            x       y       z     vdW  Elec       q    Type
REMARK                         _______ _______ _______ _____ _____    ______ ____
ROOT
ATOM     19  C   UNL     1      -2.952 -11.103  11.277  0.00  0.00    -0.017 A 
ATOM     20  C   UNL     1      -3.669 -12.097  10.612  0.00  0.00    +0.008 A 
ATOM     21  C   UNL     1      -2.950  -9.797  10.784  0.00  0.00    +0.008 A 
ATOM     22  C   UNL     1      -4.383 -11.787   9.455  0.00  0.00    +0.023 A 
ATOM     23  C   UNL     1      -3.664  -9.488   9.627  0.00  0.00    +0.023 A 
ATOM     24  C   UNL     1      -4.381 -10.482   8.962  0.00  0.00    +0.034 A 
ENDROOT
BRANCH  19  11
ATOM      1  O   UNL     1      -1.936 -10.206  13.224  0.00  0.00    -0.361 OA
ATOM      4  O   UNL     1      -3.382 -10.385  16.320  0.00  0.00    -0.273 OA
ATOM      6  N   UNL     1      -3.588 -11.891  14.549  0.00  0.00    -0.288 N 
ATOM     10  C   UNL     1      -2.923 -12.497  13.390  0.00  0.00    +0.135 C 
ATOM     11  C   UNL     1      -2.175 -11.438  12.536  0.00  0.00    +0.171 C 
ATOM     14  C   UNL     1      -2.978 -10.861  15.261  0.00  0.00    +0.242 C 
ATOM     18  C   UNL     1      -1.711 -10.361  14.610  0.00  0.00    +0.256 C 
BRANCH   6   9
ATOM      2  O   UNL     1      -6.501 -14.804  15.268  0.00  0.00    -0.380 OA
ATOM      9  C   UNL     1      -4.823 -12.480  15.006  0.00  0.00    +0.081 C 
ATOM     12  C   UNL     1      -5.630 -13.046  13.836  0.00  0.00    +0.050 C 
ATOM     13  C   UNL     1      -4.557 -13.571  16.043  0.00  0.00    +0.050 C 
ATOM     15  C   UNL     1      -6.865 -13.780  14.341  0.00  0.00    +0.161 C 
ATOM     16  C   UNL     1      -5.852 -14.277  16.424  0.00  0.00    +0.161 C 
ENDBRANCH   6   9
BRANCH  10  17
ATOM     17  C   UNL     1      -1.976 -13.619  13.835  0.00  0.00    +0.181 C 
BRANCH  17   3
ATOM      3  O   UNL     1      -0.751 -13.460  13.149  0.00  0.00    -0.393 OA
ATOM     33  H   UNL     1      -0.322 -14.332  13.119  0.00  0.00    +0.209 HD
ENDBRANCH  17   3
ENDBRANCH  10  17
ENDBRANCH  19  11
BRANCH  24   7
ATOM      5  O   UNL     1      -7.174  -9.446   8.628  0.00  0.00    -0.270 OA
ATOM      7  N   UNL     1      -5.095 -10.172   7.805  0.00  0.00    -0.282 N 
ATOM     25  C   UNL     1      -6.406  -9.689   7.703  0.00  0.00    +0.248 C 
ATOM     34  H   UNL     1      -4.557 -10.284   6.950  0.00  0.00    +0.155 HD
BRANCH  25  26
ATOM     26  C   UNL     1      -6.884  -9.425   6.321  0.00  0.00    +0.037 A 
ATOM     27  C   UNL     1      -7.545  -8.233   6.026  0.00  0.00    +0.014 A 
ATOM     28  C   UNL     1      -6.667 -10.369   5.318  0.00  0.00    +0.014 A 
ATOM     29  C   UNL     1      -7.992  -7.987   4.728  0.00  0.00    +0.019 A 
ATOM     30  C   UNL     1      -7.114 -10.123   4.018  0.00  0.00    +0.019 A 
ATOM     31  C   UNL     1      -7.776  -8.931   3.724  0.00  0.00    +0.052 A 
BRANCH  31  32
ATOM      8  N   UNL     1      -8.606  -8.471   1.315  0.00  0.00    -0.191 NA
ATOM     32  C   UNL     1      -8.234  -8.678   2.395  0.00  0.00    +0.099 C 
ENDBRANCH  31  32
ENDBRANCH  25  26
ENDBRANCH  24   7
TORSDOF 7
ENDMDL
MODEL 7
REMARK VINA RESULT:      -6.6     14.641     18.472
REMARK  Name = 71693707
REMARK  7 active torsions:
REMARK  status: ('A' for Active; 'I' for Inactive)
REMARK    1  A    between atoms: O_3  and  C_17
REMARK    2  A    between atoms: N_6  and  C_9
REMARK    3  A    between atoms: N_7  and  C_24
REMARK    4  A    between atoms: C_10  and  C_17
REMARK    5  A    between atoms: C_11  and  C_19
REMARK    6  A    between atoms: C_25  and  C_26
REMARK    7  A    between atoms: C_31  and  C_32
REMARK                            x       y       z     vdW  Elec       q    Type
REMARK                         _______ _______ _______ _____ _____    ______ ____
ROOT
ATOM     19  C   UNL     1      10.642   4.847   3.996  0.00  0.00    -0.017 A 
ATOM     20  C   UNL     1      10.819   3.710   3.209  0.00  0.00    +0.008 A 
ATOM     21  C   UNL     1      11.391   5.997   3.739  0.00  0.00    +0.008 A 
ATOM     22  C   UNL     1      11.745   3.720   2.165  0.00  0.00    +0.023 A 
ATOM     23  C   UNL     1      12.316   6.007   2.695  0.00  0.00    +0.023 A 
ATOM     24  C   UNL     1      12.493   4.869   1.908  0.00  0.00    +0.034 A 
ENDROOT
BRANCH  19  11
ATOM      1  O   UNL     1      10.086   3.870   6.085  0.00  0.00    -0.361 OA
ATOM      4  O   UNL     1      10.620   5.453   9.072  0.00  0.00    -0.273 OA
ATOM      6  N   UNL     1      10.147   6.417   7.000  0.00  0.00    -0.288 N 
ATOM     10  C   UNL     1       9.443   6.259   5.722  0.00  0.00    +0.135 C 
ATOM     11  C   UNL     1       9.635   4.837   5.131  0.00  0.00    +0.171 C 
ATOM     14  C   UNL     1      10.182   5.377   7.926  0.00  0.00    +0.242 C 
ATOM     18  C   UNL     1       9.599   4.090   7.393  0.00  0.00    +0.256 C 
BRANCH   6   9
ATOM      2  O   UNL     1      10.530  10.580   7.072  0.00  0.00    -0.380 OA
ATOM      9  C   UNL     1      10.682   7.717   7.322  0.00  0.00    +0.081 C 
ATOM     12  C   UNL     1      11.134   8.456   6.061  0.00  0.00    +0.050 C 
ATOM     13  C   UNL     1       9.658   8.554   8.089  0.00  0.00    +0.050 C 
ATOM     15  C   UNL     1      11.573   9.875   6.399  0.00  0.00    +0.161 C 
ATOM     16  C   UNL     1      10.179   9.968   8.312  0.00  0.00    +0.161 C 
ENDBRANCH   6   9
BRANCH  10  17
ATOM     17  C   UNL     1       7.955   6.598   5.878  0.00  0.00    +0.181 C 
BRANCH  17   3
ATOM      3  O   UNL     1       7.677   7.737   5.091  0.00  0.00    -0.393 OA
ATOM     33  H   UNL     1       8.454   8.321   5.145  0.00  0.00    +0.209 HD
ENDBRANCH  17   3
ENDBRANCH  10  17
ENDBRANCH  19  11
BRANCH  24   7
ATOM      5  O   UNL     1      14.949   3.203   1.479  0.00  0.00    -0.270 OA
ATOM      7  N   UNL     1      13.419   4.880   0.864  0.00  0.00    -0.282 N 
ATOM     25  C   UNL     1      14.555   4.076   0.711  0.00  0.00    +0.248 C 
ATOM     34  H   UNL     1      13.189   5.534   0.121  0.00  0.00    +0.155 HD
BRANCH  25  26
ATOM     26  C   UNL     1      15.336   4.305  -0.533  0.00  0.00    +0.037 A 
ATOM     27  C   UNL     1      16.717   4.113  -0.536  0.00  0.00    +0.014 A 
ATOM     28  C   UNL     1      14.685   4.709  -1.698  0.00  0.00    +0.014 A 
ATOM     29  C   UNL     1      17.448   4.328  -1.705  0.00  0.00    +0.019 A 
ATOM     30  C   UNL     1      15.416   4.923  -2.868  0.00  0.00    +0.019 A 
ATOM     31  C   UNL     1      16.797   4.732  -2.870  0.00  0.00    +0.052 A 
BRANCH  31  32
ATOM      8  N   UNL     1      18.156   5.129  -5.039  0.00  0.00    -0.191 NA
ATOM     32  C   UNL     1      17.547   4.951  -4.067  0.00  0.00    +0.099 C 
ENDBRANCH  31  32
ENDBRANCH  25  26
ENDBRANCH  24   7
TORSDOF 7
ENDMDL
MODEL 8
REMARK VINA RESULT:      -6.5     27.963     32.661
REMARK  Name = 71693707
REMARK  7 active torsions:
REMARK  status: ('A' for Active; 'I' for Inactive)
REMARK    1  A    between atoms: O_3  and  C_17
REMARK    2  A    between atoms: N_6  and  C_9
REMARK    3  A    between atoms: N_7  and  C_24
REMARK    4  A    between atoms: C_10  and  C_17
REMARK    5  A    between atoms: C_11  and  C_19
REMARK    6  A    between atoms: C_25  and  C_26
REMARK    7  A    between atoms: C_31  and  C_32
REMARK                            x       y       z     vdW  Elec       q    Type
REMARK                         _______ _______ _______ _____ _____    ______ ____
ROOT
ATOM     19  C   UNL     1      -9.324  -9.547  16.944  0.00  0.00    -0.017 A 
ATOM     20  C   UNL     1      -9.839  -9.972  15.720  0.00  0.00    +0.008 A 
ATOM     21  C   UNL     1      -9.545  -8.239  17.377  0.00  0.00    +0.008 A 
ATOM     22  C   UNL     1     -10.574  -9.090  14.928  0.00  0.00    +0.023 A 
ATOM     23  C   UNL     1     -10.280  -7.358  16.586  0.00  0.00    +0.023 A 
ATOM     24  C   UNL     1     -10.795  -7.782  15.361  0.00  0.00    +0.034 A 
ENDROOT
BRANCH  19  11
ATOM      1  O   UNL     1      -8.837 -11.831  17.362  0.00  0.00    -0.361 OA
ATOM      4  O   UNL     1      -5.950 -13.334  16.305  0.00  0.00    -0.273 OA
ATOM      6  N   UNL     1      -6.271 -11.101  16.901  0.00  0.00    -0.288 N 
ATOM     10  C   UNL     1      -7.010 -10.171  17.762  0.00  0.00    +0.135 C 
ATOM     11  C   UNL     1      -8.525 -10.507  17.806  0.00  0.00    +0.171 C 
ATOM     14  C   UNL     1      -6.591 -12.457  16.878  0.00  0.00    +0.242 C 
ATOM     18  C   UNL     1      -7.838 -12.784  17.665  0.00  0.00    +0.256 C 
BRANCH   6   9
ATOM      2  O   UNL     1      -2.761 -11.119  14.629  0.00  0.00    -0.380 OA
ATOM      9  C   UNL     1      -5.125 -10.597  16.185  0.00  0.00    +0.081 C 
ATOM     12  C   UNL     1      -3.821 -11.090  16.814  0.00  0.00    +0.050 C 
ATOM     13  C   UNL     1      -5.185 -10.993  14.710  0.00  0.00    +0.050 C 
ATOM     15  C   UNL     1      -2.625 -10.661  15.975  0.00  0.00    +0.161 C 
ATOM     16  C   UNL     1      -3.912 -10.571  13.988  0.00  0.00    +0.161 C 
ENDBRANCH   6   9
BRANCH  10  17
ATOM     17  C   UNL     1      -6.407 -10.144  19.172  0.00  0.00    +0.181 C 
BRANCH  17   3
ATOM      3  O   UNL     1      -7.422 -10.490  20.092  0.00  0.00    -0.393 OA
ATOM     33  H   UNL     1      -8.236 -10.640  19.581  0.00  0.00    +0.209 HD
ENDBRANCH  17   3
ENDBRANCH  10  17
ENDBRANCH  19  11
BRANCH  24   7
ATOM      5  O   UNL     1     -13.370  -6.356  15.928  0.00  0.00    -0.270 OA
ATOM      7  N   UNL     1     -11.530  -6.900  14.569  0.00  0.00    -0.282 N 
ATOM     25  C   UNL     1     -12.734  -6.257  14.884  0.00  0.00    +0.248 C 
ATOM     34  H   UNL     1     -11.090  -6.687  13.678  0.00  0.00    +0.155 HD
BRANCH  25  26
ATOM     26  C   UNL     1     -13.264  -5.346  13.836  0.00  0.00    +0.037 A 
ATOM     27  C   UNL     1     -12.404  -4.475  13.168  0.00  0.00    +0.014 A 
ATOM     28  C   UNL     1     -14.622  -5.365  13.519  0.00  0.00    +0.014 A 
ATOM     29  C   UNL     1     -12.902  -3.621  12.185  0.00  0.00    +0.019 A 
ATOM     30  C   UNL     1     -15.121  -4.511  12.534  0.00  0.00    +0.019 A 
ATOM     31  C   UNL     1     -14.260  -3.639  11.867  0.00  0.00    +0.052 A 
BRANCH  31  32
ATOM      8  N   UNL     1     -15.183  -2.052  10.040  0.00  0.00    -0.191 NA
ATOM     32  C   UNL     1     -14.770  -2.764  10.860  0.00  0.00    +0.099 C 
ENDBRANCH  31  32
ENDBRANCH  25  26
ENDBRANCH  24   7
TORSDOF 7
ENDMDL
MODEL 9
REMARK VINA RESULT:      -6.4     16.835     21.703
REMARK  Name = 71693707
REMARK  7 active torsions:
REMARK  status: ('A' for Active; 'I' for Inactive)
REMARK    1  A    between atoms: O_3  and  C_17
REMARK    2  A    between atoms: N_6  and  C_9
REMARK    3  A    between atoms: N_7  and  C_24
REMARK    4  A    between atoms: C_10  and  C_17
REMARK    5  A    between atoms: C_11  and  C_19
REMARK    6  A    between atoms: C_25  and  C_26
REMARK    7  A    between atoms: C_31  and  C_32
REMARK                            x       y       z     vdW  Elec       q    Type
REMARK                         _______ _______ _______ _____ _____    ______ ____
ROOT
ATOM     19  C   UNL     1      11.894   4.152  -0.469  0.00  0.00    -0.017 A 
ATOM     20  C   UNL     1      12.895   3.978   0.487  0.00  0.00    +0.008 A 
ATOM     21  C   UNL     1      10.585   4.418  -0.066  0.00  0.00    +0.008 A 
ATOM     22  C   UNL     1      12.587   4.069   1.845  0.00  0.00    +0.023 A 
ATOM     23  C   UNL     1      10.277   4.508   1.291  0.00  0.00    +0.023 A 
ATOM     24  C   UNL     1      11.278   4.335   2.247  0.00  0.00    +0.034 A 
ENDROOT
BRANCH  19  11
ATOM      1  O   UNL     1      12.139   2.672  -2.306  0.00  0.00    -0.361 OA
ATOM      4  O   UNL     1       9.760   2.333  -4.742  0.00  0.00    -0.273 OA
ATOM      6  N   UNL     1      10.261   4.230  -3.478  0.00  0.00    -0.288 N 
ATOM     10  C   UNL     1      11.314   4.983  -2.789  0.00  0.00    +0.135 C 
ATOM     11  C   UNL     1      12.228   4.055  -1.945  0.00  0.00    +0.171 C 
ATOM     14  C   UNL     1      10.526   2.978  -4.030  0.00  0.00    +0.242 C 
ATOM     18  C   UNL     1      11.899   2.457  -3.682  0.00  0.00    +0.256 C 
BRANCH   6   9
ATOM      2  O   UNL     1       7.497   7.290  -4.167  0.00  0.00    -0.380 OA
ATOM      9  C   UNL     1       8.989   4.877  -3.683  0.00  0.00    +0.081 C 
ATOM     12  C   UNL     1       8.709   5.904  -2.584  0.00  0.00    +0.050 C 
ATOM     13  C   UNL     1       8.930   5.543  -5.058  0.00  0.00    +0.050 C 
ATOM     15  C   UNL     1       7.429   6.673  -2.881  0.00  0.00    +0.161 C 
ATOM     16  C   UNL     1       7.637   6.334  -5.217  0.00  0.00    +0.161 C 
ENDBRANCH   6   9
BRANCH  10  17
ATOM     17  C   UNL     1      12.135   5.806  -3.790  0.00  0.00    +0.181 C 
BRANCH  17   3
ATOM      3  O   UNL     1      12.134   7.152  -3.360  0.00  0.00    -0.393 OA
ATOM     33  H   UNL     1      12.297   7.148  -2.401  0.00  0.00    +0.209 HD
ENDBRANCH  17   3
ENDBRANCH  10  17
ENDBRANCH  19  11
BRANCH  24   7
ATOM      5  O   UNL     1      10.676   6.734   3.941  0.00  0.00    -0.270 OA
ATOM      7  N   UNL     1      10.970   4.425   3.605  0.00  0.00    -0.282 N 
ATOM     25  C   UNL     1      10.696   5.578   4.352  0.00  0.00    +0.248 C 
ATOM     34  H   UNL     1      10.905   3.524   4.070  0.00  0.00    +0.155 HD
BRANCH  25  26
ATOM     26  C   UNL     1      10.372   5.348   5.784  0.00  0.00    +0.037 A 
ATOM     27  C   UNL     1       9.912   4.101   6.204  0.00  0.00    +0.014 A 
ATOM     28  C   UNL     1      10.531   6.381   6.708  0.00  0.00    +0.014 A 
ATOM     29  C   UNL     1       9.609   3.886   7.549  0.00  0.00    +0.019 A 
ATOM     30  C   UNL     1      10.229   6.166   8.053  0.00  0.00    +0.019 A 
ATOM     31  C   UNL     1       9.768   4.918   8.473  0.00  0.00    +0.052 A 
BRANCH  31  32
ATOM      8  N   UNL     1       9.206   4.518  10.969  0.00  0.00    -0.191 NA
ATOM     32  C   UNL     1       9.458   4.697   9.850  0.00  0.00    +0.099 C 
ENDBRANCH  31  32
ENDBRANCH  25  26
ENDBRANCH  24   7
TORSDOF 7
ENDMDL
MODEL 10
REMARK VINA RESULT:      -6.3     14.940     19.547
REMARK  Name = 71693707
REMARK  7 active torsions:
REMARK  status: ('A' for Active; 'I' for Inactive)
REMARK    1  A    between atoms: O_3  and  C_17
REMARK    2  A    between atoms: N_6  and  C_9
REMARK    3  A    between atoms: N_7  and  C_24
REMARK    4  A    between atoms: C_10  and  C_17
REMARK    5  A    between atoms: C_11  and  C_19
REMARK    6  A    between atoms: C_25  and  C_26
REMARK    7  A    between atoms: C_31  and  C_32
REMARK                            x       y       z     vdW  Elec       q    Type
REMARK                         _______ _______ _______ _____ _____    ______ ____
ROOT
ATOM     19  C   UNL     1       9.793   5.655   4.091  0.00  0.00    -0.017 A 
ATOM     20  C   UNL     1       9.645   6.546   3.027  0.00  0.00    +0.008 A 
ATOM     21  C   UNL     1      10.378   4.407   3.878  0.00  0.00    +0.008 A 
ATOM     22  C   UNL     1      10.081   6.188   1.751  0.00  0.00    +0.023 A 
ATOM     23  C   UNL     1      10.815   4.049   2.603  0.00  0.00    +0.023 A 
ATOM     24  C   UNL     1      10.666   4.939   1.539  0.00  0.00    +0.034 A 
ENDROOT
BRANCH  19  11
ATOM      1  O   UNL     1       9.535   4.912   6.329  0.00  0.00    -0.361 OA
ATOM      4  O   UNL     1      11.667   5.828   8.843  0.00  0.00    -0.273 OA
ATOM      6  N   UNL     1      11.079   7.049   6.943  0.00  0.00    -0.288 N 
ATOM     10  C   UNL     1      10.022   7.338   5.968  0.00  0.00    +0.135 C 
ATOM     11  C   UNL     1       9.319   6.044   5.479  0.00  0.00    +0.171 C 
ATOM     14  C   UNL     1      10.909   6.053   7.902  0.00  0.00    +0.242 C 
ATOM     18  C   UNL     1       9.652   5.242   7.698  0.00  0.00    +0.256 C 
BRANCH   6   9
ATOM      2  O   UNL     1      14.428   9.132   5.554  0.00  0.00    -0.380 OA
ATOM      9  C   UNL     1      12.236   7.910   6.963  0.00  0.00    +0.081 C 
ATOM     12  C   UNL     1      13.504   7.139   6.589  0.00  0.00    +0.050 C 
ATOM     13  C   UNL     1      12.046   9.102   6.026  0.00  0.00    +0.050 C 
ATOM     15  C   UNL     1      14.695   8.082   6.485  0.00  0.00    +0.161 C 
ATOM     16  C   UNL     1      13.319   9.936   5.952  0.00  0.00    +0.161 C 
ENDBRANCH   6   9
BRANCH  10  17
ATOM     17  C   UNL     1       9.008   8.333   6.549  0.00  0.00    +0.181 C 
BRANCH  17   3
ATOM      3  O   UNL     1       7.744   7.703   6.586  0.00  0.00    -0.393 OA
ATOM     33  H   UNL     1       7.890   6.754   6.427  0.00  0.00    +0.209 HD
ENDBRANCH  17   3
ENDBRANCH  10  17
ENDBRANCH  19  11
BRANCH  24   7
ATOM      5  O   UNL     1      13.421   4.304   0.541  0.00  0.00    -0.270 OA
ATOM      7  N   UNL     1      11.103   4.582   0.263  0.00  0.00    -0.282 N 
ATOM     25  C   UNL     1      12.409   4.294  -0.152  0.00  0.00    +0.248 C 
ATOM     34  H   UNL     1      10.351   4.488  -0.415  0.00  0.00    +0.155 HD
BRANCH  25  26
ATOM     26  C   UNL     1      12.555   3.913  -1.582  0.00  0.00    +0.037 A 
ATOM     27  C   UNL     1      11.868   2.808  -2.084  0.00  0.00    +0.014 A 
ATOM     28  C   UNL     1      13.377   4.664  -2.421  0.00  0.00    +0.014 A 
ATOM     29  C   UNL     1      12.005   2.453  -3.425  0.00  0.00    +0.019 A 
ATOM     30  C   UNL     1      13.513   4.309  -3.765  0.00  0.00    +0.019 A 
ATOM     31  C   UNL     1      12.827   3.204  -4.266  0.00  0.00    +0.052 A 
BRANCH  31  32
ATOM      8  N   UNL     1      13.079   2.542  -6.757  0.00  0.00    -0.191 NA
ATOM     32  C   UNL     1      12.966   2.839  -5.640  0.00  0.00    +0.099 C 
ENDBRANCH  31  32
ENDBRANCH  25  26
ENDBRANCH  24   7
TORSDOF 7
ENDMDL
