MODEL 1
REMARK VINA RESULT:      -7.8      0.000      0.000
REMARK  Name = 45784016
REMARK  2 active torsions:
REMARK  status: ('A' for Active; 'I' for Inactive)
REMARK    1  A    between atoms: C_7  and  C_11
REMARK    2  A    between atoms: C_12  and  C_15
REMARK                            x       y       z     vdW  Elec       q    Type
REMARK                         _______ _______ _______ _____ _____    ______ ____
ROOT
ATOM      3  O   UNL     1      14.061   7.538  18.086  0.00  0.00    -0.270 OA
ATOM      4  N   UNL     1      13.184   7.462  20.237  0.00  0.00    -0.297 N 
ATOM      7  C   UNL     1      11.898   7.861  22.199  0.00  0.00    +0.074 C 
ATOM      8  C   UNL     1      11.006   7.237  21.114  0.00  0.00    +0.032 C 
ATOM      9  C   UNL     1      13.305   7.508  21.695  0.00  0.00    +0.119 C 
ATOM     10  C   UNL     1      11.788   7.455  19.827  0.00  0.00    +0.109 C 
ATOM     12  C   UNL     1      14.211   7.504  19.307  0.00  0.00    +0.247 C 
ENDROOT
BRANCH   7  11
ATOM      1  F   UNL     1      10.104  14.456  24.681  0.00  0.00    -0.205 F 
ATOM      5  N   UNL     1      11.182   9.825  23.600  0.00  0.00    -0.341 N 
ATOM      6  N   UNL     1      11.688  10.283  21.484  0.00  0.00    -0.232 NA
ATOM     11  C   UNL     1      11.597   9.336  22.392  0.00  0.00    +0.113 A 
ATOM     13  C   UNL     1      10.992  11.176  23.462  0.00  0.00    +0.069 A 
ATOM     14  C   UNL     1      11.314  11.438  22.134  0.00  0.00    +0.089 A 
ATOM     16  C   UNL     1      10.579  12.163  24.359  0.00  0.00    +0.066 A 
ATOM     17  C   UNL     1      11.226  12.755  21.654  0.00  0.00    +0.032 A 
ATOM     20  C   UNL     1      10.496  13.468  23.864  0.00  0.00    +0.125 A 
ATOM     21  C   UNL     1      10.813  13.762  22.536  0.00  0.00    +0.040 A 
ATOM     25  H   UNL     1      11.037   9.288  24.444  0.00  0.00    +0.167 HD
ENDBRANCH   7  11
BRANCH  12  15
ATOM      2  F   UNL     1      19.463   7.583  21.250  0.00  0.00    -0.205 F 
ATOM     15  C   UNL     1      15.591   7.525  19.818  0.00  0.00    +0.037 A 
ATOM     18  C   UNL     1      16.415   6.413  19.644  0.00  0.00    +0.016 A 
ATOM     19  C   UNL     1      16.074   8.656  20.475  0.00  0.00    +0.016 A 
ATOM     22  C   UNL     1      17.723   6.433  20.128  0.00  0.00    +0.039 A 
ATOM     23  C   UNL     1      17.382   8.675  20.960  0.00  0.00    +0.039 A 
ATOM     24  C   UNL     1      18.206   7.564  20.786  0.00  0.00    +0.123 A 
ENDBRANCH  12  15
TORSDOF 2
ENDMDL
MODEL 2
REMARK VINA RESULT:      -7.4     26.998     28.171
REMARK  Name = 45784016
REMARK  2 active torsions:
REMARK  status: ('A' for Active; 'I' for Inactive)
REMARK    1  A    between atoms: C_7  and  C_11
REMARK    2  A    between atoms: C_12  and  C_15
REMARK                            x       y       z     vdW  Elec       q    Type
REMARK                         _______ _______ _______ _____ _____    ______ ____
ROOT
ATOM      3  O   UNL     1      -4.180 -12.956  11.121  0.00  0.00    -0.270 OA
ATOM      4  N   UNL     1      -3.071 -11.661  12.699  0.00  0.00    -0.297 N 
ATOM      7  C   UNL     1      -2.218 -10.763  14.731  0.00  0.00    +0.074 C 
ATOM      8  C   UNL     1      -1.596 -12.145  14.476  0.00  0.00    +0.032 C 
ATOM      9  C   UNL     1      -2.738 -10.386  13.336  0.00  0.00    +0.119 C 
ATOM     10  C   UNL     1      -2.526 -12.781  13.451  0.00  0.00    +0.109 C 
ATOM     12  C   UNL     1      -3.864 -11.859  11.580  0.00  0.00    +0.247 C 
ENDROOT
BRANCH   7  11
ATOM      1  F   UNL     1      -5.942 -11.812  20.888  0.00  0.00    -0.205 F 
ATOM      5  N   UNL     1      -2.973 -11.422  17.040  0.00  0.00    -0.341 N 
ATOM      6  N   UNL     1      -4.456 -10.297  15.825  0.00  0.00    -0.232 NA
ATOM     11  C   UNL     1      -3.245 -10.808  15.848  0.00  0.00    +0.113 A 
ATOM     13  C   UNL     1      -4.082 -11.298  17.837  0.00  0.00    +0.069 A 
ATOM     14  C   UNL     1      -4.993 -10.593  17.057  0.00  0.00    +0.089 A 
ATOM     16  C   UNL     1      -4.358 -11.730  19.135  0.00  0.00    +0.066 A 
ATOM     17  C   UNL     1      -6.259 -10.291  17.586  0.00  0.00    +0.032 A 
ATOM     20  C   UNL     1      -5.622 -11.422  19.646  0.00  0.00    +0.125 A 
ATOM     21  C   UNL     1      -6.558 -10.715  18.887  0.00  0.00    +0.040 A 
ATOM     25  H   UNL     1      -2.110 -11.886  17.290  0.00  0.00    +0.167 HD
ENDBRANCH   7  11
BRANCH  12  15
ATOM      2  F   UNL     1      -5.839  -7.313   8.973  0.00  0.00    -0.205 F 
ATOM     15  C   UNL     1      -4.383 -10.665  10.894  0.00  0.00    +0.037 A 
ATOM     18  C   UNL     1      -5.669 -10.203  11.176  0.00  0.00    +0.016 A 
ATOM     19  C   UNL     1      -3.589  -9.995   9.963  0.00  0.00    +0.016 A 
ATOM     22  C   UNL     1      -6.161  -9.071  10.527  0.00  0.00    +0.039 A 
ATOM     23  C   UNL     1      -4.082  -8.864   9.314  0.00  0.00    +0.039 A 
ATOM     24  C   UNL     1      -5.367  -8.402   9.595  0.00  0.00    +0.123 A 
ENDBRANCH  12  15
TORSDOF 2
ENDMDL
MODEL 3
REMARK VINA RESULT:      -7.0     27.374     28.537
REMARK  Name = 45784016
REMARK  2 active torsions:
REMARK  status: ('A' for Active; 'I' for Inactive)
REMARK    1  A    between atoms: C_7  and  C_11
REMARK    2  A    between atoms: C_12  and  C_15
REMARK                            x       y       z     vdW  Elec       q    Type
REMARK                         _______ _______ _______ _____ _____    ______ ____
ROOT
ATOM      3  O   UNL     1      -4.411 -13.814  14.154  0.00  0.00    -0.270 OA
ATOM      4  N   UNL     1      -4.302 -12.116  15.736  0.00  0.00    -0.297 N 
ATOM      7  C   UNL     1      -4.790 -10.607  17.510  0.00  0.00    +0.074 C 
ATOM      8  C   UNL     1      -4.617 -12.027  18.072  0.00  0.00    +0.032 C 
ATOM      9  C   UNL     1      -4.106 -10.723  16.140  0.00  0.00    +0.119 C 
ATOM     10  C   UNL     1      -4.768 -12.924  16.852  0.00  0.00    +0.109 C 
ATOM     12  C   UNL     1      -4.163 -12.650  14.464  0.00  0.00    +0.247 C 
ENDROOT
BRANCH   7  11
ATOM      1  F   UNL     1     -11.891  -9.646  18.746  0.00  0.00    -0.205 F 
ATOM      5  N   UNL     1      -7.145 -10.712  18.388  0.00  0.00    -0.341 N 
ATOM      6  N   UNL     1      -6.804  -9.293  16.711  0.00  0.00    -0.232 NA
ATOM     11  C   UNL     1      -6.245 -10.178  17.507  0.00  0.00    +0.113 A 
ATOM     13  C   UNL     1      -8.364 -10.133  18.143  0.00  0.00    +0.069 A 
ATOM     14  C   UNL     1      -8.125  -9.252  17.093  0.00  0.00    +0.089 A 
ATOM     16  C   UNL     1      -9.618 -10.300  18.733  0.00  0.00    +0.066 A 
ATOM     17  C   UNL     1      -9.186  -8.482  16.589  0.00  0.00    +0.032 A 
ATOM     20  C   UNL     1     -10.664  -9.526  18.218  0.00  0.00    +0.125 A 
ATOM     21  C   UNL     1     -10.455  -8.633  17.165  0.00  0.00    +0.040 A 
ATOM     25  H   UNL     1      -6.950 -11.410  19.093  0.00  0.00    +0.167 HD
ENDBRANCH   7  11
BRANCH  12  15
ATOM      2  F   UNL     1      -2.398  -9.227  10.398  0.00  0.00    -0.205 F 
ATOM     15  C   UNL     1      -3.700 -11.750  13.396  0.00  0.00    +0.037 A 
ATOM     18  C   UNL     1      -2.338 -11.649  13.112  0.00  0.00    +0.016 A 
ATOM     19  C   UNL     1      -4.622 -10.999  12.667  0.00  0.00    +0.016 A 
ATOM     22  C   UNL     1      -1.898 -10.796  12.099  0.00  0.00    +0.039 A 
ATOM     23  C   UNL     1      -4.182 -10.146  11.656  0.00  0.00    +0.039 A 
ATOM     24  C   UNL     1      -2.820 -10.045  11.371  0.00  0.00    +0.123 A 
ENDBRANCH  12  15
TORSDOF 2
ENDMDL
MODEL 4
REMARK VINA RESULT:      -6.9     16.260     18.220
REMARK  Name = 45784016
REMARK  2 active torsions:
REMARK  status: ('A' for Active; 'I' for Inactive)
REMARK    1  A    between atoms: C_7  and  C_11
REMARK    2  A    between atoms: C_12  and  C_15
REMARK                            x       y       z     vdW  Elec       q    Type
REMARK                         _______ _______ _______ _____ _____    ______ ____
ROOT
ATOM      3  O   UNL     1      15.009   6.735   2.894  0.00  0.00    -0.270 OA
ATOM      4  N   UNL     1      12.749   7.229   3.114  0.00  0.00    -0.297 N 
ATOM      7  C   UNL     1      10.585   7.704   3.981  0.00  0.00    +0.074 C 
ATOM      8  C   UNL     1      11.535   8.869   4.299  0.00  0.00    +0.032 C 
ATOM      9  C   UNL     1      11.331   6.985   2.847  0.00  0.00    +0.119 C 
ATOM     10  C   UNL     1      12.923   8.269   4.116  0.00  0.00    +0.109 C 
ATOM     12  C   UNL     1      13.834   6.546   2.586  0.00  0.00    +0.247 C 
ENDROOT
BRANCH   7  11
ATOM      1  F   UNL     1       8.486   5.201  10.478  0.00  0.00    -0.205 F 
ATOM      5  N   UNL     1       9.669   7.439   6.310  0.00  0.00    -0.341 N 
ATOM      6  N   UNL     1      10.528   5.603   5.397  0.00  0.00    -0.232 NA
ATOM     11  C   UNL     1      10.274   6.881   5.218  0.00  0.00    +0.113 A 
ATOM     13  C   UNL     1       9.523   6.457   7.256  0.00  0.00    +0.069 A 
ATOM     14  C   UNL     1      10.066   5.321   6.663  0.00  0.00    +0.089 A 
ATOM     16  C   UNL     1       8.978   6.464   8.541  0.00  0.00    +0.066 A 
ATOM     17  C   UNL     1      10.075   4.112   7.378  0.00  0.00    +0.032 A 
ATOM     20  C   UNL     1       8.996   5.253   9.239  0.00  0.00    +0.125 A 
ATOM     21  C   UNL     1       9.534   4.096   8.670  0.00  0.00    +0.040 A 
ATOM     25  H   UNL     1       9.381   8.404   6.406  0.00  0.00    +0.167 HD
ENDBRANCH   7  11
BRANCH  12  15
ATOM      2  F   UNL     1      12.780   2.563  -1.208  0.00  0.00    -0.205 F 
ATOM     15  C   UNL     1      13.557   5.499   1.589  0.00  0.00    +0.037 A 
ATOM     18  C   UNL     1      13.403   4.174   1.994  0.00  0.00    +0.016 A 
ATOM     19  C   UNL     1      13.450   5.833   0.239  0.00  0.00    +0.016 A 
ATOM     22  C   UNL     1      13.140   3.182   1.049  0.00  0.00    +0.039 A 
ATOM     23  C   UNL     1      13.189   4.841  -0.706  0.00  0.00    +0.039 A 
ATOM     24  C   UNL     1      13.033   3.516  -0.301  0.00  0.00    +0.123 A 
ENDBRANCH  12  15
TORSDOF 2
ENDMDL
MODEL 5
REMARK VINA RESULT:      -6.8     16.026     18.985
REMARK  Name = 45784016
REMARK  2 active torsions:
REMARK  status: ('A' for Active; 'I' for Inactive)
REMARK    1  A    between atoms: C_7  and  C_11
REMARK    2  A    between atoms: C_12  and  C_15
REMARK                            x       y       z     vdW  Elec       q    Type
REMARK                         _______ _______ _______ _____ _____    ______ ____
ROOT
ATOM      3  O   UNL     1       8.012   7.359   5.173  0.00  0.00    -0.270 OA
ATOM      4  N   UNL     1      10.312   7.670   5.072  0.00  0.00    -0.297 N 
ATOM      7  C   UNL     1      12.568   7.837   4.334  0.00  0.00    +0.074 C 
ATOM      8  C   UNL     1      11.735   8.968   3.710  0.00  0.00    +0.032 C 
ATOM      9  C   UNL     1      11.683   7.403   5.512  0.00  0.00    +0.119 C 
ATOM     10  C   UNL     1      10.297   8.497   3.875  0.00  0.00    +0.109 C 
ATOM     12  C   UNL     1       9.142   7.168   5.620  0.00  0.00    +0.247 C 
ENDROOT
BRANCH   7  11
ATOM      1  F   UNL     1      15.640   3.578  -0.697  0.00  0.00    -0.205 F 
ATOM      5  N   UNL     1      14.106   6.783   2.644  0.00  0.00    -0.341 N 
ATOM      6  N   UNL     1      12.166   5.746   2.961  0.00  0.00    -0.232 NA
ATOM     11  C   UNL     1      12.914   6.767   3.315  0.00  0.00    +0.113 A 
ATOM     13  C   UNL     1      14.127   5.701   1.801  0.00  0.00    +0.069 A 
ATOM     14  C   UNL     1      12.905   5.070   2.017  0.00  0.00    +0.089 A 
ATOM     16  C   UNL     1      15.081   5.235   0.895  0.00  0.00    +0.066 A 
ATOM     17  C   UNL     1      12.600   3.903   1.298  0.00  0.00    +0.032 A 
ATOM     20  C   UNL     1      14.760   4.072   0.187  0.00  0.00    +0.125 A 
ATOM     21  C   UNL     1      13.543   3.416   0.382  0.00  0.00    +0.040 A 
ATOM     25  H   UNL     1      14.841   7.470   2.747  0.00  0.00    +0.167 HD
ENDBRANCH   7  11
BRANCH  12  15
ATOM      2  F   UNL     1       9.592   3.971  10.196  0.00  0.00    -0.205 F 
ATOM     15  C   UNL     1       9.259   6.329   6.823  0.00  0.00    +0.037 A 
ATOM     18  C   UNL     1       9.681   5.004   6.709  0.00  0.00    +0.016 A 
ATOM     19  C   UNL     1       8.950   6.857   8.076  0.00  0.00    +0.016 A 
ATOM     22  C   UNL     1       9.793   4.207   7.849  0.00  0.00    +0.039 A 
ATOM     23  C   UNL     1       9.061   6.060   9.215  0.00  0.00    +0.039 A 
ATOM     24  C   UNL     1       9.483   4.736   9.102  0.00  0.00    +0.123 A 
ENDBRANCH  12  15
TORSDOF 2
ENDMDL
MODEL 6
REMARK VINA RESULT:      -6.7     28.208     31.126
REMARK  Name = 45784016
REMARK  2 active torsions:
REMARK  status: ('A' for Active; 'I' for Inactive)
REMARK    1  A    between atoms: C_7  and  C_11
REMARK    2  A    between atoms: C_12  and  C_15
REMARK                            x       y       z     vdW  Elec       q    Type
REMARK                         _______ _______ _______ _____ _____    ______ ____
ROOT
ATOM      3  O   UNL     1     -12.433 -11.663  16.334  0.00  0.00    -0.270 OA
ATOM      4  N   UNL     1     -11.036  -9.902  16.923  0.00  0.00    -0.297 N 
ATOM      7  C   UNL     1      -9.165  -8.456  17.189  0.00  0.00    +0.074 C 
ATOM      8  C   UNL     1      -9.601  -8.471  15.715  0.00  0.00    +0.032 C 
ATOM      9  C   UNL     1     -10.414  -9.002  17.895  0.00  0.00    +0.119 C 
ATOM     10  C   UNL     1     -10.458  -9.724  15.599  0.00  0.00    +0.109 C 
ATOM     12  C   UNL     1     -11.991 -10.876  17.170  0.00  0.00    +0.247 C 
ENDROOT
BRANCH   7  11
ATOM      1  F   UNL     1      -3.610 -12.408  19.719  0.00  0.00    -0.205 F 
ATOM      5  N   UNL     1      -7.598  -9.838  18.591  0.00  0.00    -0.341 N 
ATOM      6  N   UNL     1      -6.911  -9.404  16.522  0.00  0.00    -0.232 NA
ATOM     11  C   UNL     1      -7.875  -9.228  17.399  0.00  0.00    +0.113 A 
ATOM     13  C   UNL     1      -6.375 -10.447  18.475  0.00  0.00    +0.069 A 
ATOM     14  C   UNL     1      -5.967 -10.162  17.176  0.00  0.00    +0.089 A 
ATOM     16  C   UNL     1      -5.613 -11.201  19.370  0.00  0.00    +0.066 A 
ATOM     17  C   UNL     1      -4.730 -10.650  16.723  0.00  0.00    +0.032 A 
ATOM     20  C   UNL     1      -4.384 -11.678  18.903  0.00  0.00    +0.125 A 
ATOM     21  C   UNL     1      -3.947 -11.409  17.603  0.00  0.00    +0.040 A 
ATOM     25  H   UNL     1      -8.187  -9.839  19.413  0.00  0.00    +0.167 HD
ENDBRANCH   7  11
BRANCH  12  15
ATOM      2  F   UNL     1     -13.950 -11.313  22.398  0.00  0.00    -0.205 F 
ATOM     15  C   UNL     1     -12.505 -10.991  18.544  0.00  0.00    +0.037 A 
ATOM     18  C   UNL     1     -13.520 -10.140  18.981  0.00  0.00    +0.016 A 
ATOM     19  C   UNL     1     -11.978 -11.951  19.408  0.00  0.00    +0.016 A 
ATOM     22  C   UNL     1     -14.008 -10.249  20.284  0.00  0.00    +0.039 A 
ATOM     23  C   UNL     1     -12.466 -12.059  20.710  0.00  0.00    +0.039 A 
ATOM     24  C   UNL     1     -13.481 -11.208  21.148  0.00  0.00    +0.123 A 
ENDBRANCH  12  15
TORSDOF 2
ENDMDL
MODEL 7
REMARK VINA RESULT:      -6.6     27.398     28.698
REMARK  Name = 45784016
REMARK  2 active torsions:
REMARK  status: ('A' for Active; 'I' for Inactive)
REMARK    1  A    between atoms: C_7  and  C_11
REMARK    2  A    between atoms: C_12  and  C_15
REMARK                            x       y       z     vdW  Elec       q    Type
REMARK                         _______ _______ _______ _____ _____    ______ ____
ROOT
ATOM      3  O   UNL     1      -5.100 -13.034  10.292  0.00  0.00    -0.270 OA
ATOM      4  N   UNL     1      -3.699 -11.694  11.573  0.00  0.00    -0.297 N 
ATOM      7  C   UNL     1      -2.448 -10.742  13.360  0.00  0.00    +0.074 C 
ATOM      8  C   UNL     1      -1.877 -12.125  13.009  0.00  0.00    +0.032 C 
ATOM      9  C   UNL     1      -3.255 -10.401  12.098  0.00  0.00    +0.119 C 
ATOM     10  C   UNL     1      -2.994 -12.791  12.217  0.00  0.00    +0.109 C 
ATOM     12  C   UNL     1      -4.708 -11.924  10.651  0.00  0.00    +0.247 C 
ENDROOT
BRANCH   7  11
ATOM      1  F   UNL     1      -7.273 -10.040  18.755  0.00  0.00    -0.205 F 
ATOM      5  N   UNL     1      -4.455 -10.199  14.778  0.00  0.00    -0.341 N 
ATOM      6  N   UNL     1      -2.821 -11.305  15.802  0.00  0.00    -0.232 NA
ATOM     11  C   UNL     1      -3.216 -10.768  14.669  0.00  0.00    +0.113 A 
ATOM     13  C   UNL     1      -4.887 -10.382  16.067  0.00  0.00    +0.069 A 
ATOM     14  C   UNL     1      -3.850 -11.074  16.685  0.00  0.00    +0.089 A 
ATOM     16  C   UNL     1      -6.061 -10.011  16.725  0.00  0.00    +0.066 A 
ATOM     17  C   UNL     1      -3.974 -11.427  18.039  0.00  0.00    +0.032 A 
ATOM     20  C   UNL     1      -6.167 -10.370  18.072  0.00  0.00    +0.125 A 
ATOM     21  C   UNL     1      -5.144 -11.066  18.721  0.00  0.00    +0.040 A 
ATOM     25  H   UNL     1      -4.963  -9.726  14.042  0.00  0.00    +0.167 HD
ENDBRANCH   7  11
BRANCH  12  15
ATOM      2  F   UNL     1      -7.245  -7.456   8.423  0.00  0.00    -0.205 F 
ATOM     15  C   UNL     1      -5.375 -10.751  10.065  0.00  0.00    +0.037 A 
ATOM     18  C   UNL     1      -6.461 -10.168  10.718  0.00  0.00    +0.016 A 
ATOM     19  C   UNL     1      -4.921 -10.221   8.857  0.00  0.00    +0.016 A 
ATOM     22  C   UNL     1      -7.093  -9.055  10.163  0.00  0.00    +0.039 A 
ATOM     23  C   UNL     1      -5.554  -9.109   8.302  0.00  0.00    +0.039 A 
ATOM     24  C   UNL     1      -6.639  -8.526   8.955  0.00  0.00    +0.123 A 
ENDBRANCH  12  15
TORSDOF 2
ENDMDL
MODEL 8
REMARK VINA RESULT:      -6.5     26.573     28.729
REMARK  Name = 45784016
REMARK  2 active torsions:
REMARK  status: ('A' for Active; 'I' for Inactive)
REMARK    1  A    between atoms: C_7  and  C_11
REMARK    2  A    between atoms: C_12  and  C_15
REMARK                            x       y       z     vdW  Elec       q    Type
REMARK                         _______ _______ _______ _____ _____    ______ ____
ROOT
ATOM      3  O   UNL     1      -5.391 -13.830  16.017  0.00  0.00    -0.270 OA
ATOM      4  N   UNL     1      -5.837 -12.223  17.635  0.00  0.00    -0.297 N 
ATOM      7  C   UNL     1      -6.918 -10.714  19.124  0.00  0.00    +0.074 C 
ATOM      8  C   UNL     1      -7.213 -12.160  19.551  0.00  0.00    +0.032 C 
ATOM      9  C   UNL     1      -5.685 -10.892  18.226  0.00  0.00    +0.119 C 
ATOM     10  C   UNL     1      -6.875 -12.983  18.315  0.00  0.00    +0.109 C 
ATOM     12  C   UNL     1      -5.178 -12.730  16.526  0.00  0.00    +0.247 C 
ENDROOT
BRANCH   7  11
ATOM      1  F   UNL     1     -11.587  -6.612  15.349  0.00  0.00    -0.205 F 
ATOM      5  N   UNL     1      -8.000  -9.014  17.617  0.00  0.00    -0.341 N 
ATOM      6  N   UNL     1      -9.391 -10.385  18.678  0.00  0.00    -0.232 NA
ATOM     11  C   UNL     1      -8.131 -10.059  18.489  0.00  0.00    +0.113 A 
ATOM     13  C   UNL     1      -9.258  -8.641  17.218  0.00  0.00    +0.069 A 
ATOM     14  C   UNL     1     -10.108  -9.511  17.894  0.00  0.00    +0.089 A 
ATOM     16  C   UNL     1      -9.711  -7.647  16.349  0.00  0.00    +0.066 A 
ATOM     17  C   UNL     1     -11.495  -9.399  17.703  0.00  0.00    +0.032 A 
ATOM     20  C   UNL     1     -11.095  -7.549  16.172  0.00  0.00    +0.125 A 
ATOM     21  C   UNL     1     -11.974  -8.409  16.836  0.00  0.00    +0.040 A 
ATOM     25  H   UNL     1      -7.132  -8.589  17.320  0.00  0.00    +0.167 HD
ENDBRANCH   7  11
BRANCH  12  15
ATOM      2  F   UNL     1      -1.281  -9.501  14.129  0.00  0.00    -0.205 F 
ATOM     15  C   UNL     1      -4.155 -11.881  15.896  0.00  0.00    +0.037 A 
ATOM     18  C   UNL     1      -3.032 -11.487  16.624  0.00  0.00    +0.016 A 
ATOM     19  C   UNL     1      -4.307 -11.472  14.572  0.00  0.00    +0.016 A 
ATOM     22  C   UNL     1      -2.061 -10.683  16.027  0.00  0.00    +0.039 A 
ATOM     23  C   UNL     1      -3.336 -10.666  13.976  0.00  0.00    +0.039 A 
ATOM     24  C   UNL     1      -2.214 -10.272  14.703  0.00  0.00    +0.123 A 
ENDBRANCH  12  15
TORSDOF 2
ENDMDL
MODEL 9
REMARK VINA RESULT:      -6.5     27.218     28.900
REMARK  Name = 45784016
REMARK  2 active torsions:
REMARK  status: ('A' for Active; 'I' for Inactive)
REMARK    1  A    between atoms: C_7  and  C_11
REMARK    2  A    between atoms: C_12  and  C_15
REMARK                            x       y       z     vdW  Elec       q    Type
REMARK                         _______ _______ _______ _____ _____    ______ ____
ROOT
ATOM      3  O   UNL     1      -6.313 -13.426  15.715  0.00  0.00    -0.270 OA
ATOM      4  N   UNL     1      -6.682 -11.488  16.943  0.00  0.00    -0.297 N 
ATOM      7  C   UNL     1      -7.681  -9.604  17.999  0.00  0.00    +0.074 C 
ATOM      8  C   UNL     1      -8.183 -10.895  18.664  0.00  0.00    +0.032 C 
ATOM      9  C   UNL     1      -6.413 -10.089  17.280  0.00  0.00    +0.119 C 
ATOM     10  C   UNL     1      -7.855 -11.981  17.648  0.00  0.00    +0.109 C 
ATOM     12  C   UNL     1      -6.007 -12.275  16.023  0.00  0.00    +0.247 C 
ENDROOT
BRANCH   7  11
ATOM      1  F   UNL     1     -12.897  -5.452  15.097  0.00  0.00    -0.205 F 
ATOM      5  N   UNL     1      -9.409  -7.836  17.532  0.00  0.00    -0.341 N 
ATOM      6  N   UNL     1      -9.165  -9.385  15.957  0.00  0.00    -0.232 NA
ATOM     11  C   UNL     1      -8.751  -8.966  17.133  0.00  0.00    +0.113 A 
ATOM     13  C   UNL     1     -10.307  -7.504  16.550  0.00  0.00    +0.069 A 
ATOM     14  C   UNL     1     -10.135  -8.486  15.578  0.00  0.00    +0.089 A 
ATOM     16  C   UNL     1     -11.227  -6.461  16.431  0.00  0.00    +0.066 A 
ATOM     17  C   UNL     1     -10.917  -8.440  14.412  0.00  0.00    +0.032 A 
ATOM     20  C   UNL     1     -11.997  -6.432  15.264  0.00  0.00    +0.125 A 
ATOM     21  C   UNL     1     -11.847  -7.402  14.271  0.00  0.00    +0.040 A 
ATOM     25  H   UNL     1      -9.264  -7.334  18.398  0.00  0.00    +0.167 HD
ENDBRANCH   7  11
BRANCH  12  15
ATOM      2  F   UNL     1      -1.569 -10.021  13.455  0.00  0.00    -0.205 F 
ATOM     15  C   UNL     1      -4.841 -11.683  15.348  0.00  0.00    +0.037 A 
ATOM     18  C   UNL     1      -4.975 -11.146  14.068  0.00  0.00    +0.016 A 
ATOM     19  C   UNL     1      -3.602 -11.660  15.989  0.00  0.00    +0.016 A 
ATOM     22  C   UNL     1      -3.869 -10.584  13.428  0.00  0.00    +0.039 A 
ATOM     23  C   UNL     1      -2.497 -11.099  15.349  0.00  0.00    +0.039 A 
ATOM     24  C   UNL     1      -2.630 -10.561  14.069  0.00  0.00    +0.123 A 
ENDBRANCH  12  15
TORSDOF 2
ENDMDL
MODEL 10
REMARK VINA RESULT:      -6.5     14.505     17.016
REMARK  Name = 45784016
REMARK  2 active torsions:
REMARK  status: ('A' for Active; 'I' for Inactive)
REMARK    1  A    between atoms: C_7  and  C_11
REMARK    2  A    between atoms: C_12  and  C_15
REMARK                            x       y       z     vdW  Elec       q    Type
REMARK                         _______ _______ _______ _____ _____    ______ ____
ROOT
ATOM      3  O   UNL     1      18.511  -7.272  29.288  0.00  0.00    -0.270 OA
ATOM      4  N   UNL     1      17.647  -7.402  27.135  0.00  0.00    -0.297 N 
ATOM      7  C   UNL     1      17.193  -7.046  24.826  0.00  0.00    +0.074 C 
ATOM      8  C   UNL     1      18.606  -7.629  24.991  0.00  0.00    +0.032 C 
ATOM      9  C   UNL     1      16.544  -7.400  26.172  0.00  0.00    +0.119 C 
ATOM     10  C   UNL     1      18.934  -7.382  26.457  0.00  0.00    +0.109 C 
ATOM     12  C   UNL     1      17.555  -7.344  28.517  0.00  0.00    +0.247 C 
ENDROOT
BRANCH   7  11
ATOM      1  F   UNL     1      16.842   0.214  24.625  0.00  0.00    -0.205 F 
ATOM      5  N   UNL     1      16.873  -4.608  25.356  0.00  0.00    -0.341 N 
ATOM      6  N   UNL     1      17.597  -5.061  23.304  0.00  0.00    -0.232 NA
ATOM     11  C   UNL     1      17.234  -5.574  24.458  0.00  0.00    +0.113 A 
ATOM     13  C   UNL     1      17.012  -3.390  24.739  0.00  0.00    +0.069 A 
ATOM     14  C   UNL     1      17.464  -3.700  23.460  0.00  0.00    +0.089 A 
ATOM     16  C   UNL     1      16.787  -2.084  25.177  0.00  0.00    +0.066 A 
ATOM     17  C   UNL     1      17.715  -2.659  22.551  0.00  0.00    +0.032 A 
ATOM     20  C   UNL     1      17.041  -1.061  24.259  0.00  0.00    +0.125 A 
ATOM     21  C   UNL     1      17.496  -1.340  22.968  0.00  0.00    +0.040 A 
ATOM     25  H   UNL     1      16.557  -4.760  26.305  0.00  0.00    +0.167 HD
ENDBRANCH   7  11
BRANCH  12  15
ATOM      2  F   UNL     1      12.432  -7.381  30.777  0.00  0.00    -0.205 F 
ATOM     15  C   UNL     1      16.209  -7.354  29.110  0.00  0.00    +0.037 A 
ATOM     18  C   UNL     1      15.583  -8.566  29.401  0.00  0.00    +0.016 A 
ATOM     19  C   UNL     1      15.558  -6.150  29.383  0.00  0.00    +0.016 A 
ATOM     22  C   UNL     1      14.307  -8.575  29.964  0.00  0.00    +0.039 A 
ATOM     23  C   UNL     1      14.282  -6.160  29.945  0.00  0.00    +0.039 A 
ATOM     24  C   UNL     1      13.657  -7.372  30.235  0.00  0.00    +0.123 A 
ENDBRANCH  12  15
TORSDOF 2
ENDMDL
