MODEL 1
REMARK VINA RESULT:      -7.4      0.000      0.000
REMARK  Name = 11882024
REMARK  9 active torsions:
REMARK  status: ('A' for Active; 'I' for Inactive)
REMARK    1  A    between atoms: N_8  and  C_14
REMARK    2  A    between atoms: N_9  and  C_20
REMARK    3  A    between atoms: N_10  and  C_30
REMARK    4  A    between atoms: N_11  and  C_33
REMARK    5  A    between atoms: C_15  and  C_18
REMARK    6  A    between atoms: C_19  and  C_21
REMARK    7  A    between atoms: C_20  and  C_23
REMARK    8  A    between atoms: C_20  and  C_26
REMARK    9  A    between atoms: C_23  and  C_24
REMARK                            x       y       z     vdW  Elec       q    Type
REMARK                         _______ _______ _______ _____ _____    ______ ____
ROOT
ATOM      4  O   UNL     1      -6.389 -10.339  17.174  0.00  0.00    -0.268 OA
ATOM      7  N   UNL     1      -7.393 -10.879  15.169  0.00  0.00    -0.283 N 
ATOM     14  C   UNL     1      -7.972 -11.517  12.950  0.00  0.00    +0.094 C 
ATOM     15  C   UNL     1      -6.286 -11.686  14.677  0.00  0.00    +0.164 C 
ATOM     16  C   UNL     1      -6.834 -12.413  13.450  0.00  0.00    +0.056 C 
ATOM     17  C   UNL     1      -8.516 -10.885  14.227  0.00  0.00    +0.131 C 
ATOM     19  C   UNL     1      -7.378 -10.300  16.441  0.00  0.00    +0.264 C 
ENDROOT
BRANCH  14   8
ATOM      5  O   UNL     1      -9.242 -10.773  10.494  0.00  0.00    -0.252 OA
ATOM      8  N   UNL     1      -7.518 -10.522  12.014  0.00  0.00    -0.295 N 
ATOM     11  N   UNL     1      -7.526  -9.213  10.123  0.00  0.00    -0.267 N 
ATOM     22  C   UNL     1      -8.200 -10.215  10.828  0.00  0.00    +0.304 C 
ATOM     43  H   UNL     1      -6.627 -10.065  12.187  0.00  0.00    +0.151 HD
ATOM     45  H   UNL     1      -6.671  -8.856  10.539  0.00  0.00    +0.156 HD
BRANCH  11  33
ATOM      1  F   UNL     1      -7.446 -10.665   7.746  0.00  0.00    -0.203 F 
ATOM      2  F   UNL     1      -8.949  -6.915   5.284  0.00  0.00    -0.205 F 
ATOM     33  C   UNL     1      -7.888  -8.629   8.887  0.00  0.00    +0.070 A 
ATOM     38  C   UNL     1      -7.837  -9.383   7.715  0.00  0.00    +0.147 A 
ATOM     39  C   UNL     1      -8.297  -7.297   8.843  0.00  0.00    +0.029 A 
ATOM     40  C   UNL     1      -8.196  -8.804   6.498  0.00  0.00    +0.078 A 
ATOM     41  C   UNL     1      -8.654  -6.717   7.625  0.00  0.00    +0.040 A 
ATOM     42  C   UNL     1      -8.604  -7.471   6.453  0.00  0.00    +0.126 A 
ENDBRANCH  11  33
ENDBRANCH  14   8
BRANCH  19  21
ATOM     10  N   UNL     1      -9.601 -10.181  17.585  0.00  0.00    -0.346 N 
ATOM     21  C   UNL     1      -8.592  -9.610  16.855  0.00  0.00    +0.104 A 
ATOM     25  C   UNL     1      -8.944  -8.303  16.599  0.00  0.00    +0.032 A 
ATOM     28  C   UNL     1     -10.591  -9.258  17.801  0.00  0.00    +0.086 A 
ATOM     29  C   UNL     1     -10.209  -8.080  17.198  0.00  0.00    +0.020 A 
ATOM     30  C   UNL     1      -9.632 -11.545  18.066  0.00  0.00    +0.149 C 
ENDBRANCH  19  21
BRANCH  15  18
ATOM      3  O   UNL     1      -5.334  -9.690  13.778  0.00  0.00    -0.274 OA
ATOM      9  N   UNL     1      -3.918 -11.330  14.630  0.00  0.00    -0.302 N 
ATOM     18  C   UNL     1      -5.149 -10.780  14.313  0.00  0.00    +0.234 C 
ATOM     44  H   UNL     1      -3.890 -12.202  15.150  0.00  0.00    +0.150 HD
BRANCH   9  20
ATOM     20  C   UNL     1      -2.663 -10.667  14.360  0.00  0.00    +0.163 C 
BRANCH  20  26
ATOM      6  O   UNL     1      -0.825 -10.020  15.813  0.00  0.00    -0.274 OA
ATOM     13  N   UNL     1      -2.590 -11.175  16.722  0.00  0.00    -0.328 N 
ATOM     26  C   UNL     1      -1.907 -10.587  15.678  0.00  0.00    +0.231 C 
ATOM     47  H   UNL     1      -3.495 -11.618  16.601  0.00  0.00    +0.145 HD
ATOM     48  H   UNL     1      -2.203 -11.180  17.660  0.00  0.00    +0.145 HD
ENDBRANCH  20  26
BRANCH  20  23
ATOM     23  C   UNL     1      -1.828 -11.407  13.307  0.00  0.00    +0.069 C 
BRANCH  23  24
ATOM     12  N   UNL     1      -3.736 -13.125  10.675  0.00  0.00    -0.360 N 
ATOM     24  C   UNL     1      -2.636 -11.847  12.119  0.00  0.00    -0.020 A 
ATOM     27  C   UNL     1      -3.140 -11.013  11.082  0.00  0.00    +0.003 A 
ATOM     31  C   UNL     1      -3.018 -13.139  11.841  0.00  0.00    +0.087 A 
ATOM     32  C   UNL     1      -3.826 -11.840  10.189  0.00  0.00    +0.047 A 
ATOM     34  C   UNL     1      -3.079  -9.631  10.815  0.00  0.00    +0.010 A 
ATOM     35  C   UNL     1      -4.458 -11.351   9.040  0.00  0.00    +0.026 A 
ATOM     36  C   UNL     1      -3.704  -9.128   9.669  0.00  0.00    +0.001 A 
ATOM     37  C   UNL     1      -4.383  -9.976   8.796  0.00  0.00    +0.002 A 
ATOM     46  H   UNL     1      -4.141 -13.939  10.235  0.00  0.00    +0.165 HD
ENDBRANCH  23  24
ENDBRANCH  20  23
ENDBRANCH   9  20
ENDBRANCH  15  18
TORSDOF 8
ENDMDL
MODEL 2
REMARK VINA RESULT:      -7.2     23.905     26.685
REMARK  Name = 11882024
REMARK  9 active torsions:
REMARK  status: ('A' for Active; 'I' for Inactive)
REMARK    1  A    between atoms: N_8  and  C_14
REMARK    2  A    between atoms: N_9  and  C_20
REMARK    3  A    between atoms: N_10  and  C_30
REMARK    4  A    between atoms: N_11  and  C_33
REMARK    5  A    between atoms: C_15  and  C_18
REMARK    6  A    between atoms: C_19  and  C_21
REMARK    7  A    between atoms: C_20  and  C_23
REMARK    8  A    between atoms: C_20  and  C_26
REMARK    9  A    between atoms: C_23  and  C_24
REMARK                            x       y       z     vdW  Elec       q    Type
REMARK                         _______ _______ _______ _____ _____    ______ ____
ROOT
ATOM      4  O   UNL     1       8.834   8.113   7.060  0.00  0.00    -0.268 OA
ATOM      7  N   UNL     1      11.028   7.623   6.542  0.00  0.00    -0.283 N 
ATOM     14  C   UNL     1      13.228   7.445   5.652  0.00  0.00    +0.094 C 
ATOM     15  C   UNL     1      11.281   8.868   5.833  0.00  0.00    +0.164 C 
ATOM     16  C   UNL     1      12.794   8.914   5.629  0.00  0.00    +0.056 C 
ATOM     17  C   UNL     1      12.235   6.794   6.608  0.00  0.00    +0.131 C 
ATOM     19  C   UNL     1       9.805   7.362   7.166  0.00  0.00    +0.264 C 
ENDROOT
BRANCH  14   8
ATOM      5  O   UNL     1      15.473   6.812   3.990  0.00  0.00    -0.252 OA
ATOM      8  N   UNL     1      13.188   6.839   4.347  0.00  0.00    -0.295 N 
ATOM     11  N   UNL     1      13.990   5.975   2.373  0.00  0.00    -0.267 N 
ATOM     22  C   UNL     1      14.337   6.560   3.594  0.00  0.00    +0.304 C 
ATOM     43  H   UNL     1      12.282   6.665   3.922  0.00  0.00    +0.151 HD
ATOM     45  H   UNL     1      12.999   5.835   2.197  0.00  0.00    +0.156 HD
BRANCH  11  33
ATOM      1  F   UNL     1      14.608   3.282   2.005  0.00  0.00    -0.203 F 
ATOM      2  F   UNL     1      17.379   4.316  -1.688  0.00  0.00    -0.205 F 
ATOM     33  C   UNL     1      14.855   5.549   1.338  0.00  0.00    +0.070 A 
ATOM     38  C   UNL     1      15.144   4.194   1.180  0.00  0.00    +0.147 A 
ATOM     39  C   UNL     1      15.418   6.488   0.475  0.00  0.00    +0.029 A 
ATOM     40  C   UNL     1      15.996   3.777   0.158  0.00  0.00    +0.078 A 
ATOM     41  C   UNL     1      16.272   6.072  -0.548  0.00  0.00    +0.040 A 
ATOM     42  C   UNL     1      16.561   4.717  -0.706  0.00  0.00    +0.126 A 
ENDBRANCH  11  33
ENDBRANCH  14   8
BRANCH  19  21
ATOM     10  N   UNL     1       9.648   4.873   7.388  0.00  0.00    -0.346 N 
ATOM     21  C   UNL     1       9.718   6.127   7.935  0.00  0.00    +0.104 A 
ATOM     25  C   UNL     1       9.690   5.992   9.305  0.00  0.00    +0.032 A 
ATOM     28  C   UNL     1       9.577   3.939   8.388  0.00  0.00    +0.086 A 
ATOM     29  C   UNL     1       9.601   4.607   9.592  0.00  0.00    +0.020 A 
ATOM     30  C   UNL     1       9.651   4.563   5.974  0.00  0.00    +0.149 C 
ENDBRANCH  19  21
BRANCH  15  18
ATOM      3  O   UNL     1      10.549   9.802   3.760  0.00  0.00    -0.274 OA
ATOM      9  N   UNL     1       9.902   7.635   4.312  0.00  0.00    -0.302 N 
ATOM     18  C   UNL     1      10.554   8.838   4.522  0.00  0.00    +0.234 C 
ATOM     44  H   UNL     1      10.047   6.876   4.971  0.00  0.00    +0.150 HD
BRANCH   9  20
ATOM     20  C   UNL     1       9.111   7.360   3.134  0.00  0.00    +0.163 C 
BRANCH  20  26
ATOM      6  O   UNL     1       7.672   8.980   2.033  0.00  0.00    -0.274 OA
ATOM     13  N   UNL     1       7.426   8.650   4.293  0.00  0.00    -0.328 N 
ATOM     26  C   UNL     1       8.021   8.420   3.070  0.00  0.00    +0.231 C 
ATOM     47  H   UNL     1       7.708   8.161   5.137  0.00  0.00    +0.145 HD
ATOM     48  H   UNL     1       6.674   9.323   4.387  0.00  0.00    +0.145 HD
ENDBRANCH  20  26
BRANCH  20  23
ATOM     23  C   UNL     1       9.953   7.378   1.852  0.00  0.00    +0.069 C 
BRANCH  23  24
ATOM     12  N   UNL     1      10.886   3.840   1.492  0.00  0.00    -0.360 N 
ATOM     24  C   UNL     1      10.463   6.019   1.463  0.00  0.00    -0.020 A 
ATOM     27  C   UNL     1      11.230   5.700   0.308  0.00  0.00    +0.003 A 
ATOM     31  C   UNL     1      10.268   4.855   2.171  0.00  0.00    +0.087 A 
ATOM     32  C   UNL     1      11.483   4.327   0.350  0.00  0.00    +0.047 A 
ATOM     34  C   UNL     1      11.736   6.449  -0.772  0.00  0.00    +0.010 A 
ATOM     35  C   UNL     1      12.217   3.663  -0.639  0.00  0.00    +0.026 A 
ATOM     36  C   UNL     1      12.474   5.800  -1.768  0.00  0.00    +0.001 A 
ATOM     37  C   UNL     1      12.709   4.428  -1.701  0.00  0.00    +0.002 A 
ATOM     46  H   UNL     1      10.903   2.874   1.785  0.00  0.00    +0.165 HD
ENDBRANCH  23  24
ENDBRANCH  20  23
ENDBRANCH   9  20
ENDBRANCH  15  18
TORSDOF 8
ENDMDL
MODEL 3
REMARK VINA RESULT:      -7.2     25.837     29.077
REMARK  Name = 11882024
REMARK  9 active torsions:
REMARK  status: ('A' for Active; 'I' for Inactive)
REMARK    1  A    between atoms: N_8  and  C_14
REMARK    2  A    between atoms: N_9  and  C_20
REMARK    3  A    between atoms: N_10  and  C_30
REMARK    4  A    between atoms: N_11  and  C_33
REMARK    5  A    between atoms: C_15  and  C_18
REMARK    6  A    between atoms: C_19  and  C_21
REMARK    7  A    between atoms: C_20  and  C_23
REMARK    8  A    between atoms: C_20  and  C_26
REMARK    9  A    between atoms: C_23  and  C_24
REMARK                            x       y       z     vdW  Elec       q    Type
REMARK                         _______ _______ _______ _____ _____    ______ ____
ROOT
ATOM      4  O   UNL     1      19.395 -11.834   3.351  0.00  0.00    -0.268 OA
ATOM      7  N   UNL     1      19.617 -10.807   1.298  0.00  0.00    -0.283 N 
ATOM     14  C   UNL     1      20.122  -9.428  -0.575  0.00  0.00    +0.094 C 
ATOM     15  C   UNL     1      20.848 -10.105   1.631  0.00  0.00    +0.164 C 
ATOM     16  C   UNL     1      21.370  -9.560   0.302  0.00  0.00    +0.056 C 
ATOM     17  C   UNL     1      19.224 -10.563  -0.093  0.00  0.00    +0.131 C 
ATOM     19  C   UNL     1      19.002 -11.686   2.193  0.00  0.00    +0.264 C 
ENDROOT
BRANCH  14   8
ATOM      5  O   UNL     1      19.634  -7.520  -2.655  0.00  0.00    -0.252 OA
ATOM      8  N   UNL     1      19.482  -8.146  -0.434  0.00  0.00    -0.295 N 
ATOM     11  N   UNL     1      18.638  -6.104  -1.069  0.00  0.00    -0.267 N 
ATOM     22  C   UNL     1      19.281  -7.266  -1.506  0.00  0.00    +0.304 C 
ATOM     43  H   UNL     1      19.223  -7.835   0.498  0.00  0.00    +0.151 HD
ATOM     45  H   UNL     1      18.413  -6.049  -0.079  0.00  0.00    +0.156 HD
BRANCH  11  33
ATOM      1  F   UNL     1      16.558  -6.238  -2.919  0.00  0.00    -0.203 F 
ATOM      2  F   UNL     1      17.161  -1.692  -4.081  0.00  0.00    -0.205 F 
ATOM     33  C   UNL     1      18.259  -4.980  -1.839  0.00  0.00    +0.070 A 
ATOM     38  C   UNL     1      17.214  -5.079  -2.757  0.00  0.00    +0.147 A 
ATOM     39  C   UNL     1      18.934  -3.770  -1.679  0.00  0.00    +0.029 A 
ATOM     40  C   UNL     1      16.843  -3.969  -3.514  0.00  0.00    +0.078 A 
ATOM     41  C   UNL     1      18.563  -2.659  -2.437  0.00  0.00    +0.040 A 
ATOM     42  C   UNL     1      17.518  -2.758  -3.355  0.00  0.00    +0.126 A 
ENDBRANCH  11  33
ENDBRANCH  14   8
BRANCH  19  21
ATOM     10  N   UNL     1      16.538 -12.033   1.915  0.00  0.00    -0.346 N 
ATOM     21  C   UNL     1      17.838 -12.409   1.698  0.00  0.00    +0.104 A 
ATOM     25  C   UNL     1      17.823 -13.563   0.947  0.00  0.00    +0.032 A 
ATOM     28  C   UNL     1      15.694 -12.929   1.313  0.00  0.00    +0.086 A 
ATOM     29  C   UNL     1      16.467 -13.893   0.703  0.00  0.00    +0.020 A 
ATOM     30  C   UNL     1      16.105 -10.870   2.659  0.00  0.00    +0.149 C 
ENDBRANCH  19  21
BRANCH  15  18
ATOM      3  O   UNL     1      19.409  -8.502   2.661  0.00  0.00    -0.274 OA
ATOM      9  N   UNL     1      21.636  -8.614   3.332  0.00  0.00    -0.302 N 
ATOM     18  C   UNL     1      20.531  -8.997   2.589  0.00  0.00    +0.234 C 
ATOM     44  H   UNL     1      22.493  -9.153   3.250  0.00  0.00    +0.150 HD
BRANCH   9  20
ATOM     20  C   UNL     1      21.600  -7.552   4.310  0.00  0.00    +0.163 C 
BRANCH  20  26
ATOM      6  O   UNL     1      22.376  -9.325   5.780  0.00  0.00    -0.274 OA
ATOM     13  N   UNL     1      22.117  -7.214   6.648  0.00  0.00    -0.328 N 
ATOM     26  C   UNL     1      22.054  -8.149   5.635  0.00  0.00    +0.231 C 
ATOM     47  H   UNL     1      21.872  -6.239   6.506  0.00  0.00    +0.145 HD
ATOM     48  H   UNL     1      22.419  -7.477   7.580  0.00  0.00    +0.145 HD
ENDBRANCH  20  26
BRANCH  20  23
ATOM     23  C   UNL     1      22.497  -6.371   3.919  0.00  0.00    +0.069 C 
BRANCH  23  24
ATOM     12  N   UNL     1      21.449  -4.855   0.738  0.00  0.00    -0.360 N 
ATOM     24  C   UNL     1      22.280  -5.910   2.506  0.00  0.00    -0.020 A 
ATOM     27  C   UNL     1      23.015  -6.319   1.359  0.00  0.00    +0.003 A 
ATOM     31  C   UNL     1      21.324  -5.010   2.093  0.00  0.00    +0.087 A 
ATOM     32  C   UNL     1      22.474  -5.643   0.262  0.00  0.00    +0.047 A 
ATOM     34  C   UNL     1      24.092  -7.202   1.146  0.00  0.00    +0.010 A 
ATOM     35  C   UNL     1      22.959  -5.806  -1.040  0.00  0.00    +0.026 A 
ATOM     36  C   UNL     1      24.586  -7.376  -0.152  0.00  0.00    +0.001 A 
ATOM     37  C   UNL     1      24.027  -6.688  -1.227  0.00  0.00    +0.002 A 
ATOM     46  H   UNL     1      20.874  -4.251   0.169  0.00  0.00    +0.165 HD
ENDBRANCH  23  24
ENDBRANCH  20  23
ENDBRANCH   9  20
ENDBRANCH  15  18
TORSDOF 8
ENDMDL
MODEL 4
REMARK VINA RESULT:      -7.1      2.378      3.667
REMARK  Name = 11882024
REMARK  9 active torsions:
REMARK  status: ('A' for Active; 'I' for Inactive)
REMARK    1  A    between atoms: N_8  and  C_14
REMARK    2  A    between atoms: N_9  and  C_20
REMARK    3  A    between atoms: N_10  and  C_30
REMARK    4  A    between atoms: N_11  and  C_33
REMARK    5  A    between atoms: C_15  and  C_18
REMARK    6  A    between atoms: C_19  and  C_21
REMARK    7  A    between atoms: C_20  and  C_23
REMARK    8  A    between atoms: C_20  and  C_26
REMARK    9  A    between atoms: C_23  and  C_24
REMARK                            x       y       z     vdW  Elec       q    Type
REMARK                         _______ _______ _______ _____ _____    ______ ____
ROOT
ATOM      4  O   UNL     1      -9.134  -8.617  17.880  0.00  0.00    -0.268 OA
ATOM      7  N   UNL     1      -9.347  -9.776  15.897  0.00  0.00    -0.283 N 
ATOM     14  C   UNL     1      -9.167 -11.206  14.003  0.00  0.00    +0.094 C 
ATOM     15  C   UNL     1      -8.576 -10.932  16.333  0.00  0.00    +0.164 C 
ATOM     16  C   UNL     1      -8.816 -11.999  15.266  0.00  0.00    +0.056 C 
ATOM     17  C   UNL     1      -9.874  -9.968  14.543  0.00  0.00    +0.131 C 
ATOM     19  C   UNL     1      -9.620  -8.704  16.751  0.00  0.00    +0.264 C 
ENDROOT
BRANCH  14   8
ATOM      5  O   UNL     1      -8.845 -11.498  11.172  0.00  0.00    -0.252 OA
ATOM      8  N   UNL     1      -8.002 -10.860  13.229  0.00  0.00    -0.295 N 
ATOM     11  N   UNL     1      -6.678 -10.612  11.366  0.00  0.00    -0.267 N 
ATOM     22  C   UNL     1      -7.924 -11.035  11.841  0.00  0.00    +0.304 C 
ATOM     43  H   UNL     1      -7.175 -10.535  13.720  0.00  0.00    +0.151 HD
ATOM     45  H   UNL     1      -6.023 -10.253  12.055  0.00  0.00    +0.156 HD
BRANCH  11  33
ATOM      1  F   UNL     1      -6.262  -8.251   9.946  0.00  0.00    -0.203 F 
ATOM      2  F   UNL     1      -4.834 -10.671   6.140  0.00  0.00    -0.205 F 
ATOM     33  C   UNL     1      -6.208 -10.624  10.032  0.00  0.00    +0.070 A 
ATOM     38  C   UNL     1      -6.010  -9.425   9.349  0.00  0.00    +0.147 A 
ATOM     39  C   UNL     1      -5.943 -11.840   9.402  0.00  0.00    +0.029 A 
ATOM     40  C   UNL     1      -5.546  -9.441   8.034  0.00  0.00    +0.078 A 
ATOM     41  C   UNL     1      -5.479 -11.855   8.086  0.00  0.00    +0.040 A 
ATOM     42  C   UNL     1      -5.281 -10.656   7.402  0.00  0.00    +0.126 A 
ENDBRANCH  11  33
ENDBRANCH  14   8
BRANCH  19  21
ATOM     10  N   UNL     1     -11.862  -7.688  16.296  0.00  0.00    -0.346 N 
ATOM     21  C   UNL     1     -10.494  -7.663  16.228  0.00  0.00    +0.104 A 
ATOM     25  C   UNL     1     -10.125  -6.500  15.589  0.00  0.00    +0.032 A 
ATOM     28  C   UNL     1     -12.373  -6.559  15.711  0.00  0.00    +0.086 A 
ATOM     29  C   UNL     1     -11.313  -5.801  15.261  0.00  0.00    +0.020 A 
ATOM     30  C   UNL     1     -12.662  -8.736  16.892  0.00  0.00    +0.149 C 
ENDBRANCH  19  21
BRANCH  15  18
ATOM      3  O   UNL     1      -6.667  -9.621  15.749  0.00  0.00    -0.274 OA
ATOM      9  N   UNL     1      -6.415 -11.366  17.269  0.00  0.00    -0.302 N 
ATOM     18  C   UNL     1      -7.129 -10.550  16.408  0.00  0.00    +0.234 C 
ATOM     44  H   UNL     1      -6.919 -12.048  17.829  0.00  0.00    +0.150 HD
BRANCH   9  20
ATOM     20  C   UNL     1      -4.997 -11.221  17.502  0.00  0.00    +0.163 C 
BRANCH  20  26
ATOM      6  O   UNL     1      -5.563 -11.419  19.858  0.00  0.00    -0.274 OA
ATOM     13  N   UNL     1      -3.510 -12.172  19.155  0.00  0.00    -0.328 N 
ATOM     26  C   UNL     1      -4.743 -11.585  18.958  0.00  0.00    +0.231 C 
ATOM     47  H   UNL     1      -2.852 -12.325  18.397  0.00  0.00    +0.145 HD
ATOM     48  H   UNL     1      -3.220 -12.476  20.078  0.00  0.00    +0.145 HD
ENDBRANCH  20  26
BRANCH  20  23
ATOM     23  C   UNL     1      -4.161 -12.111  16.574  0.00  0.00    +0.069 C 
BRANCH  23  24
ATOM     12  N   UNL     1      -1.677  -9.912  14.990  0.00  0.00    -0.360 N 
ATOM     24  C   UNL     1      -3.239 -11.329  15.682  0.00  0.00    -0.020 A 
ATOM     27  C   UNL     1      -3.164 -11.408  14.263  0.00  0.00    +0.003 A 
ATOM     31  C   UNL     1      -2.313 -10.401  16.100  0.00  0.00    +0.087 A 
ATOM     32  C   UNL     1      -2.176 -10.509  13.855  0.00  0.00    +0.047 A 
ATOM     34  C   UNL     1      -3.842 -12.160  13.284  0.00  0.00    +0.010 A 
ATOM     35  C   UNL     1      -1.831 -10.325  12.511  0.00  0.00    +0.026 A 
ATOM     36  C   UNL     1      -3.509 -11.986  11.936  0.00  0.00    +0.001 A 
ATOM     37  C   UNL     1      -2.519 -11.082  11.557  0.00  0.00    +0.002 A 
ATOM     46  H   UNL     1      -0.946  -9.214  15.003  0.00  0.00    +0.165 HD
ENDBRANCH  23  24
ENDBRANCH  20  23
ENDBRANCH   9  20
ENDBRANCH  15  18
TORSDOF 8
ENDMDL
MODEL 5
REMARK VINA RESULT:      -7.0     23.114     27.668
REMARK  Name = 11882024
REMARK  9 active torsions:
REMARK  status: ('A' for Active; 'I' for Inactive)
REMARK    1  A    between atoms: N_8  and  C_14
REMARK    2  A    between atoms: N_9  and  C_20
REMARK    3  A    between atoms: N_10  and  C_30
REMARK    4  A    between atoms: N_11  and  C_33
REMARK    5  A    between atoms: C_15  and  C_18
REMARK    6  A    between atoms: C_19  and  C_21
REMARK    7  A    between atoms: C_20  and  C_23
REMARK    8  A    between atoms: C_20  and  C_26
REMARK    9  A    between atoms: C_23  and  C_24
REMARK                            x       y       z     vdW  Elec       q    Type
REMARK                         _______ _______ _______ _____ _____    ______ ____
ROOT
ATOM      4  O   UNL     1     -11.998   7.643  36.365  0.00  0.00    -0.268 OA
ATOM      7  N   UNL     1     -12.317   9.284  34.775  0.00  0.00    -0.283 N 
ATOM     14  C   UNL     1     -12.939  10.649  32.927  0.00  0.00    +0.094 C 
ATOM     15  C   UNL     1     -13.589   8.763  34.296  0.00  0.00    +0.164 C 
ATOM     16  C   UNL     1     -14.165   9.865  33.408  0.00  0.00    +0.056 C 
ATOM     17  C   UNL     1     -11.960  10.530  34.090  0.00  0.00    +0.131 C 
ATOM     19  C   UNL     1     -11.630   8.696  35.842  0.00  0.00    +0.264 C 
ENDROOT
BRANCH  14   8
ATOM      5  O   UNL     1     -13.194  11.764  30.302  0.00  0.00    -0.252 OA
ATOM      8  N   UNL     1     -12.388  10.115  31.709  0.00  0.00    -0.295 N 
ATOM     11  N   UNL     1     -11.914   9.983  29.463  0.00  0.00    -0.267 N 
ATOM     22  C   UNL     1     -12.559  10.724  30.458  0.00  0.00    +0.304 C 
ATOM     43  H   UNL     1     -11.908   9.221  31.746  0.00  0.00    +0.151 HD
ATOM     45  H   UNL     1     -11.431   9.139  29.760  0.00  0.00    +0.156 HD
BRANCH  11  33
ATOM      1  F   UNL     1     -14.212  10.086  27.891  0.00  0.00    -0.203 F 
ATOM      2  F   UNL     1     -11.656  11.074  24.035  0.00  0.00    -0.205 F 
ATOM     33  C   UNL     1     -11.851  10.260  28.078  0.00  0.00    +0.070 A 
ATOM     38  C   UNL     1     -13.020  10.305  27.318  0.00  0.00    +0.147 A 
ATOM     39  C   UNL     1     -10.616  10.490  27.472  0.00  0.00    +0.029 A 
ATOM     40  C   UNL     1     -12.954  10.580  25.953  0.00  0.00    +0.078 A 
ATOM     41  C   UNL     1     -10.550  10.764  26.105  0.00  0.00    +0.040 A 
ATOM     42  C   UNL     1     -11.719  10.809  25.346  0.00  0.00    +0.126 A 
ENDBRANCH  11  33
ENDBRANCH  14   8
BRANCH  19  21
ATOM     10  N   UNL     1     -10.392  10.320  37.290  0.00  0.00    -0.346 N 
ATOM     21  C   UNL     1     -10.426   9.379  36.294  0.00  0.00    +0.104 A 
ATOM     25  C   UNL     1      -9.142   9.215  35.825  0.00  0.00    +0.032 A 
ATOM     28  C   UNL     1      -9.106  10.759  37.464  0.00  0.00    +0.086 A 
ATOM     29  C   UNL     1      -8.306  10.088  36.565  0.00  0.00    +0.020 A 
ATOM     30  C   UNL     1     -11.529  10.788  38.053  0.00  0.00    +0.149 C 
ENDBRANCH  19  21
BRANCH  15  18
ATOM      3  O   UNL     1     -12.550   7.477  32.573  0.00  0.00    -0.274 OA
ATOM      9  N   UNL     1     -14.097   6.445  33.974  0.00  0.00    -0.302 N 
ATOM     18  C   UNL     1     -13.337   7.508  33.517  0.00  0.00    +0.234 C 
ATOM     44  H   UNL     1     -14.650   6.564  34.818  0.00  0.00    +0.150 HD
BRANCH   9  20
ATOM     20  C   UNL     1     -14.056   5.129  33.378  0.00  0.00    +0.163 C 
BRANCH  20  26
ATOM      6  O   UNL     1     -14.513   2.979  34.415  0.00  0.00    -0.274 OA
ATOM     13  N   UNL     1     -15.668   4.822  35.153  0.00  0.00    -0.328 N 
ATOM     26  C   UNL     1     -14.759   4.180  34.338  0.00  0.00    +0.231 C 
ATOM     47  H   UNL     1     -15.843   5.821  35.095  0.00  0.00    +0.145 HD
ATOM     48  H   UNL     1     -16.196   4.308  35.849  0.00  0.00    +0.145 HD
ENDBRANCH  20  26
BRANCH  20  23
ATOM     23  C   UNL     1     -14.730   5.094  32.000  0.00  0.00    +0.069 C 
BRANCH  23  24
ATOM     12  N   UNL     1     -13.316   2.130  30.347  0.00  0.00    -0.360 N 
ATOM     24  C   UNL     1     -14.419   3.846  31.225  0.00  0.00    -0.020 A 
ATOM     27  C   UNL     1     -15.331   3.086  30.441  0.00  0.00    +0.003 A 
ATOM     31  C   UNL     1     -13.188   3.234  31.147  0.00  0.00    +0.087 A 
ATOM     32  C   UNL     1     -14.614   2.015  29.901  0.00  0.00    +0.047 A 
ATOM     34  C   UNL     1     -16.701   3.205  30.137  0.00  0.00    +0.010 A 
ATOM     35  C   UNL     1     -15.202   1.054  29.071  0.00  0.00    +0.026 A 
ATOM     36  C   UNL     1     -17.303   2.252  29.307  0.00  0.00    +0.001 A 
ATOM     37  C   UNL     1     -16.564   1.194  28.784  0.00  0.00    +0.002 A 
ATOM     46  H   UNL     1     -12.568   1.492  30.116  0.00  0.00    +0.165 HD
ENDBRANCH  23  24
ENDBRANCH  20  23
ENDBRANCH   9  20
ENDBRANCH  15  18
TORSDOF 8
ENDMDL
MODEL 6
REMARK VINA RESULT:      -6.8     25.685     29.223
REMARK  Name = 11882024
REMARK  9 active torsions:
REMARK  status: ('A' for Active; 'I' for Inactive)
REMARK    1  A    between atoms: N_8  and  C_14
REMARK    2  A    between atoms: N_9  and  C_20
REMARK    3  A    between atoms: N_10  and  C_30
REMARK    4  A    between atoms: N_11  and  C_33
REMARK    5  A    between atoms: C_15  and  C_18
REMARK    6  A    between atoms: C_19  and  C_21
REMARK    7  A    between atoms: C_20  and  C_23
REMARK    8  A    between atoms: C_20  and  C_26
REMARK    9  A    between atoms: C_23  and  C_24
REMARK                            x       y       z     vdW  Elec       q    Type
REMARK                         _______ _______ _______ _____ _____    ______ ____
ROOT
ATOM      4  O   UNL     1     -10.755  12.347  29.818  0.00  0.00    -0.268 OA
ATOM      7  N   UNL     1     -12.512  11.091  30.628  0.00  0.00    -0.283 N 
ATOM     14  C   UNL     1     -14.080   9.816  31.885  0.00  0.00    +0.094 C 
ATOM     15  C   UNL     1     -12.308  11.457  32.022  0.00  0.00    +0.164 C 
ATOM     16  C   UNL     1     -13.557  10.965  32.752  0.00  0.00    +0.056 C 
ATOM     17  C   UNL     1     -13.685  10.227  30.470  0.00  0.00    +0.131 C 
ATOM     19  C   UNL     1     -11.730  11.627  29.601  0.00  0.00    +0.264 C 
ENDROOT
BRANCH  14   8
ATOM      5  O   UNL     1     -15.436   7.296  31.995  0.00  0.00    -0.252 OA
ATOM      8  N   UNL     1     -13.507   8.546  32.249  0.00  0.00    -0.295 N 
ATOM     11  N   UNL     1     -13.425   6.287  32.668  0.00  0.00    -0.267 N 
ATOM     22  C   UNL     1     -14.242   7.352  32.279  0.00  0.00    +0.304 C 
ATOM     43  H   UNL     1     -12.541   8.523  32.563  0.00  0.00    +0.151 HD
ATOM     45  H   UNL     1     -12.453   6.504  32.870  0.00  0.00    +0.156 HD
BRANCH  11  33
ATOM      1  F   UNL     1     -14.326   5.280  35.105  0.00  0.00    -0.203 F 
ATOM      2  F   UNL     1     -14.839   0.959  33.250  0.00  0.00    -0.205 F 
ATOM     33  C   UNL     1     -13.786   4.927  32.819  0.00  0.00    +0.070 A 
ATOM     38  C   UNL     1     -14.233   4.455  34.053  0.00  0.00    +0.147 A 
ATOM     39  C   UNL     1     -13.693   4.060  31.731  0.00  0.00    +0.029 A 
ATOM     40  C   UNL     1     -14.589   3.114  34.199  0.00  0.00    +0.078 A 
ATOM     41  C   UNL     1     -14.049   2.718  31.877  0.00  0.00    +0.040 A 
ATOM     42  C   UNL     1     -14.496   2.246  33.110  0.00  0.00    +0.126 A 
ENDBRANCH  11  33
ENDBRANCH  14   8
BRANCH  19  21
ATOM     10  N   UNL     1     -13.007  11.956  27.473  0.00  0.00    -0.346 N 
ATOM     21  C   UNL     1     -12.107  11.265  28.241  0.00  0.00    +0.104 A 
ATOM     25  C   UNL     1     -11.649  10.199  27.498  0.00  0.00    +0.032 A 
ATOM     28  C   UNL     1     -13.130  11.348  26.251  0.00  0.00    +0.086 A 
ATOM     29  C   UNL     1     -12.296  10.252  26.238  0.00  0.00    +0.020 A 
ATOM     30  C   UNL     1     -13.725  13.146  27.873  0.00  0.00    +0.149 C 
ENDBRANCH  19  21
BRANCH  15  18
ATOM      3  O   UNL     1     -11.017   9.554  32.666  0.00  0.00    -0.274 OA
ATOM      9  N   UNL     1     -10.062  11.671  32.826  0.00  0.00    -0.302 N 
ATOM     18  C   UNL     1     -11.074  10.774  32.528  0.00  0.00    +0.234 C 
ATOM     44  H   UNL     1     -10.190  12.651  32.589  0.00  0.00    +0.150 HD
BRANCH   9  20
ATOM     20  C   UNL     1      -8.778  11.269  33.351  0.00  0.00    +0.163 C 
BRANCH  20  26
ATOM      6  O   UNL     1      -6.577  12.245  33.015  0.00  0.00    -0.274 OA
ATOM     13  N   UNL     1      -8.158  12.509  31.370  0.00  0.00    -0.328 N 
ATOM     26  C   UNL     1      -7.718  12.061  32.598  0.00  0.00    +0.231 C 
ATOM     47  H   UNL     1      -9.097  12.328  31.028  0.00  0.00    +0.145 HD
ATOM     48  H   UNL     1      -7.546  13.039  30.759  0.00  0.00    +0.145 HD
ENDBRANCH  20  26
BRANCH  20  23
ATOM     23  C   UNL     1      -8.663  11.519  34.860  0.00  0.00    +0.069 C 
BRANCH  23  24
ATOM     12  N   UNL     1      -7.581   8.550  36.739  0.00  0.00    -0.360 N 
ATOM     24  C   UNL     1      -8.502  10.255  35.656  0.00  0.00    -0.020 A 
ATOM     27  C   UNL     1      -9.547   9.428  36.153  0.00  0.00    +0.003 A 
ATOM     31  C   UNL     1      -7.305   9.690  36.032  0.00  0.00    +0.087 A 
ATOM     32  C   UNL     1      -8.942   8.366  36.829  0.00  0.00    +0.047 A 
ATOM     34  C   UNL     1     -10.954   9.481  36.094  0.00  0.00    +0.010 A 
ATOM     35  C   UNL     1      -9.677   7.351  37.452  0.00  0.00    +0.026 A 
ATOM     36  C   UNL     1     -11.702   8.472  36.711  0.00  0.00    +0.001 A 
ATOM     37  C   UNL     1     -11.072   7.424  37.379  0.00  0.00    +0.002 A 
ATOM     46  H   UNL     1      -6.887   7.934  37.138  0.00  0.00    +0.165 HD
ENDBRANCH  23  24
ENDBRANCH  20  23
ENDBRANCH   9  20
ENDBRANCH  15  18
TORSDOF 8
ENDMDL
MODEL 7
REMARK VINA RESULT:      -6.8      2.828      5.057
REMARK  Name = 11882024
REMARK  9 active torsions:
REMARK  status: ('A' for Active; 'I' for Inactive)
REMARK    1  A    between atoms: N_8  and  C_14
REMARK    2  A    between atoms: N_9  and  C_20
REMARK    3  A    between atoms: N_10  and  C_30
REMARK    4  A    between atoms: N_11  and  C_33
REMARK    5  A    between atoms: C_15  and  C_18
REMARK    6  A    between atoms: C_19  and  C_21
REMARK    7  A    between atoms: C_20  and  C_23
REMARK    8  A    between atoms: C_20  and  C_26
REMARK    9  A    between atoms: C_23  and  C_24
REMARK                            x       y       z     vdW  Elec       q    Type
REMARK                         _______ _______ _______ _____ _____    ______ ____
ROOT
ATOM      4  O   UNL     1     -11.813  -9.102  18.274  0.00  0.00    -0.268 OA
ATOM      7  N   UNL     1     -11.188  -9.797  16.165  0.00  0.00    -0.283 N 
ATOM     14  C   UNL     1     -10.133 -10.657  14.212  0.00  0.00    +0.094 C 
ATOM     15  C   UNL     1     -10.203 -10.764  16.627  0.00  0.00    +0.164 C 
ATOM     16  C   UNL     1      -9.839 -11.587  15.393  0.00  0.00    +0.056 C 
ATOM     17  C   UNL     1     -11.306  -9.815  14.704  0.00  0.00    +0.131 C 
ATOM     19  C   UNL     1     -11.977  -9.062  17.053  0.00  0.00    +0.264 C 
ENDROOT
BRANCH  14   8
ATOM      5  O   UNL     1      -8.001 -11.363  12.435  0.00  0.00    -0.252 OA
ATOM      8  N   UNL     1      -9.001  -9.840  13.859  0.00  0.00    -0.295 N 
ATOM     11  N   UNL     1      -7.030  -9.261  12.827  0.00  0.00    -0.267 N 
ATOM     22  C   UNL     1      -7.996 -10.261  12.978  0.00  0.00    +0.304 C 
ATOM     43  H   UNL     1      -8.890  -8.942  14.320  0.00  0.00    +0.151 HD
ATOM     45  H   UNL     1      -7.173  -8.402  13.351  0.00  0.00    +0.156 HD
BRANCH  11  33
ATOM      1  F   UNL     1      -6.980  -8.159  10.268  0.00  0.00    -0.203 F 
ATOM      2  F   UNL     1      -2.449  -9.401   9.709  0.00  0.00    -0.205 F 
ATOM     33  C   UNL     1      -5.863  -9.296  12.029  0.00  0.00    +0.070 A 
ATOM     38  C   UNL     1      -5.870  -8.735  10.752  0.00  0.00    +0.147 A 
ATOM     39  C   UNL     1      -4.703  -9.892  12.523  0.00  0.00    +0.029 A 
ATOM     40  C   UNL     1      -4.717  -8.771   9.968  0.00  0.00    +0.078 A 
ATOM     41  C   UNL     1      -3.549  -9.928  11.738  0.00  0.00    +0.040 A 
ATOM     42  C   UNL     1      -3.556  -9.368  10.462  0.00  0.00    +0.126 A 
ENDBRANCH  11  33
ENDBRANCH  14   8
BRANCH  19  21
ATOM     10  N   UNL     1     -12.789  -6.926  16.031  0.00  0.00    -0.346 N 
ATOM     21  C   UNL     1     -13.000  -8.210  16.462  0.00  0.00    +0.104 A 
ATOM     25  C   UNL     1     -14.322  -8.519  16.232  0.00  0.00    +0.032 A 
ATOM     28  C   UNL     1     -13.956  -6.412  15.530  0.00  0.00    +0.086 A 
ATOM     29  C   UNL     1     -14.927  -7.382  15.643  0.00  0.00    +0.020 A 
ATOM     30  C   UNL     1     -11.534  -6.208  16.087  0.00  0.00    +0.149 C 
ENDBRANCH  19  21
BRANCH  15  18
ATOM      3  O   UNL     1      -8.907  -8.808  17.068  0.00  0.00    -0.274 OA
ATOM      9  N   UNL     1      -8.086 -10.880  17.740  0.00  0.00    -0.302 N 
ATOM     18  C   UNL     1      -9.014 -10.028  17.165  0.00  0.00    +0.234 C 
ATOM     44  H   UNL     1      -8.319 -11.863  17.842  0.00  0.00    +0.150 HD
BRANCH   9  20
ATOM     20  C   UNL     1      -6.840 -10.422  18.312  0.00  0.00    +0.163 C 
BRANCH  20  26
ATOM      6  O   UNL     1      -5.097 -11.593  19.535  0.00  0.00    -0.274 OA
ATOM     13  N   UNL     1      -7.089 -12.672  19.159  0.00  0.00    -0.328 N 
ATOM     26  C   UNL     1      -6.225 -11.603  19.049  0.00  0.00    +0.231 C 
ATOM     47  H   UNL     1      -8.028 -12.657  18.773  0.00  0.00    +0.145 HD
ATOM     48  H   UNL     1      -6.809 -13.520  19.640  0.00  0.00    +0.145 HD
ENDBRANCH  20  26
BRANCH  20  23
ATOM     23  C   UNL     1      -5.872  -9.891  17.247  0.00  0.00    +0.069 C 
BRANCH  23  24
ATOM     12  N   UNL     1      -5.425 -12.672  14.885  0.00  0.00    -0.360 N 
ATOM     24  C   UNL     1      -5.412 -10.952  16.288  0.00  0.00    -0.020 A 
ATOM     27  C   UNL     1      -4.079 -11.174  15.845  0.00  0.00    +0.003 A 
ATOM     31  C   UNL     1      -6.217 -11.889  15.681  0.00  0.00    +0.087 A 
ATOM     32  C   UNL     1      -4.114 -12.259  14.966  0.00  0.00    +0.047 A 
ATOM     34  C   UNL     1      -2.841 -10.555  16.108  0.00  0.00    +0.010 A 
ATOM     35  C   UNL     1      -2.969 -12.756  14.334  0.00  0.00    +0.026 A 
ATOM     36  C   UNL     1      -1.687 -11.042  15.484  0.00  0.00    +0.001 A 
ATOM     37  C   UNL     1      -1.752 -12.126  14.611  0.00  0.00    +0.002 A 
ATOM     46  H   UNL     1      -5.754 -13.442  14.320  0.00  0.00    +0.165 HD
ENDBRANCH  23  24
ENDBRANCH  20  23
ENDBRANCH   9  20
ENDBRANCH  15  18
TORSDOF 8
ENDMDL
MODEL 8
REMARK VINA RESULT:      -6.8     23.294     27.383
REMARK  Name = 11882024
REMARK  9 active torsions:
REMARK  status: ('A' for Active; 'I' for Inactive)
REMARK    1  A    between atoms: N_8  and  C_14
REMARK    2  A    between atoms: N_9  and  C_20
REMARK    3  A    between atoms: N_10  and  C_30
REMARK    4  A    between atoms: N_11  and  C_33
REMARK    5  A    between atoms: C_15  and  C_18
REMARK    6  A    between atoms: C_19  and  C_21
REMARK    7  A    between atoms: C_20  and  C_23
REMARK    8  A    between atoms: C_20  and  C_26
REMARK    9  A    between atoms: C_23  and  C_24
REMARK                            x       y       z     vdW  Elec       q    Type
REMARK                         _______ _______ _______ _____ _____    ______ ____
ROOT
ATOM      4  O   UNL     1       7.638  -2.374  38.452  0.00  0.00    -0.268 OA
ATOM      7  N   UNL     1       6.931  -4.513  38.950  0.00  0.00    -0.283 N 
ATOM     14  C   UNL     1       6.447  -6.840  39.061  0.00  0.00    +0.094 C 
ATOM     15  C   UNL     1       7.977  -5.181  38.190  0.00  0.00    +0.164 C 
ATOM     16  C   UNL     1       7.897  -6.650  38.603  0.00  0.00    +0.056 C 
ATOM     17  C   UNL     1       6.074  -5.480  39.641  0.00  0.00    +0.131 C 
ATOM     19  C   UNL     1       6.878  -3.121  39.070  0.00  0.00    +0.264 C 
ENDROOT
BRANCH  14   8
ATOM      5  O   UNL     1       5.929  -9.498  38.127  0.00  0.00    -0.252 OA
ATOM      8  N   UNL     1       5.574  -7.217  37.980  0.00  0.00    -0.295 N 
ATOM     11  N   UNL     1       4.476  -8.605  36.512  0.00  0.00    -0.267 N 
ATOM     22  C   UNL     1       5.374  -8.547  37.582  0.00  0.00    +0.304 C 
ATOM     43  H   UNL     1       5.132  -6.482  37.436  0.00  0.00    +0.151 HD
ATOM     45  H   UNL     1       4.106  -7.721  36.175  0.00  0.00    +0.156 HD
BRANCH  11  33
ATOM      1  F   UNL     1       6.113  -9.999  34.738  0.00  0.00    -0.203 F 
ATOM      2  F   UNL     1       2.665 -13.109  33.837  0.00  0.00    -0.205 F 
ATOM     33  C   UNL     1       4.017  -9.755  35.827  0.00  0.00    +0.070 A 
ATOM     38  C   UNL     1       4.861 -10.430  34.946  0.00  0.00    +0.147 A 
ATOM     39  C   UNL     1       2.716 -10.212  36.037  0.00  0.00    +0.029 A 
ATOM     40  C   UNL     1       4.404 -11.563  34.274  0.00  0.00    +0.078 A 
ATOM     41  C   UNL     1       2.259 -11.346  35.363  0.00  0.00    +0.040 A 
ATOM     42  C   UNL     1       3.103 -12.021  34.482  0.00  0.00    +0.126 A 
ENDBRANCH  11  33
ENDBRANCH  14   8
BRANCH  19  21
ATOM     10  N   UNL     1       6.046  -2.237  41.259  0.00  0.00    -0.346 N 
ATOM     21  C   UNL     1       5.848  -2.584  39.948  0.00  0.00    +0.104 A 
ATOM     25  C   UNL     1       4.529  -2.333  39.640  0.00  0.00    +0.032 A 
ATOM     28  C   UNL     1       4.874  -1.767  41.792  0.00  0.00    +0.086 A 
ATOM     29  C   UNL     1       3.912  -1.816  40.807  0.00  0.00    +0.020 A 
ATOM     30  C   UNL     1       7.293  -2.340  41.984  0.00  0.00    +0.149 C 
ENDBRANCH  19  21
BRANCH  15  18
ATOM      3  O   UNL     1       6.855  -4.218  36.315  0.00  0.00    -0.274 OA
ATOM      9  N   UNL     1       8.478  -5.845  35.944  0.00  0.00    -0.302 N 
ATOM     18  C   UNL     1       7.700  -5.009  36.727  0.00  0.00    +0.234 C 
ATOM     44  H   UNL     1       9.207  -6.396  36.388  0.00  0.00    +0.150 HD
BRANCH   9  20
ATOM     20  C   UNL     1       8.387  -5.888  34.503  0.00  0.00    +0.163 C 
BRANCH  20  26
ATOM      6  O   UNL     1      10.553  -4.950  33.922  0.00  0.00    -0.274 OA
ATOM     13  N   UNL     1       8.666  -3.719  33.472  0.00  0.00    -0.328 N 
ATOM     26  C   UNL     1       9.331  -4.824  33.962  0.00  0.00    +0.231 C 
ATOM     47  H   UNL     1       7.654  -3.640  33.489  0.00  0.00    +0.145 HD
ATOM     48  H   UNL     1       9.177  -2.941  33.069  0.00  0.00    +0.145 HD
ENDBRANCH  20  26
BRANCH  20  23
ATOM     23  C   UNL     1       8.755  -7.267  33.938  0.00  0.00    +0.069 C 
BRANCH  23  24
ATOM     12  N   UNL     1       6.015  -7.886  31.566  0.00  0.00    -0.360 N 
ATOM     24  C   UNL     1       7.785  -7.755  32.900  0.00  0.00    -0.020 A 
ATOM     27  C   UNL     1       7.906  -8.936  32.116  0.00  0.00    +0.003 A 
ATOM     31  C   UNL     1       6.612  -7.131  32.539  0.00  0.00    +0.087 A 
ATOM     32  C   UNL     1       6.783  -8.995  31.288  0.00  0.00    +0.047 A 
ATOM     34  C   UNL     1       8.866  -9.964  32.030  0.00  0.00    +0.010 A 
ATOM     35  C   UNL     1       6.572 -10.034  30.374  0.00  0.00    +0.026 A 
ATOM     36  C   UNL     1       8.667 -11.010  31.123  0.00  0.00    +0.001 A 
ATOM     37  C   UNL     1       7.537 -11.043  30.308  0.00  0.00    +0.002 A 
ATOM     46  H   UNL     1       5.138  -7.664  31.117  0.00  0.00    +0.165 HD
ENDBRANCH  23  24
ENDBRANCH  20  23
ENDBRANCH   9  20
ENDBRANCH  15  18
TORSDOF 8
ENDMDL
MODEL 9
REMARK VINA RESULT:      -6.8     24.832     27.793
REMARK  Name = 11882024
REMARK  9 active torsions:
REMARK  status: ('A' for Active; 'I' for Inactive)
REMARK    1  A    between atoms: N_8  and  C_14
REMARK    2  A    between atoms: N_9  and  C_20
REMARK    3  A    between atoms: N_10  and  C_30
REMARK    4  A    between atoms: N_11  and  C_33
REMARK    5  A    between atoms: C_15  and  C_18
REMARK    6  A    between atoms: C_19  and  C_21
REMARK    7  A    between atoms: C_20  and  C_23
REMARK    8  A    between atoms: C_20  and  C_26
REMARK    9  A    between atoms: C_23  and  C_24
REMARK                            x       y       z     vdW  Elec       q    Type
REMARK                         _______ _______ _______ _____ _____    ______ ____
ROOT
ATOM      4  O   UNL     1      15.820   6.898   4.201  0.00  0.00    -0.268 OA
ATOM      7  N   UNL     1      14.627   8.264   5.625  0.00  0.00    -0.283 N 
ATOM     14  C   UNL     1      13.013   9.414   6.944  0.00  0.00    +0.094 C 
ATOM     15  C   UNL     1      13.505   7.350   5.782  0.00  0.00    +0.164 C 
ATOM     16  C   UNL     1      12.684   7.917   6.939  0.00  0.00    +0.056 C 
ATOM     17  C   UNL     1      14.454   9.465   6.448  0.00  0.00    +0.131 C 
ATOM     19  C   UNL     1      15.753   7.930   4.869  0.00  0.00    +0.264 C 
ENDROOT
BRANCH  14   8
ATOM      5  O   UNL     1      10.322  10.195   7.538  0.00  0.00    -0.252 OA
ATOM      8  N   UNL     1      12.130  10.174   6.096  0.00  0.00    -0.295 N 
ATOM     11  N   UNL     1      10.208  11.253   5.445  0.00  0.00    -0.267 N 
ATOM     22  C   UNL     1      10.821  10.517   6.463  0.00  0.00    +0.304 C 
ATOM     43  H   UNL     1      12.447  10.418   5.163  0.00  0.00    +0.151 HD
ATOM     45  H   UNL     1      10.761  11.433   4.612  0.00  0.00    +0.156 HD
BRANCH  11  33
ATOM      1  F   UNL     1       9.506  13.463   6.989  0.00  0.00    -0.203 F 
ATOM      2  F   UNL     1       5.065  13.320   5.364  0.00  0.00    -0.205 F 
ATOM     33  C   UNL     1       8.896  11.782   5.427  0.00  0.00    +0.070 A 
ATOM     38  C   UNL     1       8.577  12.890   6.211  0.00  0.00    +0.147 A 
ATOM     39  C   UNL     1       7.922  11.193   4.621  0.00  0.00    +0.029 A 
ATOM     40  C   UNL     1       7.283  13.409   6.191  0.00  0.00    +0.078 A 
ATOM     41  C   UNL     1       6.627  11.713   4.600  0.00  0.00    +0.040 A 
ATOM     42  C   UNL     1       6.308  12.820   5.385  0.00  0.00    +0.126 A 
ENDBRANCH  11  33
ENDBRANCH  14   8
BRANCH  19  21
ATOM     10  N   UNL     1      16.971   9.946   4.020  0.00  0.00    -0.346 N 
ATOM     21  C   UNL     1      16.851   8.887   4.882  0.00  0.00    +0.104 A 
ATOM     25  C   UNL     1      17.936   8.909   5.730  0.00  0.00    +0.032 A 
ATOM     28  C   UNL     1      18.116  10.643   4.305  0.00  0.00    +0.086 A 
ATOM     29  C   UNL     1      18.737  10.020   5.365  0.00  0.00    +0.020 A 
ATOM     30  C   UNL     1      16.041  10.291   2.967  0.00  0.00    +0.149 C 
ENDBRANCH  19  21
BRANCH  15  18
ATOM      3  O   UNL     1      12.660   8.300   3.761  0.00  0.00    -0.274 OA
ATOM      9  N   UNL     1      12.067   6.118   4.316  0.00  0.00    -0.302 N 
ATOM     18  C   UNL     1      12.714   7.327   4.509  0.00  0.00    +0.234 C 
ATOM     44  H   UNL     1      12.254   5.353   4.957  0.00  0.00    +0.150 HD
BRANCH   9  20
ATOM     20  C   UNL     1      11.221   5.849   3.176  0.00  0.00    +0.163 C 
BRANCH  20  26
ATOM      6  O   UNL     1      11.362   3.481   2.644  0.00  0.00    -0.274 OA
ATOM     13  N   UNL     1      12.805   4.929   1.597  0.00  0.00    -0.328 N 
ATOM     26  C   UNL     1      11.789   4.621   2.478  0.00  0.00    +0.231 C 
ATOM     47  H   UNL     1      13.131   5.879   1.451  0.00  0.00    +0.145 HD
ATOM     48  H   UNL     1      13.262   4.203   1.055  0.00  0.00    +0.145 HD
ENDBRANCH  20  26
BRANCH  20  23
ATOM     23  C   UNL     1       9.761   5.608   3.578  0.00  0.00    +0.069 C 
BRANCH  23  24
ATOM     12  N   UNL     1       8.622   7.932   6.189  0.00  0.00    -0.360 N 
ATOM     24  C   UNL     1       9.365   6.346   4.826  0.00  0.00    -0.020 A 
ATOM     27  C   UNL     1       9.455   5.862   6.161  0.00  0.00    +0.003 A 
ATOM     31  C   UNL     1       8.850   7.621   4.876  0.00  0.00    +0.087 A 
ATOM     32  C   UNL     1       8.983   6.877   6.997  0.00  0.00    +0.047 A 
ATOM     34  C   UNL     1       9.894   4.656   6.741  0.00  0.00    +0.010 A 
ATOM     35  C   UNL     1       8.926   6.743   8.389  0.00  0.00    +0.026 A 
ATOM     36  C   UNL     1       9.844   4.509   8.132  0.00  0.00    +0.001 A 
ATOM     37  C   UNL     1       9.367   5.537   8.941  0.00  0.00    +0.002 A 
ATOM     46  H   UNL     1       8.244   8.809   6.520  0.00  0.00    +0.165 HD
ENDBRANCH  23  24
ENDBRANCH  20  23
ENDBRANCH   9  20
ENDBRANCH  15  18
TORSDOF 8
ENDMDL
MODEL 10
REMARK VINA RESULT:      -6.7      2.432      6.561
REMARK  Name = 11882024
REMARK  9 active torsions:
REMARK  status: ('A' for Active; 'I' for Inactive)
REMARK    1  A    between atoms: N_8  and  C_14
REMARK    2  A    between atoms: N_9  and  C_20
REMARK    3  A    between atoms: N_10  and  C_30
REMARK    4  A    between atoms: N_11  and  C_33
REMARK    5  A    between atoms: C_15  and  C_18
REMARK    6  A    between atoms: C_19  and  C_21
REMARK    7  A    between atoms: C_20  and  C_23
REMARK    8  A    between atoms: C_20  and  C_26
REMARK    9  A    between atoms: C_23  and  C_24
REMARK                            x       y       z     vdW  Elec       q    Type
REMARK                         _______ _______ _______ _____ _____    ______ ____
ROOT
ATOM      4  O   UNL     1      -2.580 -14.971  14.834  0.00  0.00    -0.268 OA
ATOM      7  N   UNL     1      -2.417 -13.042  13.580  0.00  0.00    -0.283 N 
ATOM     14  C   UNL     1      -2.382 -10.831  12.700  0.00  0.00    +0.094 C 
ATOM     15  C   UNL     1      -2.243 -12.154  14.720  0.00  0.00    +0.164 C 
ATOM     16  C   UNL     1      -1.816 -10.814  14.123  0.00  0.00    +0.056 C 
ATOM     17  C   UNL     1      -2.338 -12.306  12.315  0.00  0.00    +0.131 C 
ATOM     19  C   UNL     1      -2.518 -14.428  13.730  0.00  0.00    +0.264 C 
ENDROOT
BRANCH  14   8
ATOM      5  O   UNL     1      -3.963 -10.466  10.340  0.00  0.00    -0.252 OA
ATOM      8  N   UNL     1      -3.721 -10.302  12.634  0.00  0.00    -0.295 N 
ATOM     11  N   UNL     1      -5.697  -9.620  11.678  0.00  0.00    -0.267 N 
ATOM     22  C   UNL     1      -4.429 -10.155  11.433  0.00  0.00    +0.304 C 
ATOM     43  H   UNL     1      -4.148  -9.959  13.488  0.00  0.00    +0.151 HD
ATOM     45  H   UNL     1      -5.929  -9.415  12.646  0.00  0.00    +0.156 HD
BRANCH  11  33
ATOM      1  F   UNL     1      -5.341  -7.663   9.726  0.00  0.00    -0.203 F 
ATOM      2  F   UNL     1      -9.670  -8.458   7.991  0.00  0.00    -0.205 F 
ATOM     33  C   UNL     1      -6.709  -9.321  10.737  0.00  0.00    +0.070 A 
ATOM     38  C   UNL     1      -6.500  -8.336   9.772  0.00  0.00    +0.147 A 
ATOM     39  C   UNL     1      -7.919 -10.015  10.775  0.00  0.00    +0.029 A 
ATOM     40  C   UNL     1      -7.500  -8.044   8.845  0.00  0.00    +0.078 A 
ATOM     41  C   UNL     1      -8.920  -9.722   9.847  0.00  0.00    +0.040 A 
ATOM     42  C   UNL     1      -8.710  -8.737   8.883  0.00  0.00    +0.126 A 
ENDBRANCH  11  33
ENDBRANCH  14   8
BRANCH  19  21
ATOM     10  N   UNL     1      -3.717 -15.428  11.773  0.00  0.00    -0.346 N 
ATOM     21  C   UNL     1      -2.578 -15.211  12.503  0.00  0.00    +0.104 A 
ATOM     25  C   UNL     1      -1.541 -15.859  11.870  0.00  0.00    +0.032 A 
ATOM     28  C   UNL     1      -3.423 -16.204  10.683  0.00  0.00    +0.086 A 
ATOM     29  C   UNL     1      -2.075 -16.488  10.717  0.00  0.00    +0.020 A 
ATOM     30  C   UNL     1      -5.035 -14.921  12.089  0.00  0.00    +0.149 C 
ENDBRANCH  19  21
BRANCH  15  18
ATOM      3  O   UNL     1      -4.626 -12.125  14.866  0.00  0.00    -0.274 OA
ATOM      9  N   UNL     1      -3.374 -11.805  16.803  0.00  0.00    -0.302 N 
ATOM     18  C   UNL     1      -3.548 -12.037  15.449  0.00  0.00    +0.234 C 
ATOM     44  H   UNL     1      -2.435 -11.838  17.189  0.00  0.00    +0.150 HD
BRANCH   9  20
ATOM     20  C   UNL     1      -4.474 -11.632  17.723  0.00  0.00    +0.163 C 
BRANCH  20  26
ATOM      6  O   UNL     1      -4.644 -12.119  20.098  0.00  0.00    -0.274 OA
ATOM     13  N   UNL     1      -2.555 -11.904  19.168  0.00  0.00    -0.328 N 
ATOM     26  C   UNL     1      -3.933 -11.894  19.121  0.00  0.00    +0.231 C 
ATOM     47  H   UNL     1      -1.980 -11.741  18.347  0.00  0.00    +0.145 HD
ATOM     48  H   UNL     1      -2.065 -12.081  20.038  0.00  0.00    +0.145 HD
ENDBRANCH  20  26
BRANCH  20  23
ATOM     23  C   UNL     1      -5.087 -10.228  17.639  0.00  0.00    +0.069 C 
BRANCH  23  24
ATOM     12  N   UNL     1      -8.651 -10.331  18.534  0.00  0.00    -0.360 N 
ATOM     24  C   UNL     1      -6.587 -10.235  17.723  0.00  0.00    -0.020 A 
ATOM     27  C   UNL     1      -7.497 -10.101  16.638  0.00  0.00    +0.003 A 
ATOM     31  C   UNL     1      -7.326 -10.375  18.876  0.00  0.00    +0.087 A 
ATOM     32  C   UNL     1      -8.785 -10.164  17.174  0.00  0.00    +0.047 A 
ATOM     34  C   UNL     1      -7.348  -9.930  15.247  0.00  0.00    +0.010 A 
ATOM     35  C   UNL     1      -9.937 -10.064  16.385  0.00  0.00    +0.026 A 
ATOM     36  C   UNL     1      -8.491  -9.831  14.446  0.00  0.00    +0.001 A 
ATOM     37  C   UNL     1      -9.764  -9.897  15.007  0.00  0.00    +0.002 A 
ATOM     46  H   UNL     1      -9.420 -10.409  19.185  0.00  0.00    +0.165 HD
ENDBRANCH  23  24
ENDBRANCH  20  23
ENDBRANCH   9  20
ENDBRANCH  15  18
TORSDOF 8
ENDMDL
