MODEL 1
REMARK VINA RESULT:      -6.8      0.000      0.000
REMARK  Name = 28961322
REMARK  8 active torsions:
REMARK  status: ('A' for Active; 'I' for Inactive)
REMARK    1  A    between atoms: O_2  and  C_10
REMARK    2  A    between atoms: O_3  and  C_17
REMARK    3  A    between atoms: N_5  and  C_8
REMARK    4  A    between atoms: N_6  and  C_18
REMARK    5  A    between atoms: N_7  and  C_14
REMARK    6  A    between atoms: C_9  and  C_14
REMARK    7  A    between atoms: C_11  and  C_17
REMARK    8  A    between atoms: C_19  and  C_22
REMARK                            x       y       z     vdW  Elec       q    Type
REMARK                         _______ _______ _______ _____ _____    ______ ____
ROOT
ATOM      1  O   UNL     1     -10.368 -11.538  17.578  0.00  0.00    -0.365 OA
ATOM      8  C   UNL     1     -11.550  -9.631  16.783  0.00  0.00    +0.118 C 
ATOM      9  C   UNL     1     -10.717 -10.848  16.358  0.00  0.00    +0.155 C 
ATOM     10  C   UNL     1     -11.066  -9.364  18.200  0.00  0.00    +0.165 C 
ATOM     11  C   UNL     1     -10.866 -10.788  18.702  0.00  0.00    +0.174 C 
ENDROOT
BRANCH   8   5
ATOM      5  N   UNL     1     -11.515  -8.486  15.890  0.00  0.00    -0.292 NA
ATOM      6  N   UNL     1     -12.616  -6.358  14.336  0.00  0.00    -0.327 N 
ATOM     12  C   UNL     1     -12.253  -8.775  14.654  0.00  0.00    +0.104 C 
ATOM     13  C   UNL     1     -12.084  -7.304  16.547  0.00  0.00    +0.104 C 
ATOM     15  C   UNL     1     -12.176  -7.596  13.681  0.00  0.00    +0.120 C 
ATOM     16  C   UNL     1     -12.002  -6.075  15.638  0.00  0.00    +0.120 C 
BRANCH   6  18
ATOM     18  C   UNL     1     -13.040  -5.299  13.525  0.00  0.00    +0.030 A 
ATOM     20  C   UNL     1     -12.115  -4.605  12.744  0.00  0.00    +0.023 A 
ATOM     21  C   UNL     1     -14.387  -4.937  13.498  0.00  0.00    +0.023 A 
ATOM     23  C   UNL     1     -12.539  -3.550  11.935  0.00  0.00    +0.002 A 
ATOM     24  C   UNL     1     -14.810  -3.882  12.689  0.00  0.00    +0.002 A 
ATOM     25  C   UNL     1     -13.885  -3.188  11.908  0.00  0.00    +0.000 A 
ENDBRANCH   6  18
ENDBRANCH   8   5
BRANCH  10   2
ATOM      2  O   UNL     1      -9.832  -8.660  18.205  0.00  0.00    -0.388 OA
ATOM     31  H   UNL     1      -9.276  -9.044  18.904  0.00  0.00    +0.210 HD
ENDBRANCH  10   2
BRANCH   9  14
ATOM     14  C   UNL     1      -9.420 -10.562  15.611  0.00  0.00    +0.137 C 
BRANCH  14   7
ATOM      4  O   UNL     1      -7.357  -8.888  16.700  0.00  0.00    -0.270 OA
ATOM      7  N   UNL     1      -8.283 -10.989  16.371  0.00  0.00    -0.309 N 
ATOM     19  C   UNL     1      -7.327 -10.105  16.863  0.00  0.00    +0.244 C 
ATOM     32  H   UNL     1      -8.161 -11.991  16.481  0.00  0.00    +0.149 HD
BRANCH  19  22
ATOM     22  C   UNL     1      -6.193 -10.710  17.609  0.00  0.00    +0.037 A 
ATOM     26  C   UNL     1      -6.364 -11.106  18.936  0.00  0.00    +0.013 A 
ATOM     27  C   UNL     1      -4.958 -10.881  16.983  0.00  0.00    +0.013 A 
ATOM     28  C   UNL     1      -5.300 -11.674  19.637  0.00  0.00    +0.001 A 
ATOM     29  C   UNL     1      -3.894 -11.448  17.684  0.00  0.00    +0.001 A 
ATOM     30  C   UNL     1      -4.065 -11.845  19.010  0.00  0.00    +0.000 A 
ENDBRANCH  19  22
ENDBRANCH  14   7
ENDBRANCH   9  14
BRANCH  11  17
ATOM     17  C   UNL     1      -9.909 -10.942  19.871  0.00  0.00    +0.190 C 
BRANCH  17   3
ATOM      3  O   UNL     1     -10.204  -9.947  20.838  0.00  0.00    -0.392 OA
ATOM     33  H   UNL     1     -11.030 -10.211  21.278  0.00  0.00    +0.210 HD
ENDBRANCH  17   3
ENDBRANCH  11  17
TORSDOF 8
ENDMDL
MODEL 2
REMARK VINA RESULT:      -6.5     29.908     34.062
REMARK  Name = 28961322
REMARK  8 active torsions:
REMARK  status: ('A' for Active; 'I' for Inactive)
REMARK    1  A    between atoms: O_2  and  C_10
REMARK    2  A    between atoms: O_3  and  C_17
REMARK    3  A    between atoms: N_5  and  C_8
REMARK    4  A    between atoms: N_6  and  C_18
REMARK    5  A    between atoms: N_7  and  C_14
REMARK    6  A    between atoms: C_9  and  C_14
REMARK    7  A    between atoms: C_11  and  C_17
REMARK    8  A    between atoms: C_19  and  C_22
REMARK                            x       y       z     vdW  Elec       q    Type
REMARK                         _______ _______ _______ _____ _____    ______ ____
ROOT
ATOM      1  O   UNL     1      17.974   8.802  20.905  0.00  0.00    -0.365 OA
ATOM      8  C   UNL     1      19.885   7.401  21.132  0.00  0.00    +0.118 C 
ATOM      9  C   UNL     1      18.402   7.432  20.740  0.00  0.00    +0.155 C 
ATOM     10  C   UNL     1      20.010   8.575  22.090  0.00  0.00    +0.165 C 
ATOM     11  C   UNL     1      19.068   9.576  21.433  0.00  0.00    +0.174 C 
ENDROOT
BRANCH   8   5
ATOM      5  N   UNL     1      20.389   6.135  21.635  0.00  0.00    -0.292 NA
ATOM      6  N   UNL     1      22.262   3.995  21.900  0.00  0.00    -0.327 N 
ATOM     12  C   UNL     1      20.594   5.188  20.532  0.00  0.00    +0.104 C 
ATOM     13  C   UNL     1      21.649   6.335  22.362  0.00  0.00    +0.104 C 
ATOM     15  C   UNL     1      21.072   3.832  21.055  0.00  0.00    +0.120 C 
ATOM     16  C   UNL     1      22.163   5.017  22.947  0.00  0.00    +0.120 C 
BRANCH   6  18
ATOM     18  C   UNL     1      23.091   2.883  22.092  0.00  0.00    +0.030 A 
ATOM     20  C   UNL     1      23.735   2.297  21.002  0.00  0.00    +0.023 A 
ATOM     21  C   UNL     1      23.270   2.361  23.373  0.00  0.00    +0.023 A 
ATOM     23  C   UNL     1      24.561   1.189  21.195  0.00  0.00    +0.002 A 
ATOM     24  C   UNL     1      24.096   1.253  23.564  0.00  0.00    +0.002 A 
ATOM     25  C   UNL     1      24.741   0.667  22.475  0.00  0.00    +0.000 A 
ENDBRANCH   6  18
ENDBRANCH   8   5
BRANCH  10   2
ATOM      2  O   UNL     1      19.545   8.239  23.391  0.00  0.00    -0.388 OA
ATOM     31  H   UNL     1      19.726   8.997  23.973  0.00  0.00    +0.210 HD
ENDBRANCH  10   2
BRANCH   9  14
ATOM     14  C   UNL     1      17.459   6.561  21.562  0.00  0.00    +0.137 C 
BRANCH  14   7
ATOM      4  O   UNL     1      15.641   6.037  19.402  0.00  0.00    -0.270 OA
ATOM      7  N   UNL     1      16.106   7.020  21.452  0.00  0.00    -0.309 N 
ATOM     19  C   UNL     1      15.292   6.716  20.364  0.00  0.00    +0.244 C 
ATOM     32  H   UNL     1      15.777   7.644  22.181  0.00  0.00    +0.149 HD
BRANCH  19  22
ATOM     22  C   UNL     1      13.921   7.290  20.388  0.00  0.00    +0.037 A 
ATOM     26  C   UNL     1      13.298   7.656  19.194  0.00  0.00    +0.013 A 
ATOM     27  C   UNL     1      13.259   7.464  21.602  0.00  0.00    +0.013 A 
ATOM     28  C   UNL     1      12.011   8.195  19.216  0.00  0.00    +0.001 A 
ATOM     29  C   UNL     1      11.973   8.003  21.624  0.00  0.00    +0.001 A 
ATOM     30  C   UNL     1      11.349   8.368  20.431  0.00  0.00    +0.000 A 
ENDBRANCH  19  22
ENDBRANCH  14   7
ENDBRANCH   9  14
BRANCH  11  17
ATOM     17  C   UNL     1      18.521  10.658  22.347  0.00  0.00    +0.190 C 
BRANCH  17   3
ATOM      3  O   UNL     1      17.185  10.333  22.693  0.00  0.00    -0.392 OA
ATOM     33  H   UNL     1      17.216   9.526  23.233  0.00  0.00    +0.210 HD
ENDBRANCH  17   3
ENDBRANCH  11  17
TORSDOF 8
ENDMDL
MODEL 3
REMARK VINA RESULT:      -6.5     28.544     31.410
REMARK  Name = 28961322
REMARK  8 active torsions:
REMARK  status: ('A' for Active; 'I' for Inactive)
REMARK    1  A    between atoms: O_2  and  C_10
REMARK    2  A    between atoms: O_3  and  C_17
REMARK    3  A    between atoms: N_5  and  C_8
REMARK    4  A    between atoms: N_6  and  C_18
REMARK    5  A    between atoms: N_7  and  C_14
REMARK    6  A    between atoms: C_9  and  C_14
REMARK    7  A    between atoms: C_11  and  C_17
REMARK    8  A    between atoms: C_19  and  C_22
REMARK                            x       y       z     vdW  Elec       q    Type
REMARK                         _______ _______ _______ _____ _____    ______ ____
ROOT
ATOM      1  O   UNL     1      12.031  13.744  23.710  0.00  0.00    -0.365 OA
ATOM      8  C   UNL     1      13.765  12.381  22.814  0.00  0.00    +0.118 C 
ATOM      9  C   UNL     1      12.375  12.970  22.539  0.00  0.00    +0.155 C 
ATOM     10  C   UNL     1      13.818  12.322  24.333  0.00  0.00    +0.165 C 
ATOM     11  C   UNL     1      13.077  13.605  24.690  0.00  0.00    +0.174 C 
ENDROOT
BRANCH   8   5
ATOM      5  N   UNL     1      14.081  11.137  22.135  0.00  0.00    -0.292 NA
ATOM      6  N   UNL     1      15.780   9.058  21.160  0.00  0.00    -0.327 N 
ATOM     12  C   UNL     1      14.981  11.384  21.001  0.00  0.00    +0.104 C 
ATOM     13  C   UNL     1      14.701  10.186  23.065  0.00  0.00    +0.104 C 
ATOM     15  C   UNL     1      15.277  10.088  20.243  0.00  0.00    +0.120 C 
ATOM     16  C   UNL     1      14.988   8.849  22.377  0.00  0.00    +0.120 C 
BRANCH   6  18
ATOM     18  C   UNL     1      16.512   7.995  20.618  0.00  0.00    +0.030 A 
ATOM     20  C   UNL     1      17.776   7.689  21.125  0.00  0.00    +0.023 A 
ATOM     21  C   UNL     1      15.979   7.243  19.571  0.00  0.00    +0.023 A 
ATOM     23  C   UNL     1      18.505   6.630  20.585  0.00  0.00    +0.002 A 
ATOM     24  C   UNL     1      16.710   6.184  19.031  0.00  0.00    +0.002 A 
ATOM     25  C   UNL     1      17.972   5.878  19.538  0.00  0.00    +0.000 A 
ENDBRANCH   6  18
ENDBRANCH   8   5
BRANCH  10   2
ATOM      2  O   UNL     1      13.118  11.191  24.835  0.00  0.00    -0.388 OA
ATOM     31  H   UNL     1      12.167  11.391  24.795  0.00  0.00    +0.210 HD
ENDBRANCH  10   2
BRANCH   9  14
ATOM     14  C   UNL     1      11.245  11.974  22.307  0.00  0.00    +0.137 C 
BRANCH  14   7
ATOM      4  O   UNL     1      10.659   9.164  22.304  0.00  0.00    -0.270 OA
ATOM      7  N   UNL     1      11.592  11.028  21.288  0.00  0.00    -0.309 N 
ATOM     19  C   UNL     1      11.267   9.677  21.369  0.00  0.00    +0.244 C 
ATOM     32  H   UNL     1      12.158  11.376  20.520  0.00  0.00    +0.149 HD
BRANCH  19  22
ATOM     22  C   UNL     1      11.722   8.822  20.242  0.00  0.00    +0.037 A 
ATOM     26  C   UNL     1      11.823   9.357  18.958  0.00  0.00    +0.013 A 
ATOM     27  C   UNL     1      12.049   7.486  20.469  0.00  0.00    +0.013 A 
ATOM     28  C   UNL     1      12.250   8.555  17.899  0.00  0.00    +0.001 A 
ATOM     29  C   UNL     1      12.476   6.683  19.411  0.00  0.00    +0.001 A 
ATOM     30  C   UNL     1      12.577   7.217  18.127  0.00  0.00    +0.000 A 
ENDBRANCH  19  22
ENDBRANCH  14   7
ENDBRANCH   9  14
BRANCH  11  17
ATOM     17  C   UNL     1      12.468  13.643  26.081  0.00  0.00    +0.190 C 
BRANCH  17   3
ATOM      3  O   UNL     1      11.195  13.021  26.041  0.00  0.00    -0.392 OA
ATOM     33  H   UNL     1      11.266  12.260  25.440  0.00  0.00    +0.210 HD
ENDBRANCH  17   3
ENDBRANCH  11  17
TORSDOF 8
ENDMDL
MODEL 4
REMARK VINA RESULT:      -6.4     29.002     31.283
REMARK  Name = 28961322
REMARK  8 active torsions:
REMARK  status: ('A' for Active; 'I' for Inactive)
REMARK    1  A    between atoms: O_2  and  C_10
REMARK    2  A    between atoms: O_3  and  C_17
REMARK    3  A    between atoms: N_5  and  C_8
REMARK    4  A    between atoms: N_6  and  C_18
REMARK    5  A    between atoms: N_7  and  C_14
REMARK    6  A    between atoms: C_9  and  C_14
REMARK    7  A    between atoms: C_11  and  C_17
REMARK    8  A    between atoms: C_19  and  C_22
REMARK                            x       y       z     vdW  Elec       q    Type
REMARK                         _______ _______ _______ _____ _____    ______ ____
ROOT
ATOM      1  O   UNL     1      12.946   9.278  18.914  0.00  0.00    -0.365 OA
ATOM      8  C   UNL     1      12.074  10.291  20.884  0.00  0.00    +0.118 C 
ATOM      9  C   UNL     1      13.044  10.480  19.709  0.00  0.00    +0.155 C 
ATOM     10  C   UNL     1      11.998   8.778  21.024  0.00  0.00    +0.165 C 
ATOM     11  C   UNL     1      12.047   8.357  19.561  0.00  0.00    +0.174 C 
ENDROOT
BRANCH   8   5
ATOM      5  N   UNL     1      12.396  11.010  22.103  0.00  0.00    -0.292 NA
ATOM      6  N   UNL     1      11.964  12.883  24.216  0.00  0.00    -0.327 N 
ATOM     12  C   UNL     1      12.475  12.453  21.844  0.00  0.00    +0.104 C 
ATOM     13  C   UNL     1      11.390  10.744  23.139  0.00  0.00    +0.104 C 
ATOM     15  C   UNL     1      12.868  13.218  23.109  0.00  0.00    +0.120 C 
ATOM     16  C   UNL     1      11.747  11.451  24.448  0.00  0.00    +0.120 C 
BRANCH   6  18
ATOM     18  C   UNL     1      11.872  13.781  25.286  0.00  0.00    +0.030 A 
ATOM     20  C   UNL     1      13.020  14.412  25.767  0.00  0.00    +0.023 A 
ATOM     21  C   UNL     1      10.633  14.043  25.872  0.00  0.00    +0.023 A 
ATOM     23  C   UNL     1      12.928  15.307  26.833  0.00  0.00    +0.002 A 
ATOM     24  C   UNL     1      10.543  14.939  26.938  0.00  0.00    +0.002 A 
ATOM     25  C   UNL     1      11.690  15.570  27.419  0.00  0.00    +0.000 A 
ENDBRANCH   6  18
ENDBRANCH   8   5
BRANCH  10   2
ATOM      2  O   UNL     1      13.122   8.263  21.725  0.00  0.00    -0.388 OA
ATOM     31  H   UNL     1      12.791   7.642  22.397  0.00  0.00    +0.210 HD
ENDBRANCH  10   2
BRANCH   9  14
ATOM     14  C   UNL     1      14.514  10.672  20.060  0.00  0.00    +0.137 C 
BRANCH  14   7
ATOM      4  O   UNL     1      16.503   9.542  21.796  0.00  0.00    -0.270 OA
ATOM      7  N   UNL     1      15.259   9.468  19.839  0.00  0.00    -0.309 N 
ATOM     19  C   UNL     1      16.209   8.991  20.738  0.00  0.00    +0.244 C 
ATOM     32  H   UNL     1      15.114   9.002  18.950  0.00  0.00    +0.149 HD
BRANCH  19  22
ATOM     22  C   UNL     1      16.914   7.743  20.349  0.00  0.00    +0.037 A 
ATOM     26  C   UNL     1      16.391   6.931  19.342  0.00  0.00    +0.013 A 
ATOM     27  C   UNL     1      18.098   7.381  20.991  0.00  0.00    +0.013 A 
ATOM     28  C   UNL     1      17.052   5.758  18.977  0.00  0.00    +0.001 A 
ATOM     29  C   UNL     1      18.760   6.209  20.626  0.00  0.00    +0.001 A 
ATOM     30  C   UNL     1      18.237   5.398  19.619  0.00  0.00    +0.000 A 
ENDBRANCH  19  22
ENDBRANCH  14   7
ENDBRANCH   9  14
BRANCH  11  17
ATOM     17  C   UNL     1      12.515   6.936  19.304  0.00  0.00    +0.190 C 
BRANCH  17   3
ATOM      3  O   UNL     1      11.774   6.053  20.129  0.00  0.00    -0.392 OA
ATOM     33  H   UNL     1      12.001   5.147  19.857  0.00  0.00    +0.210 HD
ENDBRANCH  17   3
ENDBRANCH  11  17
TORSDOF 8
ENDMDL
MODEL 5
REMARK VINA RESULT:      -6.3     29.101     32.005
REMARK  Name = 28961322
REMARK  8 active torsions:
REMARK  status: ('A' for Active; 'I' for Inactive)
REMARK    1  A    between atoms: O_2  and  C_10
REMARK    2  A    between atoms: O_3  and  C_17
REMARK    3  A    between atoms: N_5  and  C_8
REMARK    4  A    between atoms: N_6  and  C_18
REMARK    5  A    between atoms: N_7  and  C_14
REMARK    6  A    between atoms: C_9  and  C_14
REMARK    7  A    between atoms: C_11  and  C_17
REMARK    8  A    between atoms: C_19  and  C_22
REMARK                            x       y       z     vdW  Elec       q    Type
REMARK                         _______ _______ _______ _____ _____    ______ ____
ROOT
ATOM      1  O   UNL     1      11.182   7.746  20.341  0.00  0.00    -0.365 OA
ATOM      8  C   UNL     1      13.265   8.667  21.033  0.00  0.00    +0.118 C 
ATOM      9  C   UNL     1      12.216   8.660  19.913  0.00  0.00    +0.155 C 
ATOM     10  C   UNL     1      13.081   7.304  21.682  0.00  0.00    +0.165 C 
ATOM     11  C   UNL     1      11.567   7.153  21.595  0.00  0.00    +0.174 C 
ENDROOT
BRANCH   8   5
ATOM      5  N   UNL     1      14.626   8.985  20.636  0.00  0.00    -0.292 NA
ATOM      6  N   UNL     1      17.234  10.110  20.938  0.00  0.00    -0.327 N 
ATOM     12  C   UNL     1      14.818  10.439  20.578  0.00  0.00    +0.104 C 
ATOM     13  C   UNL     1      15.587   8.392  21.574  0.00  0.00    +0.104 C 
ATOM     15  C   UNL     1      16.231  10.788  20.107  0.00  0.00    +0.120 C 
ATOM     16  C   UNL     1      17.027   8.672  21.137  0.00  0.00    +0.120 C 
BRANCH   6  18
ATOM     18  C   UNL     1      18.531  10.635  20.964  0.00  0.00    +0.030 A 
ATOM     20  C   UNL     1      19.603   9.826  21.343  0.00  0.00    +0.023 A 
ATOM     21  C   UNL     1      18.752  11.967  20.613  0.00  0.00    +0.023 A 
ATOM     23  C   UNL     1      20.896  10.349  21.368  0.00  0.00    +0.002 A 
ATOM     24  C   UNL     1      20.045  12.489  20.639  0.00  0.00    +0.002 A 
ATOM     25  C   UNL     1      21.117  11.680  21.017  0.00  0.00    +0.000 A 
ENDBRANCH   6  18
ENDBRANCH   8   5
BRANCH  10   2
ATOM      2  O   UNL     1      13.724   6.280  20.935  0.00  0.00    -0.388 OA
ATOM     31  H   UNL     1      14.094   6.688  20.134  0.00  0.00    +0.210 HD
ENDBRANCH  10   2
BRANCH   9  14
ATOM     14  C   UNL     1      12.687   8.201  18.538  0.00  0.00    +0.137 C 
BRANCH  14   7
ATOM      4  O   UNL     1      13.301   8.364  15.739  0.00  0.00    -0.270 OA
ATOM      7  N   UNL     1      13.454   9.222  17.889  0.00  0.00    -0.309 N 
ATOM     19  C   UNL     1      13.704   9.223  16.519  0.00  0.00    +0.244 C 
ATOM     32  H   UNL     1      13.875   9.924  18.488  0.00  0.00    +0.149 HD
BRANCH  19  22
ATOM     22  C   UNL     1      14.539  10.338  16.003  0.00  0.00    +0.037 A 
ATOM     26  C   UNL     1      14.692  11.502  16.758  0.00  0.00    +0.013 A 
ATOM     27  C   UNL     1      15.170  10.222  14.765  0.00  0.00    +0.013 A 
ATOM     28  C   UNL     1      15.475  12.549  16.274  0.00  0.00    +0.001 A 
ATOM     29  C   UNL     1      15.953  11.270  14.281  0.00  0.00    +0.001 A 
ATOM     30  C   UNL     1      16.107  12.433  15.035  0.00  0.00    +0.000 A 
ENDBRANCH  19  22
ENDBRANCH  14   7
ENDBRANCH   9  14
BRANCH  11  17
ATOM     17  C   UNL     1      11.048   5.728  21.656  0.00  0.00    +0.190 C 
BRANCH  17   3
ATOM      3  O   UNL     1      11.196   5.130  20.379  0.00  0.00    -0.392 OA
ATOM     33  H   UNL     1      12.034   5.455  20.006  0.00  0.00    +0.210 HD
ENDBRANCH  17   3
ENDBRANCH  11  17
TORSDOF 8
ENDMDL
MODEL 6
REMARK VINA RESULT:      -6.3     28.752     31.062
REMARK  Name = 28961322
REMARK  8 active torsions:
REMARK  status: ('A' for Active; 'I' for Inactive)
REMARK    1  A    between atoms: O_2  and  C_10
REMARK    2  A    between atoms: O_3  and  C_17
REMARK    3  A    between atoms: N_5  and  C_8
REMARK    4  A    between atoms: N_6  and  C_18
REMARK    5  A    between atoms: N_7  and  C_14
REMARK    6  A    between atoms: C_9  and  C_14
REMARK    7  A    between atoms: C_11  and  C_17
REMARK    8  A    between atoms: C_19  and  C_22
REMARK                            x       y       z     vdW  Elec       q    Type
REMARK                         _______ _______ _______ _____ _____    ______ ____
ROOT
ATOM      1  O   UNL     1      10.941   7.694  20.419  0.00  0.00    -0.365 OA
ATOM      8  C   UNL     1      12.146   9.428  19.319  0.00  0.00    +0.118 C 
ATOM      9  C   UNL     1      11.725   7.955  19.233  0.00  0.00    +0.155 C 
ATOM     10  C   UNL     1      12.130   9.702  20.815  0.00  0.00    +0.165 C 
ATOM     11  C   UNL     1      10.921   8.877  21.239  0.00  0.00    +0.174 C 
ENDROOT
BRANCH   8   5
ATOM      5  N   UNL     1      13.378   9.785  18.637  0.00  0.00    -0.292 NA
ATOM      6  N   UNL     1      15.029  11.282  16.852  0.00  0.00    -0.327 N 
ATOM     12  C   UNL     1      13.222   9.640  17.185  0.00  0.00    +0.104 C 
ATOM     13  C   UNL     1      13.766  11.163  18.963  0.00  0.00    +0.104 C 
ATOM     15  C   UNL     1      14.530   9.959  16.458  0.00  0.00    +0.120 C 
ATOM     16  C   UNL     1      15.093  11.533  18.295  0.00  0.00    +0.120 C 
BRANCH   6  18
ATOM     18  C   UNL     1      15.928  11.929  15.995  0.00  0.00    +0.030 A 
ATOM     20  C   UNL     1      16.016  11.544  14.657  0.00  0.00    +0.023 A 
ATOM     21  C   UNL     1      16.737  12.956  16.481  0.00  0.00    +0.023 A 
ATOM     23  C   UNL     1      16.911  12.189  13.804  0.00  0.00    +0.002 A 
ATOM     24  C   UNL     1      17.633  13.600  15.626  0.00  0.00    +0.002 A 
ATOM     25  C   UNL     1      17.720  13.216  14.288  0.00  0.00    +0.000 A 
ENDBRANCH   6  18
ENDBRANCH   8   5
BRANCH  10   2
ATOM      2  O   UNL     1      13.307   9.215  21.446  0.00  0.00    -0.388 OA
ATOM     31  H   UNL     1      13.033   8.584  22.134  0.00  0.00    +0.210 HD
ENDBRANCH  10   2
BRANCH   9  14
ATOM     14  C   UNL     1      12.848   6.925  19.197  0.00  0.00    +0.137 C 
BRANCH  14   7
ATOM      4  O   UNL     1      15.567   6.226  18.594  0.00  0.00    -0.270 OA
ATOM      7  N   UNL     1      14.023   7.420  19.849  0.00  0.00    -0.309 N 
ATOM     19  C   UNL     1      15.309   7.025  19.490  0.00  0.00    +0.244 C 
ATOM     32  H   UNL     1      13.877   8.031  20.647  0.00  0.00    +0.149 HD
BRANCH  19  22
ATOM     22  C   UNL     1      16.422   7.610  20.283  0.00  0.00    +0.037 A 
ATOM     26  C   UNL     1      16.441   8.979  20.554  0.00  0.00    +0.013 A 
ATOM     27  C   UNL     1      17.448   6.792  20.754  0.00  0.00    +0.013 A 
ATOM     28  C   UNL     1      17.485   9.528  21.298  0.00  0.00    +0.001 A 
ATOM     29  C   UNL     1      18.493   7.342  21.497  0.00  0.00    +0.001 A 
ATOM     30  C   UNL     1      18.511   8.709  21.770  0.00  0.00    +0.000 A 
ENDBRANCH  19  22
ENDBRANCH  14   7
ENDBRANCH   9  14
BRANCH  11  17
ATOM     17  C   UNL     1      10.886   8.472  22.702  0.00  0.00    +0.190 C 
BRANCH  17   3
ATOM      3  O   UNL     1      11.245   9.590  23.496  0.00  0.00    -0.392 OA
ATOM     33  H   UNL     1      11.021  10.388  22.987  0.00  0.00    +0.210 HD
ENDBRANCH  17   3
ENDBRANCH  11  17
TORSDOF 8
ENDMDL
MODEL 7
REMARK VINA RESULT:      -6.2      1.974      2.678
REMARK  Name = 28961322
REMARK  8 active torsions:
REMARK  status: ('A' for Active; 'I' for Inactive)
REMARK    1  A    between atoms: O_2  and  C_10
REMARK    2  A    between atoms: O_3  and  C_17
REMARK    3  A    between atoms: N_5  and  C_8
REMARK    4  A    between atoms: N_6  and  C_18
REMARK    5  A    between atoms: N_7  and  C_14
REMARK    6  A    between atoms: C_9  and  C_14
REMARK    7  A    between atoms: C_11  and  C_17
REMARK    8  A    between atoms: C_19  and  C_22
REMARK                            x       y       z     vdW  Elec       q    Type
REMARK                         _______ _______ _______ _____ _____    ______ ____
ROOT
ATOM      1  O   UNL     1      -8.171 -11.713  17.108  0.00  0.00    -0.365 OA
ATOM      8  C   UNL     1      -9.656  -9.887  16.748  0.00  0.00    +0.118 C 
ATOM      9  C   UNL     1      -9.071 -11.160  16.122  0.00  0.00    +0.155 C 
ATOM     10  C   UNL     1      -8.581  -9.469  17.740  0.00  0.00    +0.165 C 
ATOM     11  C   UNL     1      -8.119 -10.831  18.245  0.00  0.00    +0.174 C 
ENDROOT
BRANCH   8   5
ATOM      5  N   UNL     1     -10.080  -8.853  15.822  0.00  0.00    -0.292 NA
ATOM      6  N   UNL     1     -11.855  -6.899  14.730  0.00  0.00    -0.327 N 
ATOM     12  C   UNL     1     -11.291  -9.269  15.105  0.00  0.00    +0.104 C 
ATOM     13  C   UNL     1     -10.330  -7.594  16.535  0.00  0.00    +0.104 C 
ATOM     15  C   UNL     1     -11.716  -8.211  14.085  0.00  0.00    +0.120 C 
ATOM     16  C   UNL     1     -10.723  -6.479  15.563  0.00  0.00    +0.120 C 
BRANCH   6  18
ATOM     18  C   UNL     1     -12.646  -5.934  14.096  0.00  0.00    +0.030 A 
ATOM     20  C   UNL     1     -14.037  -6.017  14.166  0.00  0.00    +0.023 A 
ATOM     21  C   UNL     1     -12.043  -4.890  13.393  0.00  0.00    +0.023 A 
ATOM     23  C   UNL     1     -14.825  -5.054  13.534  0.00  0.00    +0.002 A 
ATOM     24  C   UNL     1     -12.832  -3.928  12.762  0.00  0.00    +0.002 A 
ATOM     25  C   UNL     1     -14.223  -4.011  12.833  0.00  0.00    +0.000 A 
ENDBRANCH   6  18
ENDBRANCH   8   5
BRANCH  10   2
ATOM      2  O   UNL     1      -7.511  -8.792  17.094  0.00  0.00    -0.388 OA
ATOM     31  H   UNL     1      -7.297  -8.006  17.625  0.00  0.00    +0.210 HD
ENDBRANCH  10   2
BRANCH   9  14
ATOM     14  C   UNL     1      -8.278 -10.985  14.832  0.00  0.00    +0.137 C 
BRANCH  14   7
ATOM      4  O   UNL     1      -6.217  -9.607  13.384  0.00  0.00    -0.270 OA
ATOM      7  N   UNL     1      -6.868 -11.048  15.081  0.00  0.00    -0.309 N 
ATOM     19  C   UNL     1      -5.936 -10.343  14.325  0.00  0.00    +0.244 C 
ATOM     32  H   UNL     1      -6.563 -11.694  15.801  0.00  0.00    +0.149 HD
BRANCH  19  22
ATOM     22  C   UNL     1      -4.509 -10.537  14.693  0.00  0.00    +0.037 A 
ATOM     26  C   UNL     1      -4.138 -10.597  16.037  0.00  0.00    +0.013 A 
ATOM     27  C   UNL     1      -3.542 -10.659  13.696  0.00  0.00    +0.013 A 
ATOM     28  C   UNL     1      -2.799 -10.778  16.383  0.00  0.00    +0.001 A 
ATOM     29  C   UNL     1      -2.203 -10.840  14.042  0.00  0.00    +0.001 A 
ATOM     30  C   UNL     1      -1.831 -10.901  15.385  0.00  0.00    +0.000 A 
ENDBRANCH  19  22
ENDBRANCH  14   7
ENDBRANCH   9  14
BRANCH  11  17
ATOM     17  C   UNL     1      -6.725 -10.867  18.845  0.00  0.00    +0.190 C 
BRANCH  17   3
ATOM      3  O   UNL     1      -6.654  -9.920  19.897  0.00  0.00    -0.392 OA
ATOM     33  H   UNL     1      -6.879 -10.387  20.720  0.00  0.00    +0.210 HD
ENDBRANCH  17   3
ENDBRANCH  11  17
TORSDOF 8
ENDMDL
MODEL 8
REMARK VINA RESULT:      -6.2      3.742      5.932
REMARK  Name = 28961322
REMARK  8 active torsions:
REMARK  status: ('A' for Active; 'I' for Inactive)
REMARK    1  A    between atoms: O_2  and  C_10
REMARK    2  A    between atoms: O_3  and  C_17
REMARK    3  A    between atoms: N_5  and  C_8
REMARK    4  A    between atoms: N_6  and  C_18
REMARK    5  A    between atoms: N_7  and  C_14
REMARK    6  A    between atoms: C_9  and  C_14
REMARK    7  A    between atoms: C_11  and  C_17
REMARK    8  A    between atoms: C_19  and  C_22
REMARK                            x       y       z     vdW  Elec       q    Type
REMARK                         _______ _______ _______ _____ _____    ______ ____
ROOT
ATOM      1  O   UNL     1      -4.178 -12.486  17.174  0.00  0.00    -0.365 OA
ATOM      8  C   UNL     1      -6.356 -11.539  17.005  0.00  0.00    +0.118 C 
ATOM      9  C   UNL     1      -5.031 -11.757  16.263  0.00  0.00    +0.155 C 
ATOM     10  C   UNL     1      -5.940 -11.576  18.467  0.00  0.00    +0.165 C 
ATOM     11  C   UNL     1      -4.867 -12.658  18.427  0.00  0.00    +0.174 C 
ENDROOT
BRANCH   8   5
ATOM      5  N   UNL     1      -7.129 -10.375  16.610  0.00  0.00    -0.292 NA
ATOM      6  N   UNL     1      -9.503  -8.891  16.045  0.00  0.00    -0.327 N 
ATOM     12  C   UNL     1      -7.915 -10.663  15.404  0.00  0.00    +0.104 C 
ATOM     13  C   UNL     1      -8.021  -9.956  17.699  0.00  0.00    +0.104 C 
ATOM     15  C   UNL     1      -8.691  -9.427  14.946  0.00  0.00    +0.120 C 
ATOM     16  C   UNL     1      -8.801  -8.695  17.317  0.00  0.00    +0.120 C 
BRANCH   6  18
ATOM     18  C   UNL     1     -10.592  -8.073  15.721  0.00  0.00    +0.030 A 
ATOM     20  C   UNL     1     -10.469  -6.685  15.796  0.00  0.00    +0.023 A 
ATOM     21  C   UNL     1     -11.801  -8.646  15.325  0.00  0.00    +0.023 A 
ATOM     23  C   UNL     1     -11.554  -5.871  15.472  0.00  0.00    +0.002 A 
ATOM     24  C   UNL     1     -12.886  -7.831  15.002  0.00  0.00    +0.002 A 
ATOM     25  C   UNL     1     -12.762  -6.443  15.076  0.00  0.00    +0.000 A 
ENDBRANCH   6  18
ENDBRANCH   8   5
BRANCH  10   2
ATOM      2  O   UNL     1      -5.378 -10.338  18.880  0.00  0.00    -0.388 OA
ATOM     31  H   UNL     1      -5.216  -9.807  18.081  0.00  0.00    +0.210 HD
ENDBRANCH  10   2
BRANCH   9  14
ATOM     14  C   UNL     1      -4.273 -10.505  15.837  0.00  0.00    +0.137 C 
BRANCH  14   7
ATOM      4  O   UNL     1      -2.724 -11.285  13.549  0.00  0.00    -0.270 OA
ATOM      7  N   UNL     1      -4.543 -10.179  14.468  0.00  0.00    -0.309 N 
ATOM     19  C   UNL     1      -3.735 -10.601  13.417  0.00  0.00    +0.244 C 
ATOM     32  H   UNL     1      -5.327  -9.557  14.297  0.00  0.00    +0.149 HD
BRANCH  19  22
ATOM     22  C   UNL     1      -4.138 -10.156  12.057  0.00  0.00    +0.037 A 
ATOM     26  C   UNL     1      -3.164  -9.835  11.111  0.00  0.00    +0.013 A 
ATOM     27  C   UNL     1      -5.490 -10.058  11.728  0.00  0.00    +0.013 A 
ATOM     28  C   UNL     1      -3.541  -9.417   9.836  0.00  0.00    +0.001 A 
ATOM     29  C   UNL     1      -5.867  -9.639  10.452  0.00  0.00    +0.001 A 
ATOM     30  C   UNL     1      -4.894  -9.319   9.506  0.00  0.00    +0.000 A 
ENDBRANCH  19  22
ENDBRANCH  14   7
ENDBRANCH   9  14
BRANCH  11  17
ATOM     17  C   UNL     1      -3.859 -12.622  19.561  0.00  0.00    +0.190 C 
BRANCH  17   3
ATOM      3  O   UNL     1      -2.716 -11.899  19.137  0.00  0.00    -0.392 OA
ATOM     33  H   UNL     1      -3.026 -11.036  18.812  0.00  0.00    +0.210 HD
ENDBRANCH  17   3
ENDBRANCH  11  17
TORSDOF 8
ENDMDL
MODEL 9
REMARK VINA RESULT:      -6.1     29.106     32.519
REMARK  Name = 28961322
REMARK  8 active torsions:
REMARK  status: ('A' for Active; 'I' for Inactive)
REMARK    1  A    between atoms: O_2  and  C_10
REMARK    2  A    between atoms: O_3  and  C_17
REMARK    3  A    between atoms: N_5  and  C_8
REMARK    4  A    between atoms: N_6  and  C_18
REMARK    5  A    between atoms: N_7  and  C_14
REMARK    6  A    between atoms: C_9  and  C_14
REMARK    7  A    between atoms: C_11  and  C_17
REMARK    8  A    between atoms: C_19  and  C_22
REMARK                            x       y       z     vdW  Elec       q    Type
REMARK                         _______ _______ _______ _____ _____    ______ ____
ROOT
ATOM      1  O   UNL     1      12.420   9.477  19.142  0.00  0.00    -0.365 OA
ATOM      8  C   UNL     1      14.176   7.931  19.578  0.00  0.00    +0.118 C 
ATOM      9  C   UNL     1      13.636   9.328  19.909  0.00  0.00    +0.155 C 
ATOM     10  C   UNL     1      13.606   7.662  18.193  0.00  0.00    +0.165 C 
ATOM     11  C   UNL     1      12.232   8.306  18.326  0.00  0.00    +0.174 C 
ENDROOT
BRANCH   8   5
ATOM      5  N   UNL     1      15.612   7.752  19.702  0.00  0.00    -0.292 NA
ATOM      6  N   UNL     1      18.017   6.587  20.711  0.00  0.00    -0.327 N 
ATOM     12  C   UNL     1      16.047   8.023  21.078  0.00  0.00    +0.104 C 
ATOM     13  C   UNL     1      15.997   6.389  19.316  0.00  0.00    +0.104 C 
ATOM     15  C   UNL     1      17.566   7.893  21.209  0.00  0.00    +0.120 C 
ATOM     16  C   UNL     1      17.514   6.204  19.388  0.00  0.00    +0.120 C 
BRANCH   6  18
ATOM     18  C   UNL     1      19.258   6.108  21.147  0.00  0.00    +0.030 A 
ATOM     20  C   UNL     1      19.941   5.152  20.394  0.00  0.00    +0.023 A 
ATOM     21  C   UNL     1      19.811   6.586  22.336  0.00  0.00    +0.023 A 
ATOM     23  C   UNL     1      21.177   4.676  20.829  0.00  0.00    +0.002 A 
ATOM     24  C   UNL     1      21.048   6.109  22.770  0.00  0.00    +0.002 A 
ATOM     25  C   UNL     1      21.731   5.154  22.016  0.00  0.00    +0.000 A 
ENDBRANCH   6  18
ENDBRANCH   8   5
BRANCH  10   2
ATOM      2  O   UNL     1      14.364   8.315  17.183  0.00  0.00    -0.388 OA
ATOM     31  H   UNL     1      15.240   8.514  17.555  0.00  0.00    +0.210 HD
ENDBRANCH  10   2
BRANCH   9  14
ATOM     14  C   UNL     1      14.536  10.509  19.565  0.00  0.00    +0.137 C 
BRANCH  14   7
ATOM      4  O   UNL     1      16.330  12.174  18.065  0.00  0.00    -0.270 OA
ATOM      7  N   UNL     1      14.425  10.856  18.179  0.00  0.00    -0.309 N 
ATOM     19  C   UNL     1      15.345  11.673  17.529  0.00  0.00    +0.244 C 
ATOM     32  H   UNL     1      13.594  10.531  17.695  0.00  0.00    +0.149 HD
BRANCH  19  22
ATOM     22  C   UNL     1      15.073  11.960  16.097  0.00  0.00    +0.037 A 
ATOM     26  C   UNL     1      15.673  11.184  15.104  0.00  0.00    +0.013 A 
ATOM     27  C   UNL     1      14.219  13.005  15.744  0.00  0.00    +0.013 A 
ATOM     28  C   UNL     1      15.419  11.454  13.759  0.00  0.00    +0.001 A 
ATOM     29  C   UNL     1      13.965  13.274  14.400  0.00  0.00    +0.001 A 
ATOM     30  C   UNL     1      14.564  12.499  13.407  0.00  0.00    +0.000 A 
ENDBRANCH  19  22
ENDBRANCH  14   7
ENDBRANCH   9  14
BRANCH  11  17
ATOM     17  C   UNL     1      11.569   8.707  17.020  0.00  0.00    +0.190 C 
BRANCH  17   3
ATOM      3  O   UNL     1      12.182   9.892  16.539  0.00  0.00    -0.392 OA
ATOM     33  H   UNL     1      12.547  10.360  17.310  0.00  0.00    +0.210 HD
ENDBRANCH  17   3
ENDBRANCH  11  17
TORSDOF 8
ENDMDL
MODEL 10
REMARK VINA RESULT:      -6.1      6.872     11.804
REMARK  Name = 28961322
REMARK  8 active torsions:
REMARK  status: ('A' for Active; 'I' for Inactive)
REMARK    1  A    between atoms: O_2  and  C_10
REMARK    2  A    between atoms: O_3  and  C_17
REMARK    3  A    between atoms: N_5  and  C_8
REMARK    4  A    between atoms: N_6  and  C_18
REMARK    5  A    between atoms: N_7  and  C_14
REMARK    6  A    between atoms: C_9  and  C_14
REMARK    7  A    between atoms: C_11  and  C_17
REMARK    8  A    between atoms: C_19  and  C_22
REMARK                            x       y       z     vdW  Elec       q    Type
REMARK                         _______ _______ _______ _____ _____    ______ ____
ROOT
ATOM      1  O   UNL     1     -10.290  -7.809   6.885  0.00  0.00    -0.365 OA
ATOM      8  C   UNL     1      -8.330  -8.863   7.729  0.00  0.00    +0.118 C 
ATOM      9  C   UNL     1      -9.538  -7.995   8.105  0.00  0.00    +0.155 C 
ATOM     10  C   UNL     1      -8.137  -8.560   6.251  0.00  0.00    +0.165 C 
ATOM     11  C   UNL     1      -9.587  -8.438   5.798  0.00  0.00    +0.174 C 
ENDROOT
BRANCH   8   5
ATOM      5  N   UNL     1      -7.144  -8.704   8.554  0.00  0.00    -0.292 NA
ATOM      6  N   UNL     1      -5.047  -9.557  10.295  0.00  0.00    -0.327 N 
ATOM     12  C   UNL     1      -7.436  -9.060   9.948  0.00  0.00    +0.104 C 
ATOM     13  C   UNL     1      -6.048  -9.538   8.045  0.00  0.00    +0.104 C 
ATOM     15  C   UNL     1      -6.210  -8.844  10.837  0.00  0.00    +0.120 C 
ATOM     16  C   UNL     1      -4.775  -9.338   8.870  0.00  0.00    +0.120 C 
BRANCH   6  18
ATOM     18  C   UNL     1      -3.991  -9.853  11.165  0.00  0.00    +0.030 A 
ATOM     20  C   UNL     1      -2.674  -9.622  10.767  0.00  0.00    +0.023 A 
ATOM     21  C   UNL     1      -4.256 -10.379  12.429  0.00  0.00    +0.023 A 
ATOM     23  C   UNL     1      -1.622  -9.917  11.634  0.00  0.00    +0.002 A 
ATOM     24  C   UNL     1      -3.203 -10.674  13.296  0.00  0.00    +0.002 A 
ATOM     25  C   UNL     1      -1.887 -10.442  12.898  0.00  0.00    +0.000 A 
ENDBRANCH   6  18
ENDBRANCH   8   5
BRANCH  10   2
ATOM      2  O   UNL     1      -7.453  -7.329   6.057  0.00  0.00    -0.388 OA
ATOM     31  H   UNL     1      -7.506  -7.109   5.111  0.00  0.00    +0.210 HD
ENDBRANCH  10   2
BRANCH   9  14
ATOM     14  C   UNL     1      -9.237  -6.610   8.667  0.00  0.00    +0.137 C 
BRANCH  14   7
ATOM      4  O   UNL     1      -9.738  -3.788   8.830  0.00  0.00    -0.270 OA
ATOM      7  N   UNL     1     -10.428  -5.980   9.151  0.00  0.00    -0.309 N 
ATOM     19  C   UNL     1     -10.587  -4.598   9.195  0.00  0.00    +0.244 C 
ATOM     32  H   UNL     1     -11.142  -6.591   9.534  0.00  0.00    +0.149 HD
BRANCH  19  22
ATOM     22  C   UNL     1     -11.873  -4.100   9.750  0.00  0.00    +0.037 A 
ATOM     26  C   UNL     1     -12.027  -3.953  11.128  0.00  0.00    +0.013 A 
ATOM     27  C   UNL     1     -12.926  -3.782   8.892  0.00  0.00    +0.013 A 
ATOM     28  C   UNL     1     -13.233  -3.486  11.650  0.00  0.00    +0.001 A 
ATOM     29  C   UNL     1     -14.133  -3.316   9.414  0.00  0.00    +0.001 A 
ATOM     30  C   UNL     1     -14.287  -3.168  10.792  0.00  0.00    +0.000 A 
ENDBRANCH  19  22
ENDBRANCH  14   7
ENDBRANCH   9  14
BRANCH  11  17
ATOM     17  C   UNL     1      -9.810  -7.638   4.527  0.00  0.00    +0.190 C 
BRANCH  17   3
ATOM      3  O   UNL     1      -8.953  -8.139   3.514  0.00  0.00    -0.392 OA
ATOM     33  H   UNL     1      -8.602  -7.372   3.030  0.00  0.00    +0.210 HD
ENDBRANCH  17   3
ENDBRANCH  11  17
TORSDOF 8
ENDMDL
