MODEL 1
REMARK VINA RESULT:      -7.0      0.000      0.000
REMARK  Name = 51137566
REMARK  6 active torsions:
REMARK  status: ('A' for Active; 'I' for Inactive)
REMARK    1  A    between atoms: N_2  and  C_10
REMARK    2  A    between atoms: C_6  and  C_11
REMARK    3  A    between atoms: C_10  and  C_12
REMARK    4  A    between atoms: C_16  and  C_18
REMARK    5  A    between atoms: C_18  and  C_20
REMARK    6  A    between atoms: C_20  and  C_23
REMARK                            x       y       z     vdW  Elec       q    Type
REMARK                         _______ _______ _______ _____ _____    ______ ____
ROOT
ATOM      2  N   UNL     1      15.403   7.232  19.798  0.00  0.00    -0.297 NA
ATOM      6  C   UNL     1      13.111   6.943  20.203  0.00  0.00    +0.092 C 
ATOM      7  C   UNL     1      14.473   7.004  20.906  0.00  0.00    +0.097 C 
ATOM      8  C   UNL     1      13.308   7.745  18.904  0.00  0.00    +0.029 C 
ATOM      9  C   UNL     1      14.750   8.234  18.957  0.00  0.00    +0.085 C 
ENDROOT
BRANCH   6  11
ATOM      1  O   UNL     1      12.132   8.628  21.685  0.00  0.00    -0.424 OA
ATOM      3  N   UNL     1      10.829   6.840  21.349  0.00  0.00    -0.112 NA
ATOM      5  N   UNL     1      10.160   7.704  22.196  0.00  0.00    -0.112 NA
ATOM     11  C   UNL     1      11.975   7.420  21.077  0.00  0.00    +0.222 A 
ATOM     16  C   UNL     1      10.958   8.733  22.364  0.00  0.00    +0.217 A 
BRANCH  16  18
ATOM     18  C   UNL     1      10.760   9.950  23.163  0.00  0.00    +0.097 C 
BRANCH  18  20
ATOM     20  C   UNL     1      11.161  11.236  22.410  0.00  0.00    +0.006 C 
ATOM     23  C   UNL     1      11.688  12.321  23.337  0.00  0.00    +0.004 C 
ENDBRANCH  18  20
ENDBRANCH  16  18
ENDBRANCH   6  11
BRANCH   2  10
ATOM     10  C   UNL     1      16.716   7.662  20.254  0.00  0.00    +0.121 C 
BRANCH  10  12
ATOM      4  N   UNL     1      18.865   4.861  19.215  0.00  0.00    -0.360 N 
ATOM     12  C   UNL     1      17.758   6.594  20.052  0.00  0.00    -0.008 A 
ATOM     13  C   UNL     1      18.918   6.380  20.848  0.00  0.00    +0.004 A 
ATOM     14  C   UNL     1      17.753   5.644  19.056  0.00  0.00    +0.088 A 
ATOM     15  C   UNL     1      19.595   5.288  20.301  0.00  0.00    +0.047 A 
ATOM     17  C   UNL     1      19.459   7.013  21.985  0.00  0.00    +0.010 A 
ATOM     19  C   UNL     1      20.790   4.794  20.837  0.00  0.00    +0.026 A 
ATOM     21  C   UNL     1      20.654   6.531  22.531  0.00  0.00    +0.001 A 
ATOM     22  C   UNL     1      21.308   5.439  21.964  0.00  0.00    +0.002 A 
ATOM     24  H   UNL     1      19.113   4.083  18.621  0.00  0.00    +0.165 HD
ENDBRANCH  10  12
ENDBRANCH   2  10
TORSDOF 5
ENDMDL
MODEL 2
REMARK VINA RESULT:      -6.7     16.260     18.341
REMARK  Name = 51137566
REMARK  6 active torsions:
REMARK  status: ('A' for Active; 'I' for Inactive)
REMARK    1  A    between atoms: N_2  and  C_10
REMARK    2  A    between atoms: C_6  and  C_11
REMARK    3  A    between atoms: C_10  and  C_12
REMARK    4  A    between atoms: C_16  and  C_18
REMARK    5  A    between atoms: C_18  and  C_20
REMARK    6  A    between atoms: C_20  and  C_23
REMARK                            x       y       z     vdW  Elec       q    Type
REMARK                         _______ _______ _______ _____ _____    ______ ____
ROOT
ATOM      2  N   UNL     1       9.288   7.474   2.366  0.00  0.00    -0.297 NA
ATOM      6  C   UNL     1       8.270   7.170   4.458  0.00  0.00    +0.092 C 
ATOM      7  C   UNL     1       9.492   6.756   3.627  0.00  0.00    +0.097 C 
ATOM      8  C   UNL     1       7.839   8.524   3.866  0.00  0.00    +0.029 C 
ATOM      9  C   UNL     1       8.848   8.812   2.762  0.00  0.00    +0.085 C 
ENDROOT
BRANCH   6  11
ATOM      1  O   UNL     1       9.376   6.220   6.424  0.00  0.00    -0.424 OA
ATOM      3  N   UNL     1       8.102   8.004   6.868  0.00  0.00    -0.112 NA
ATOM      5  N   UNL     1       8.662   7.572   8.056  0.00  0.00    -0.112 NA
ATOM     11  C   UNL     1       8.546   7.186   5.943  0.00  0.00    +0.222 A 
ATOM     16  C   UNL     1       9.398   6.530   7.749  0.00  0.00    +0.217 A 
BRANCH  16  18
ATOM     18  C   UNL     1      10.220   5.676   8.616  0.00  0.00    +0.097 C 
BRANCH  18  20
ATOM     20  C   UNL     1       9.488   4.396   9.072  0.00  0.00    +0.006 C 
ATOM     23  C   UNL     1       8.787   4.564  10.411  0.00  0.00    +0.004 C 
ENDBRANCH  18  20
ENDBRANCH  16  18
ENDBRANCH   6  11
BRANCH   2  10
ATOM     10  C   UNL     1      10.489   7.507   1.545  0.00  0.00    +0.121 C 
BRANCH  10  12
ATOM      4  N   UNL     1      10.683   4.193  -0.042  0.00  0.00    -0.360 N 
ATOM     12  C   UNL     1      10.835   6.145   1.004  0.00  0.00    -0.008 A 
ATOM     13  C   UNL     1      12.067   5.454   1.171  0.00  0.00    +0.004 A 
ATOM     14  C   UNL     1      10.004   5.344   0.253  0.00  0.00    +0.088 A 
ATOM     15  C   UNL     1      11.946   4.232   0.505  0.00  0.00    +0.047 A 
ATOM     17  C   UNL     1      13.278   5.751   1.828  0.00  0.00    +0.010 A 
ATOM     19  C   UNL     1      12.979   3.289   0.463  0.00  0.00    +0.026 A 
ATOM     21  C   UNL     1      14.320   4.817   1.794  0.00  0.00    +0.001 A 
ATOM     22  C   UNL     1      14.171   3.606   1.121  0.00  0.00    +0.002 A 
ATOM     24  H   UNL     1      10.312   3.425  -0.584  0.00  0.00    +0.165 HD
ENDBRANCH  10  12
ENDBRANCH   2  10
TORSDOF 5
ENDMDL
MODEL 3
REMARK VINA RESULT:      -6.3      1.811      8.146
REMARK  Name = 51137566
REMARK  6 active torsions:
REMARK  status: ('A' for Active; 'I' for Inactive)
REMARK    1  A    between atoms: N_2  and  C_10
REMARK    2  A    between atoms: C_6  and  C_11
REMARK    3  A    between atoms: C_10  and  C_12
REMARK    4  A    between atoms: C_16  and  C_18
REMARK    5  A    between atoms: C_18  and  C_20
REMARK    6  A    between atoms: C_20  and  C_23
REMARK                            x       y       z     vdW  Elec       q    Type
REMARK                         _______ _______ _______ _____ _____    ______ ____
ROOT
ATOM      2  N   UNL     1      12.604   9.275  19.639  0.00  0.00    -0.297 NA
ATOM      6  C   UNL     1      14.885   8.763  19.452  0.00  0.00    +0.092 C 
ATOM      7  C   UNL     1      13.675   8.607  20.382  0.00  0.00    +0.097 C 
ATOM      8  C   UNL     1      14.278   8.930  18.048  0.00  0.00    +0.029 C 
ATOM      9  C   UNL     1      12.772   8.831  18.255  0.00  0.00    +0.085 C 
ENDROOT
BRANCH   6  11
ATOM      1  O   UNL     1      16.877   7.793  20.496  0.00  0.00    -0.424 OA
ATOM      3  N   UNL     1      15.935   6.488  18.942  0.00  0.00    -0.112 NA
ATOM      5  N   UNL     1      17.038   5.826  19.446  0.00  0.00    -0.112 NA
ATOM     11  C   UNL     1      15.879   7.632  19.583  0.00  0.00    +0.222 A 
ATOM     16  C   UNL     1      17.556   6.624  20.349  0.00  0.00    +0.217 A 
BRANCH  16  18
ATOM     18  C   UNL     1      18.736   6.431  21.202  0.00  0.00    +0.097 C 
BRANCH  18  20
ATOM     20  C   UNL     1      19.905   5.741  20.468  0.00  0.00    +0.006 C 
ATOM     23  C   UNL     1      21.260   6.322  20.839  0.00  0.00    +0.004 C 
ENDBRANCH  18  20
ENDBRANCH  16  18
ENDBRANCH   6  11
BRANCH   2  10
ATOM     10  C   UNL     1      11.284   8.961  20.165  0.00  0.00    +0.121 C 
BRANCH  10  12
ATOM      4  N   UNL     1      10.917   9.202  23.818  0.00  0.00    -0.360 N 
ATOM     12  C   UNL     1      11.154   9.343  21.615  0.00  0.00    -0.008 A 
ATOM     13  C   UNL     1      11.169  10.662  22.150  0.00  0.00    +0.004 A 
ATOM     14  C   UNL     1      10.998   8.467  22.666  0.00  0.00    +0.088 A 
ATOM     15  C   UNL     1      11.019  10.545  23.533  0.00  0.00    +0.047 A 
ATOM     17  C   UNL     1      11.295  11.948  21.587  0.00  0.00    +0.010 A 
ATOM     19  C   UNL     1      10.988  11.655  24.386  0.00  0.00    +0.026 A 
ATOM     21  C   UNL     1      11.267  13.066  22.427  0.00  0.00    +0.001 A 
ATOM     22  C   UNL     1      11.116  12.920  23.805  0.00  0.00    +0.002 A 
ATOM     24  H   UNL     1      10.800   8.815  24.744  0.00  0.00    +0.165 HD
ENDBRANCH  10  12
ENDBRANCH   2  10
TORSDOF 5
ENDMDL
MODEL 4
REMARK VINA RESULT:      -6.3      3.156      8.914
REMARK  Name = 51137566
REMARK  6 active torsions:
REMARK  status: ('A' for Active; 'I' for Inactive)
REMARK    1  A    between atoms: N_2  and  C_10
REMARK    2  A    between atoms: C_6  and  C_11
REMARK    3  A    between atoms: C_10  and  C_12
REMARK    4  A    between atoms: C_16  and  C_18
REMARK    5  A    between atoms: C_18  and  C_20
REMARK    6  A    between atoms: C_20  and  C_23
REMARK                            x       y       z     vdW  Elec       q    Type
REMARK                         _______ _______ _______ _____ _____    ______ ____
ROOT
ATOM      2  N   UNL     1      17.171   7.895  20.603  0.00  0.00    -0.297 NA
ATOM      6  C   UNL     1      19.218   6.755  20.486  0.00  0.00    +0.092 C 
ATOM      7  C   UNL     1      18.427   7.751  21.343  0.00  0.00    +0.097 C 
ATOM      8  C   UNL     1      18.143   5.966  19.716  0.00  0.00    +0.029 C 
ATOM      9  C   UNL     1      16.815   6.536  20.197  0.00  0.00    +0.085 C 
ENDROOT
BRANCH   6  11
ATOM      1  O   UNL     1      20.803   4.895  20.640  0.00  0.00    -0.424 OA
ATOM      3  N   UNL     1      20.492   5.990  22.566  0.00  0.00    -0.112 NA
ATOM      5  N   UNL     1      21.403   4.975  22.793  0.00  0.00    -0.112 NA
ATOM     11  C   UNL     1      20.169   5.906  21.296  0.00  0.00    +0.222 A 
ATOM     16  C   UNL     1      21.554   4.363  21.642  0.00  0.00    +0.217 A 
BRANCH  16  18
ATOM     18  C   UNL     1      22.402   3.215  21.297  0.00  0.00    +0.097 C 
BRANCH  18  20
ATOM     20  C   UNL     1      23.540   2.978  22.313  0.00  0.00    +0.006 C 
ATOM     23  C   UNL     1      24.051   1.547  22.302  0.00  0.00    +0.004 C 
ENDBRANCH  18  20
ENDBRANCH  16  18
ENDBRANCH   6  11
BRANCH   2  10
ATOM     10  C   UNL     1      16.128   8.528  21.396  0.00  0.00    +0.121 C 
BRANCH  10  12
ATOM      4  N   UNL     1      13.657   9.747  18.956  0.00  0.00    -0.360 N 
ATOM     12  C   UNL     1      14.928   8.885  20.560  0.00  0.00    -0.008 A 
ATOM     13  C   UNL     1      13.581   8.494  20.801  0.00  0.00    +0.004 A 
ATOM     14  C   UNL     1      14.943   9.654  19.418  0.00  0.00    +0.088 A 
ATOM     15  C   UNL     1      12.805   9.048  19.780  0.00  0.00    +0.047 A 
ATOM     17  C   UNL     1      12.946   7.721  21.793  0.00  0.00    +0.010 A 
ATOM     19  C   UNL     1      11.419   8.866  19.702  0.00  0.00    +0.026 A 
ATOM     21  C   UNL     1      11.560   7.530  21.728  0.00  0.00    +0.001 A 
ATOM     22  C   UNL     1      10.811   8.095  20.697  0.00  0.00    +0.002 A 
ATOM     24  H   UNL     1      13.375  10.254  18.129  0.00  0.00    +0.165 HD
ENDBRANCH  10  12
ENDBRANCH   2  10
TORSDOF 5
ENDMDL
MODEL 5
REMARK VINA RESULT:      -6.3      3.331      8.684
REMARK  Name = 51137566
REMARK  6 active torsions:
REMARK  status: ('A' for Active; 'I' for Inactive)
REMARK    1  A    between atoms: N_2  and  C_10
REMARK    2  A    between atoms: C_6  and  C_11
REMARK    3  A    between atoms: C_10  and  C_12
REMARK    4  A    between atoms: C_16  and  C_18
REMARK    5  A    between atoms: C_18  and  C_20
REMARK    6  A    between atoms: C_20  and  C_23
REMARK                            x       y       z     vdW  Elec       q    Type
REMARK                         _______ _______ _______ _____ _____    ______ ____
ROOT
ATOM      2  N   UNL     1      17.153   7.730  20.635  0.00  0.00    -0.297 NA
ATOM      6  C   UNL     1      19.329   6.901  20.921  0.00  0.00    +0.092 C 
ATOM      7  C   UNL     1      18.272   7.798  21.578  0.00  0.00    +0.097 C 
ATOM      8  C   UNL     1      18.522   5.937  20.033  0.00  0.00    +0.029 C 
ATOM      9  C   UNL     1      17.065   6.320  20.256  0.00  0.00    +0.085 C 
ENDROOT
BRANCH   6  11
ATOM      1  O   UNL     1      21.064   5.256  21.450  0.00  0.00    -0.424 OA
ATOM      3  N   UNL     1      20.363   6.442  23.213  0.00  0.00    -0.112 NA
ATOM      5  N   UNL     1      21.334   5.560  23.649  0.00  0.00    -0.112 NA
ATOM     11  C   UNL     1      20.238   6.230  21.924  0.00  0.00    +0.222 A 
ATOM     16  C   UNL     1      21.714   4.890  22.588  0.00  0.00    +0.217 A 
BRANCH  16  18
ATOM     18  C   UNL     1      22.720   3.826  22.463  0.00  0.00    +0.097 C 
BRANCH  18  20
ATOM     20  C   UNL     1      22.832   3.268  21.028  0.00  0.00    +0.006 C 
ATOM     23  C   UNL     1      23.646   1.986  20.958  0.00  0.00    +0.004 C 
ENDBRANCH  18  20
ENDBRANCH  16  18
ENDBRANCH   6  11
BRANCH   2  10
ATOM     10  C   UNL     1      15.912   8.228  21.208  0.00  0.00    +0.121 C 
BRANCH  10  12
ATOM      4  N   UNL     1      12.906   6.711  19.724  0.00  0.00    -0.360 N 
ATOM     12  C   UNL     1      14.713   7.810  20.399  0.00  0.00    -0.008 A 
ATOM     13  C   UNL     1      14.250   8.412  19.196  0.00  0.00    +0.004 A 
ATOM     14  C   UNL     1      13.866   6.767  20.699  0.00  0.00    +0.088 A 
ATOM     15  C   UNL     1      13.115   7.703  18.794  0.00  0.00    +0.047 A 
ATOM     17  C   UNL     1      14.688   9.495  18.408  0.00  0.00    +0.010 A 
ATOM     19  C   UNL     1      12.395   8.025  17.638  0.00  0.00    +0.026 A 
ATOM     21  C   UNL     1      13.978   9.828  17.249  0.00  0.00    +0.001 A 
ATOM     22  C   UNL     1      12.849   9.103  16.872  0.00  0.00    +0.002 A 
ATOM     24  H   UNL     1      12.153   6.038  19.693  0.00  0.00    +0.165 HD
ENDBRANCH  10  12
ENDBRANCH   2  10
TORSDOF 5
ENDMDL
MODEL 6
REMARK VINA RESULT:      -6.2     27.115     28.305
REMARK  Name = 51137566
REMARK  6 active torsions:
REMARK  status: ('A' for Active; 'I' for Inactive)
REMARK    1  A    between atoms: N_2  and  C_10
REMARK    2  A    between atoms: C_6  and  C_11
REMARK    3  A    between atoms: C_10  and  C_12
REMARK    4  A    between atoms: C_16  and  C_18
REMARK    5  A    between atoms: C_18  and  C_20
REMARK    6  A    between atoms: C_20  and  C_23
REMARK                            x       y       z     vdW  Elec       q    Type
REMARK                         _______ _______ _______ _____ _____    ______ ____
ROOT
ATOM      2  N   UNL     1      -4.442 -10.969  15.334  0.00  0.00    -0.297 NA
ATOM      6  C   UNL     1      -5.926  -9.766  16.696  0.00  0.00    +0.092 C 
ATOM      7  C   UNL     1      -5.779 -10.371  15.294  0.00  0.00    +0.097 C 
ATOM      8  C   UNL     1      -4.970 -10.590  17.577  0.00  0.00    +0.029 C 
ATOM      9  C   UNL     1      -4.362 -11.625  16.639  0.00  0.00    +0.085 C 
ENDROOT
BRANCH   6  11
ATOM      1  O   UNL     1      -8.072  -8.605  16.895  0.00  0.00    -0.424 OA
ATOM      3  N   UNL     1      -8.042 -10.635  17.836  0.00  0.00    -0.112 NA
ATOM      5  N   UNL     1      -9.302 -10.097  18.019  0.00  0.00    -0.112 NA
ATOM     11  C   UNL     1      -7.358  -9.730  17.175  0.00  0.00    +0.222 A 
ATOM     16  C   UNL     1      -9.273  -8.913  17.454  0.00  0.00    +0.217 A 
BRANCH  16  18
ATOM     18  C   UNL     1     -10.334  -7.902  17.344  0.00  0.00    +0.097 C 
BRANCH  18  20
ATOM     20  C   UNL     1     -10.362  -7.205  15.968  0.00  0.00    +0.006 C 
ATOM     23  C   UNL     1     -11.256  -5.975  15.949  0.00  0.00    +0.004 C 
ENDBRANCH  18  20
ENDBRANCH  16  18
ENDBRANCH   6  11
BRANCH   2  10
ATOM     10  C   UNL     1      -4.214 -11.894  14.234  0.00  0.00    +0.121 C 
BRANCH  10  12
ATOM      4  N   UNL     1      -1.732 -10.670  11.808  0.00  0.00    -0.360 N 
ATOM     12  C   UNL     1      -3.422 -11.258  13.123  0.00  0.00    -0.008 A 
ATOM     13  C   UNL     1      -3.928 -10.404  12.102  0.00  0.00    +0.004 A 
ATOM     14  C   UNL     1      -2.069 -11.403  12.915  0.00  0.00    +0.088 A 
ATOM     15  C   UNL     1      -2.847 -10.050  11.291  0.00  0.00    +0.047 A 
ATOM     17  C   UNL     1      -5.205  -9.897  11.790  0.00  0.00    +0.010 A 
ATOM     19  C   UNL     1      -2.980  -9.210  10.180  0.00  0.00    +0.026 A 
ATOM     21  C   UNL     1      -5.353  -9.056  10.681  0.00  0.00    +0.001 A 
ATOM     22  C   UNL     1      -4.257  -8.720   9.890  0.00  0.00    +0.002 A 
ATOM     24  H   UNL     1      -0.800 -10.596  11.426  0.00  0.00    +0.165 HD
ENDBRANCH  10  12
ENDBRANCH   2  10
TORSDOF 5
ENDMDL
MODEL 7
REMARK VINA RESULT:      -6.2     25.983     28.331
REMARK  Name = 51137566
REMARK  6 active torsions:
REMARK  status: ('A' for Active; 'I' for Inactive)
REMARK    1  A    between atoms: N_2  and  C_10
REMARK    2  A    between atoms: C_6  and  C_11
REMARK    3  A    between atoms: C_10  and  C_12
REMARK    4  A    between atoms: C_16  and  C_18
REMARK    5  A    between atoms: C_18  and  C_20
REMARK    6  A    between atoms: C_20  and  C_23
REMARK                            x       y       z     vdW  Elec       q    Type
REMARK                         _______ _______ _______ _____ _____    ______ ____
ROOT
ATOM      2  N   UNL     1      -4.504 -11.408  17.374  0.00  0.00    -0.297 NA
ATOM      6  C   UNL     1      -6.180 -10.547  18.772  0.00  0.00    +0.092 C 
ATOM      7  C   UNL     1      -5.871 -10.885  17.307  0.00  0.00    +0.097 C 
ATOM      8  C   UNL     1      -5.248 -11.462  19.587  0.00  0.00    +0.029 C 
ATOM      9  C   UNL     1      -4.491 -12.280  18.548  0.00  0.00    +0.085 C 
ENDROOT
BRANCH   6  11
ATOM      1  O   UNL     1      -8.519  -9.971  18.334  0.00  0.00    -0.424 OA
ATOM      3  N   UNL     1      -8.231 -11.372  20.054  0.00  0.00    -0.112 NA
ATOM      5  N   UNL     1      -9.586 -11.134  19.918  0.00  0.00    -0.112 NA
ATOM     11  C   UNL     1      -7.647 -10.674  19.109  0.00  0.00    +0.222 A 
ATOM     16  C   UNL     1      -9.706 -10.311  18.902  0.00  0.00    +0.217 A 
BRANCH  16  18
ATOM     18  C   UNL     1     -10.917  -9.726  18.311  0.00  0.00    +0.097 C 
BRANCH  18  20
ATOM     20  C   UNL     1     -10.657  -9.055  16.945  0.00  0.00    +0.006 C 
ATOM     23  C   UNL     1     -10.663  -7.537  17.025  0.00  0.00    +0.004 C 
ENDBRANCH  18  20
ENDBRANCH  16  18
ENDBRANCH   6  11
BRANCH   2  10
ATOM     10  C   UNL     1      -4.117 -12.109  16.159  0.00  0.00    +0.121 C 
BRANCH  10  12
ATOM      4  N   UNL     1      -1.460  -9.985  14.756  0.00  0.00    -0.360 N 
ATOM     12  C   UNL     1      -3.149 -11.305  15.332  0.00  0.00    -0.008 A 
ATOM     13  C   UNL     1      -3.152 -11.171  13.915  0.00  0.00    +0.004 A 
ATOM     14  C   UNL     1      -2.097 -10.564  15.820  0.00  0.00    +0.088 A 
ATOM     15  C   UNL     1      -2.083 -10.338  13.580  0.00  0.00    +0.047 A 
ATOM     17  C   UNL     1      -3.965 -11.681  12.883  0.00  0.00    +0.010 A 
ATOM     19  C   UNL     1      -1.785  -9.987  12.258  0.00  0.00    +0.026 A 
ATOM     21  C   UNL     1      -3.679 -11.338  11.556  0.00  0.00    +0.001 A 
ATOM     22  C   UNL     1      -2.605 -10.505  11.251  0.00  0.00    +0.002 A 
ATOM     24  H   UNL     1      -0.650  -9.385  14.823  0.00  0.00    +0.165 HD
ENDBRANCH  10  12
ENDBRANCH   2  10
TORSDOF 5
ENDMDL
MODEL 8
REMARK VINA RESULT:      -6.1     26.209     28.759
REMARK  Name = 51137566
REMARK  6 active torsions:
REMARK  status: ('A' for Active; 'I' for Inactive)
REMARK    1  A    between atoms: N_2  and  C_10
REMARK    2  A    between atoms: C_6  and  C_11
REMARK    3  A    between atoms: C_10  and  C_12
REMARK    4  A    between atoms: C_16  and  C_18
REMARK    5  A    between atoms: C_18  and  C_20
REMARK    6  A    between atoms: C_20  and  C_23
REMARK                            x       y       z     vdW  Elec       q    Type
REMARK                         _______ _______ _______ _____ _____    ______ ____
ROOT
ATOM      2  N   UNL     1      -3.361 -11.257  16.329  0.00  0.00    -0.297 NA
ATOM      6  C   UNL     1      -2.887 -12.063  14.178  0.00  0.00    +0.092 C 
ATOM      7  C   UNL     1      -4.010 -11.458  15.032  0.00  0.00    +0.097 C 
ATOM      8  C   UNL     1      -1.588 -11.578  14.844  0.00  0.00    +0.029 C 
ATOM      9  C   UNL     1      -2.042 -10.710  16.011  0.00  0.00    +0.085 C 
ENDROOT
BRANCH   6  11
ATOM      1  O   UNL     1      -2.814 -10.422  12.362  0.00  0.00    -0.424 OA
ATOM      3  N   UNL     1      -3.292 -12.502  11.693  0.00  0.00    -0.112 NA
ATOM      5  N   UNL     1      -3.282 -11.685  10.578  0.00  0.00    -0.112 NA
ATOM     11  C   UNL     1      -3.014 -11.722  12.711  0.00  0.00    +0.222 A 
ATOM     16  C   UNL     1      -2.999 -10.481  11.016  0.00  0.00    +0.217 A 
BRANCH  16  18
ATOM     18  C   UNL     1      -2.855  -9.224  10.271  0.00  0.00    +0.097 C 
BRANCH  18  20
ATOM     20  C   UNL     1      -4.137  -8.824   9.509  0.00  0.00    +0.006 C 
ATOM     23  C   UNL     1      -5.291  -8.482  10.438  0.00  0.00    +0.004 C 
ENDBRANCH  18  20
ENDBRANCH  16  18
ENDBRANCH   6  11
BRANCH   2  10
ATOM     10  C   UNL     1      -4.127 -10.382  17.204  0.00  0.00    +0.121 C 
BRANCH  10  12
ATOM      4  N   UNL     1      -6.405 -12.631  19.020  0.00  0.00    -0.360 N 
ATOM     12  C   UNL     1      -5.261 -11.112  17.873  0.00  0.00    -0.008 A 
ATOM     13  C   UNL     1      -6.626 -10.711  17.904  0.00  0.00    +0.004 A 
ATOM     14  C   UNL     1      -5.157 -12.296  18.568  0.00  0.00    +0.088 A 
ATOM     15  C   UNL     1      -7.322 -11.681  18.630  0.00  0.00    +0.047 A 
ATOM     17  C   UNL     1      -7.339  -9.613  17.383  0.00  0.00    +0.010 A 
ATOM     19  C   UNL     1      -8.700 -11.608  18.861  0.00  0.00    +0.026 A 
ATOM     21  C   UNL     1      -8.718  -9.526  17.606  0.00  0.00    +0.001 A 
ATOM     22  C   UNL     1      -9.386 -10.509  18.334  0.00  0.00    +0.002 A 
ATOM     24  H   UNL     1      -6.621 -13.455  19.562  0.00  0.00    +0.165 HD
ENDBRANCH  10  12
ENDBRANCH   2  10
TORSDOF 5
ENDMDL
MODEL 9
REMARK VINA RESULT:      -6.1     28.031     30.238
REMARK  Name = 51137566
REMARK  6 active torsions:
REMARK  status: ('A' for Active; 'I' for Inactive)
REMARK    1  A    between atoms: N_2  and  C_10
REMARK    2  A    between atoms: C_6  and  C_11
REMARK    3  A    between atoms: C_10  and  C_12
REMARK    4  A    between atoms: C_16  and  C_18
REMARK    5  A    between atoms: C_18  and  C_20
REMARK    6  A    between atoms: C_20  and  C_23
REMARK                            x       y       z     vdW  Elec       q    Type
REMARK                         _______ _______ _______ _____ _____    ______ ____
ROOT
ATOM      2  N   UNL     1     -10.442  -8.200  16.365  0.00  0.00    -0.297 NA
ATOM      6  C   UNL     1     -12.097  -6.625  15.834  0.00  0.00    +0.092 C 
ATOM      7  C   UNL     1     -10.609  -6.940  15.637  0.00  0.00    +0.097 C 
ATOM      8  C   UNL     1     -12.752  -7.992  16.097  0.00  0.00    +0.029 C 
ATOM      9  C   UNL     1     -11.613  -9.000  16.008  0.00  0.00    +0.085 C 
ENDROOT
BRANCH   6  11
ATOM      1  O   UNL     1     -11.872  -4.966  14.047  0.00  0.00    -0.424 OA
ATOM      3  N   UNL     1     -13.906  -5.888  14.185  0.00  0.00    -0.112 NA
ATOM      5  N   UNL     1     -13.918  -4.978  13.144  0.00  0.00    -0.112 NA
ATOM     11  C   UNL     1     -12.692  -5.847  14.683  0.00  0.00    +0.222 A 
ATOM     16  C   UNL     1     -12.711  -4.465  13.101  0.00  0.00    +0.217 A 
BRANCH  16  18
ATOM     18  C   UNL     1     -12.157  -3.453  12.192  0.00  0.00    +0.097 C 
BRANCH  18  20
ATOM     20  C   UNL     1     -12.552  -3.683  10.718  0.00  0.00    +0.006 C 
ATOM     23  C   UNL     1     -11.368  -3.591   9.770  0.00  0.00    +0.004 C 
ENDBRANCH  18  20
ENDBRANCH  16  18
ENDBRANCH   6  11
BRANCH   2  10
ATOM     10  C   UNL     1      -9.192  -8.870  16.038  0.00  0.00    +0.121 C 
BRANCH  10  12
ATOM      4  N   UNL     1      -8.379 -10.521  19.225  0.00  0.00    -0.360 N 
ATOM     12  C   UNL     1      -8.593  -9.555  17.237  0.00  0.00    -0.008 A 
ATOM     13  C   UNL     1      -7.229  -9.926  17.407  0.00  0.00    +0.004 A 
ATOM     14  C   UNL     1      -9.275  -9.934  18.371  0.00  0.00    +0.088 A 
ATOM     15  C   UNL     1      -7.123 -10.530  18.662  0.00  0.00    +0.047 A 
ATOM     17  C   UNL     1      -6.072  -9.806  16.612  0.00  0.00    +0.010 A 
ATOM     19  C   UNL     1      -5.912 -11.021  19.164  0.00  0.00    +0.026 A 
ATOM     21  C   UNL     1      -4.854 -10.293  17.101  0.00  0.00    +0.001 A 
ATOM     22  C   UNL     1      -4.778 -10.891  18.356  0.00  0.00    +0.002 A 
ATOM     24  H   UNL     1      -8.608 -10.894  20.135  0.00  0.00    +0.165 HD
ENDBRANCH  10  12
ENDBRANCH   2  10
TORSDOF 5
ENDMDL
MODEL 10
REMARK VINA RESULT:      -6.1     26.492     29.728
REMARK  Name = 51137566
REMARK  6 active torsions:
REMARK  status: ('A' for Active; 'I' for Inactive)
REMARK    1  A    between atoms: N_2  and  C_10
REMARK    2  A    between atoms: C_6  and  C_11
REMARK    3  A    between atoms: C_10  and  C_12
REMARK    4  A    between atoms: C_16  and  C_18
REMARK    5  A    between atoms: C_18  and  C_20
REMARK    6  A    between atoms: C_20  and  C_23
REMARK                            x       y       z     vdW  Elec       q    Type
REMARK                         _______ _______ _______ _____ _____    ______ ____
ROOT
ATOM      2  N   UNL     1     -13.879   6.942  21.980  0.00  0.00    -0.297 NA
ATOM      6  C   UNL     1     -14.506   5.214  23.437  0.00  0.00    +0.092 C 
ATOM      7  C   UNL     1     -15.081   6.313  22.534  0.00  0.00    +0.097 C 
ATOM      8  C   UNL     1     -13.117   4.912  22.846  0.00  0.00    +0.029 C 
ATOM      9  C   UNL     1     -12.996   5.828  21.635  0.00  0.00    +0.085 C 
ENDROOT
BRANCH   6  11
ATOM      1  O   UNL     1     -15.534   3.456  24.797  0.00  0.00    -0.424 OA
ATOM      3  N   UNL     1     -16.134   3.412  22.642  0.00  0.00    -0.112 NA
ATOM      5  N   UNL     1     -16.783   2.376  23.288  0.00  0.00    -0.112 NA
ATOM     11  C   UNL     1     -15.417   4.016  23.560  0.00  0.00    +0.222 A 
ATOM     16  C   UNL     1     -16.403   2.441  24.542  0.00  0.00    +0.217 A 
BRANCH  16  18
ATOM     18  C   UNL     1     -16.779   1.590  25.679  0.00  0.00    +0.097 C 
BRANCH  18  20
ATOM     20  C   UNL     1     -16.572   2.281  27.044  0.00  0.00    +0.006 C 
ATOM     23  C   UNL     1     -16.579   1.302  28.207  0.00  0.00    +0.004 C 
ENDBRANCH  18  20
ENDBRANCH  16  18
ENDBRANCH   6  11
BRANCH   2  10
ATOM     10  C   UNL     1     -14.174   7.789  20.834  0.00  0.00    +0.121 C 
BRANCH  10  12
ATOM      4  N   UNL     1     -11.712  10.522  20.732  0.00  0.00    -0.360 N 
ATOM     12  C   UNL     1     -13.065   8.770  20.562  0.00  0.00    -0.008 A 
ATOM     13  C   UNL     1     -12.114   8.702  19.505  0.00  0.00    +0.004 A 
ATOM     14  C   UNL     1     -12.792   9.900  21.299  0.00  0.00    +0.088 A 
ATOM     15  C   UNL     1     -11.277   9.813  19.636  0.00  0.00    +0.047 A 
ATOM     17  C   UNL     1     -11.884   7.800  18.448  0.00  0.00    +0.010 A 
ATOM     19  C   UNL     1     -10.218  10.068  18.757  0.00  0.00    +0.026 A 
ATOM     21  C   UNL     1     -10.828   8.041  17.561  0.00  0.00    +0.001 A 
ATOM     22  C   UNL     1     -10.009   9.158  17.716  0.00  0.00    +0.002 A 
ATOM     24  H   UNL     1     -11.295  11.378  21.070  0.00  0.00    +0.165 HD
ENDBRANCH  10  12
ENDBRANCH   2  10
TORSDOF 5
ENDMDL
