MODEL 1
REMARK VINA RESULT:      -6.8      0.000      0.000
REMARK  Name = 28961885
REMARK  9 active torsions:
REMARK  status: ('A' for Active; 'I' for Inactive)
REMARK    1  A    between atoms: O_4  and  C_11
REMARK    2  A    between atoms: O_5  and  C_18
REMARK    3  A    between atoms: N_6  and  C_9
REMARK    4  A    between atoms: N_7  and  C_19
REMARK    5  A    between atoms: N_8  and  C_15
REMARK    6  A    between atoms: N_8  and  C_20
REMARK    7  A    between atoms: C_10  and  C_15
REMARK    8  A    between atoms: C_12  and  C_18
REMARK    9  A    between atoms: C_20  and  C_23
REMARK                            x       y       z     vdW  Elec       q    Type
REMARK                         _______ _______ _______ _____ _____    ______ ____
ROOT
ATOM      3  O   UNL     1     -18.198   4.806  22.497  0.00  0.00    -0.366 OA
ATOM      9  C   UNL     1     -17.998   3.486  24.468  0.00  0.00    +0.118 C 
ATOM     10  C   UNL     1     -17.673   4.850  23.843  0.00  0.00    +0.152 C 
ATOM     11  C   UNL     1     -18.088   2.568  23.259  0.00  0.00    +0.165 C 
ATOM     12  C   UNL     1     -18.747   3.498  22.248  0.00  0.00    +0.174 C 
ENDROOT
BRANCH   9   6
ATOM      6  N   UNL     1     -17.107   3.036  25.523  0.00  0.00    -0.292 NA
ATOM      7  N   UNL     1     -16.399   2.238  28.173  0.00  0.00    -0.327 N 
ATOM     13  C   UNL     1     -17.052   4.025  26.607  0.00  0.00    +0.104 C 
ATOM     14  C   UNL     1     -17.550   1.740  26.052  0.00  0.00    +0.104 C 
ATOM     16  C   UNL     1     -16.073   3.588  27.700  0.00  0.00    +0.120 C 
ATOM     17  C   UNL     1     -16.589   1.228  27.127  0.00  0.00    +0.120 C 
BRANCH   7  19
ATOM      1  F   UNL     1     -14.545   0.713  33.153  0.00  0.00    -0.205 F 
ATOM     19  C   UNL     1     -15.930   1.852  29.434  0.00  0.00    +0.030 A 
ATOM     21  C   UNL     1     -15.625   0.514  29.685  0.00  0.00    +0.026 A 
ATOM     22  C   UNL     1     -15.767   2.805  30.439  0.00  0.00    +0.026 A 
ATOM     24  C   UNL     1     -15.157   0.129  30.941  0.00  0.00    +0.040 A 
ATOM     25  C   UNL     1     -15.299   2.420  31.695  0.00  0.00    +0.040 A 
ATOM     26  C   UNL     1     -14.995   1.082  31.947  0.00  0.00    +0.124 A 
ENDBRANCH   7  19
ENDBRANCH   9   6
BRANCH  11   4
ATOM      4  O   UNL     1     -16.799   2.176  22.806  0.00  0.00    -0.388 OA
ATOM     32  H   UNL     1     -16.461   1.505  23.423  0.00  0.00    +0.210 HD
ENDBRANCH  11   4
BRANCH  10  15
ATOM     15  C   UNL     1     -16.198   5.222  23.742  0.00  0.00    +0.114 C 
BRANCH  15   8
ATOM      8  N   UNL     1     -15.765   5.261  22.353  0.00  0.00    -0.310 NA
ATOM     33  H   UNL     1     -16.273   4.555  21.821  0.00  0.00    +0.122 HD
BRANCH   8  20
ATOM     20  C   UNL     1     -14.332   5.023  22.248  0.00  0.00    +0.116 C 
BRANCH  20  23
ATOM      2  F   UNL     1     -11.582   9.579  20.393  0.00  0.00    -0.205 F 
ATOM     23  C   UNL     1     -13.597   6.241  21.752  0.00  0.00    -0.033 A 
ATOM     27  C   UNL     1     -12.311   6.113  21.227  0.00  0.00    +0.008 A 
ATOM     28  C   UNL     1     -14.202   7.496  21.817  0.00  0.00    +0.008 A 
ATOM     29  C   UNL     1     -11.630   7.241  20.767  0.00  0.00    +0.038 A 
ATOM     30  C   UNL     1     -13.522   8.623  21.358  0.00  0.00    +0.038 A 
ATOM     31  C   UNL     1     -12.235   8.496  20.834  0.00  0.00    +0.123 A 
ENDBRANCH  20  23
ENDBRANCH   8  20
ENDBRANCH  15   8
ENDBRANCH  10  15
BRANCH  12  18
ATOM     18  C   UNL     1     -18.533   3.134  20.789  0.00  0.00    +0.190 C 
BRANCH  18   5
ATOM      5  O   UNL     1     -17.491   3.941  20.263  0.00  0.00    -0.392 OA
ATOM     34  H   UNL     1     -17.903   4.584  19.662  0.00  0.00    +0.210 HD
ENDBRANCH  18   5
ENDBRANCH  12  18
TORSDOF 9
ENDMDL
MODEL 2
REMARK VINA RESULT:      -6.8     15.914     18.551
REMARK  Name = 28961885
REMARK  9 active torsions:
REMARK  status: ('A' for Active; 'I' for Inactive)
REMARK    1  A    between atoms: O_4  and  C_11
REMARK    2  A    between atoms: O_5  and  C_18
REMARK    3  A    between atoms: N_6  and  C_9
REMARK    4  A    between atoms: N_7  and  C_19
REMARK    5  A    between atoms: N_8  and  C_15
REMARK    6  A    between atoms: N_8  and  C_20
REMARK    7  A    between atoms: C_10  and  C_15
REMARK    8  A    between atoms: C_12  and  C_18
REMARK    9  A    between atoms: C_20  and  C_23
REMARK                            x       y       z     vdW  Elec       q    Type
REMARK                         _______ _______ _______ _____ _____    ______ ____
ROOT
ATOM      3  O   UNL     1      -9.434 -11.290  17.294  0.00  0.00    -0.366 OA
ATOM      9  C   UNL     1     -10.961  -9.663  16.462  0.00  0.00    +0.118 C 
ATOM     10  C   UNL     1      -9.794 -10.587  16.084  0.00  0.00    +0.152 C 
ATOM     11  C   UNL     1     -10.745  -9.432  17.949  0.00  0.00    +0.165 C 
ATOM     12  C   UNL     1     -10.248 -10.806  18.379  0.00  0.00    +0.174 C 
ENDROOT
BRANCH   9   6
ATOM      6  N   UNL     1     -11.111  -8.461  15.662  0.00  0.00    -0.292 NA
ATOM      7  N   UNL     1     -12.542  -6.434  14.247  0.00  0.00    -0.327 N 
ATOM     13  C   UNL     1     -11.768  -8.769  14.386  0.00  0.00    +0.104 C 
ATOM     14  C   UNL     1     -11.888  -7.452  16.392  0.00  0.00    +0.104 C 
ATOM     16  C   UNL     1     -11.882  -7.519  13.510  0.00  0.00    +0.120 C 
ATOM     17  C   UNL     1     -12.008  -6.158  15.584  0.00  0.00    +0.120 C 
BRANCH   7  19
ATOM      1  F   UNL     1     -14.864  -2.356  11.325  0.00  0.00    -0.205 F 
ATOM     19  C   UNL     1     -13.131  -5.401  13.507  0.00  0.00    +0.030 A 
ATOM     21  C   UNL     1     -12.327  -4.458  12.866  0.00  0.00    +0.026 A 
ATOM     22  C   UNL     1     -14.519  -5.315  13.412  0.00  0.00    +0.026 A 
ATOM     24  C   UNL     1     -12.913  -3.429  12.128  0.00  0.00    +0.040 A 
ATOM     25  C   UNL     1     -15.105  -4.286  12.674  0.00  0.00    +0.040 A 
ATOM     26  C   UNL     1     -14.301  -3.343  12.033  0.00  0.00    +0.124 A 
ENDBRANCH   7  19
ENDBRANCH   9   6
BRANCH  11   4
ATOM      4  O   UNL     1      -9.747  -8.447  18.184  0.00  0.00    -0.388 OA
ATOM     32  H   UNL     1     -10.157  -7.727  18.692  0.00  0.00    +0.210 HD
ENDBRANCH  11   4
BRANCH  10  15
ATOM     15  C   UNL     1      -8.531  -9.913  15.559  0.00  0.00    +0.114 C 
BRANCH  15   8
ATOM      8  N   UNL     1      -7.659  -9.516  16.655  0.00  0.00    -0.310 NA
ATOM     33  H   UNL     1      -7.882  -8.561  16.935  0.00  0.00    +0.122 HD
BRANCH   8  20
ATOM     20  C   UNL     1      -6.258  -9.602  16.263  0.00  0.00    +0.116 C 
BRANCH  20  23
ATOM      2  F   UNL     1      -3.228 -12.585  19.961  0.00  0.00    -0.205 F 
ATOM     23  C   UNL     1      -5.448 -10.399  17.251  0.00  0.00    -0.033 A 
ATOM     27  C   UNL     1      -5.998 -10.742  18.486  0.00  0.00    +0.008 A 
ATOM     28  C   UNL     1      -4.149 -10.795  16.931  0.00  0.00    +0.008 A 
ATOM     29  C   UNL     1      -5.248 -11.482  19.402  0.00  0.00    +0.038 A 
ATOM     30  C   UNL     1      -3.400 -11.533  17.846  0.00  0.00    +0.038 A 
ATOM     31  C   UNL     1      -3.948 -11.876  19.082  0.00  0.00    +0.123 A 
ENDBRANCH  20  23
ENDBRANCH   8  20
ENDBRANCH  15   8
ENDBRANCH  10  15
BRANCH  12  18
ATOM     18  C   UNL     1      -9.439 -10.836  19.664  0.00  0.00    +0.190 C 
BRANCH  18   5
ATOM      5  O   UNL     1     -10.137 -10.111  20.663  0.00  0.00    -0.392 OA
ATOM     34  H   UNL     1     -10.280 -10.717  21.410  0.00  0.00    +0.210 HD
ENDBRANCH  18   5
ENDBRANCH  12  18
TORSDOF 9
ENDMDL
MODEL 3
REMARK VINA RESULT:      -6.3     21.209     23.991
REMARK  Name = 28961885
REMARK  9 active torsions:
REMARK  status: ('A' for Active; 'I' for Inactive)
REMARK    1  A    between atoms: O_4  and  C_11
REMARK    2  A    between atoms: O_5  and  C_18
REMARK    3  A    between atoms: N_6  and  C_9
REMARK    4  A    between atoms: N_7  and  C_19
REMARK    5  A    between atoms: N_8  and  C_15
REMARK    6  A    between atoms: N_8  and  C_20
REMARK    7  A    between atoms: C_10  and  C_15
REMARK    8  A    between atoms: C_12  and  C_18
REMARK    9  A    between atoms: C_20  and  C_23
REMARK                            x       y       z     vdW  Elec       q    Type
REMARK                         _______ _______ _______ _____ _____    ______ ____
ROOT
ATOM      3  O   UNL     1      -1.570 -12.691  13.605  0.00  0.00    -0.366 OA
ATOM      9  C   UNL     1      -2.851 -12.098  11.687  0.00  0.00    +0.118 C 
ATOM     10  C   UNL     1      -2.068 -11.541  12.885  0.00  0.00    +0.152 C 
ATOM     11  C   UNL     1      -3.283 -13.473  12.171  0.00  0.00    +0.165 C 
ATOM     12  C   UNL     1      -2.054 -13.890  12.970  0.00  0.00    +0.174 C 
ENDROOT
BRANCH   9   6
ATOM      6  N   UNL     1      -3.918 -11.258  11.173  0.00  0.00    -0.292 NA
ATOM      7  N   UNL     1      -5.467  -9.952   9.159  0.00  0.00    -0.327 N 
ATOM     13  C   UNL     1      -3.364 -10.116  10.434  0.00  0.00    +0.104 C 
ATOM     14  C   UNL     1      -4.807 -12.033  10.300  0.00  0.00    +0.104 C 
ATOM     16  C   UNL     1      -4.478  -9.193   9.934  0.00  0.00    +0.120 C 
ATOM     17  C   UNL     1      -5.969 -11.174   9.794  0.00  0.00    +0.120 C 
BRANCH   7  19
ATOM      1  F   UNL     1      -8.692  -7.174   5.632  0.00  0.00    -0.205 F 
ATOM     19  C   UNL     1      -6.283  -9.248   8.266  0.00  0.00    +0.030 A 
ATOM     21  C   UNL     1      -6.318  -9.610   6.919  0.00  0.00    +0.026 A 
ATOM     22  C   UNL     1      -7.062  -8.185   8.723  0.00  0.00    +0.026 A 
ATOM     24  C   UNL     1      -7.132  -8.910   6.029  0.00  0.00    +0.040 A 
ATOM     25  C   UNL     1      -7.876  -7.485   7.832  0.00  0.00    +0.040 A 
ATOM     26  C   UNL     1      -7.910  -7.847   6.486  0.00  0.00    +0.124 A 
ENDBRANCH   7  19
ENDBRANCH   9   6
BRANCH  11   4
ATOM      4  O   UNL     1      -4.422 -13.394  13.018  0.00  0.00    -0.388 OA
ATOM     32  H   UNL     1      -4.147 -12.955  13.841  0.00  0.00    +0.210 HD
ENDBRANCH  11   4
BRANCH  10  15
ATOM     15  C   UNL     1      -2.851 -10.690  13.877  0.00  0.00    +0.114 C 
BRANCH  15   8
ATOM      8  N   UNL     1      -3.213 -11.464  15.056  0.00  0.00    -0.310 NA
ATOM     33  H   UNL     1      -4.156 -11.834  14.940  0.00  0.00    +0.122 HD
BRANCH   8  20
ATOM     20  C   UNL     1      -3.146 -10.645  16.258  0.00  0.00    +0.116 C 
BRANCH  20  23
ATOM      2  F   UNL     1      -8.194 -10.096  18.702  0.00  0.00    -0.205 F 
ATOM     23  C   UNL     1      -4.495 -10.498  16.912  0.00  0.00    -0.033 A 
ATOM     27  C   UNL     1      -5.506  -9.784  16.269  0.00  0.00    +0.008 A 
ATOM     28  C   UNL     1      -4.734 -11.076  18.159  0.00  0.00    +0.008 A 
ATOM     29  C   UNL     1      -6.756  -9.649  16.873  0.00  0.00    +0.038 A 
ATOM     30  C   UNL     1      -5.983 -10.940  18.763  0.00  0.00    +0.038 A 
ATOM     31  C   UNL     1      -6.994 -10.226  18.121  0.00  0.00    +0.123 A 
ENDBRANCH  20  23
ENDBRANCH   8  20
ENDBRANCH  15   8
ENDBRANCH  10  15
BRANCH  12  18
ATOM     18  C   UNL     1      -2.292 -14.955  14.026  0.00  0.00    +0.190 C 
BRANCH  18   5
ATOM      5  O   UNL     1      -2.933 -14.359  15.142  0.00  0.00    -0.392 OA
ATOM     34  H   UNL     1      -2.374 -13.618  15.431  0.00  0.00    +0.210 HD
ENDBRANCH  18   5
ENDBRANCH  12  18
TORSDOF 9
ENDMDL
MODEL 4
REMARK VINA RESULT:      -6.2     33.477     36.786
REMARK  Name = 28961885
REMARK  9 active torsions:
REMARK  status: ('A' for Active; 'I' for Inactive)
REMARK    1  A    between atoms: O_4  and  C_11
REMARK    2  A    between atoms: O_5  and  C_18
REMARK    3  A    between atoms: N_6  and  C_9
REMARK    4  A    between atoms: N_7  and  C_19
REMARK    5  A    between atoms: N_8  and  C_15
REMARK    6  A    between atoms: N_8  and  C_20
REMARK    7  A    between atoms: C_10  and  C_15
REMARK    8  A    between atoms: C_12  and  C_18
REMARK    9  A    between atoms: C_20  and  C_23
REMARK                            x       y       z     vdW  Elec       q    Type
REMARK                         _______ _______ _______ _____ _____    ______ ____
ROOT
ATOM      3  O   UNL     1      20.053   7.867  20.818  0.00  0.00    -0.366 OA
ATOM      9  C   UNL     1      21.616   6.380  21.825  0.00  0.00    +0.118 C 
ATOM     10  C   UNL     1      20.720   6.604  20.599  0.00  0.00    +0.152 C 
ATOM     11  C   UNL     1      20.913   7.178  22.912  0.00  0.00    +0.165 C 
ATOM     12  C   UNL     1      20.427   8.379  22.111  0.00  0.00    +0.174 C 
ENDROOT
BRANCH   9   6
ATOM      6  N   UNL     1      21.909   4.998  22.161  0.00  0.00    -0.292 NA
ATOM      7  N   UNL     1      23.577   2.760  22.767  0.00  0.00    -0.327 N 
ATOM     13  C   UNL     1      22.725   4.375  21.112  0.00  0.00    +0.104 C 
ATOM     14  C   UNL     1      22.607   4.919  23.450  0.00  0.00    +0.104 C 
ATOM     16  C   UNL     1      22.994   2.901  21.427  0.00  0.00    +0.120 C 
ATOM     17  C   UNL     1      22.872   3.464  23.843  0.00  0.00    +0.120 C 
BRANCH   7  19
ATOM      1  F   UNL     1      26.397  -1.859  23.897  0.00  0.00    -0.205 F 
ATOM     19  C   UNL     1      24.291   1.590  23.054  0.00  0.00    +0.030 A 
ATOM     21  C   UNL     1      25.112   1.020  22.082  0.00  0.00    +0.026 A 
ATOM     22  C   UNL     1      24.180   0.996  24.311  0.00  0.00    +0.026 A 
ATOM     24  C   UNL     1      25.824  -0.146  22.366  0.00  0.00    +0.040 A 
ATOM     25  C   UNL     1      24.893  -0.169  24.595  0.00  0.00    +0.040 A 
ATOM     26  C   UNL     1      25.714  -0.740  23.623  0.00  0.00    +0.124 A 
ENDBRANCH   7  19
ENDBRANCH   9   6
BRANCH  11   4
ATOM      4  O   UNL     1      19.809   6.462  23.452  0.00  0.00    -0.388 OA
ATOM     32  H   UNL     1      19.726   5.631  22.955  0.00  0.00    +0.210 HD
ENDBRANCH  11   4
BRANCH  10  15
ATOM     15  C   UNL     1      19.639   5.560  20.341  0.00  0.00    +0.114 C 
BRANCH  15   8
ATOM      8  N   UNL     1      18.313   6.120  20.558  0.00  0.00    -0.310 NA
ATOM     33  H   UNL     1      17.856   5.620  21.321  0.00  0.00    +0.122 HD
BRANCH   8  20
ATOM     20  C   UNL     1      17.504   6.024  19.350  0.00  0.00    +0.116 C 
BRANCH  20  23
ATOM      2  F   UNL     1      12.245   7.864  20.198  0.00  0.00    -0.205 F 
ATOM     23  C   UNL     1      16.098   6.516  19.576  0.00  0.00    -0.033 A 
ATOM     27  C   UNL     1      15.548   6.484  20.857  0.00  0.00    +0.008 A 
ATOM     28  C   UNL     1      15.349   7.003  18.505  0.00  0.00    +0.008 A 
ATOM     29  C   UNL     1      14.246   6.940  21.067  0.00  0.00    +0.038 A 
ATOM     30  C   UNL     1      14.048   7.458  18.715  0.00  0.00    +0.038 A 
ATOM     31  C   UNL     1      13.495   7.426  19.996  0.00  0.00    +0.123 A 
ENDBRANCH  20  23
ENDBRANCH   8  20
ENDBRANCH  15   8
ENDBRANCH  10  15
BRANCH  12  18
ATOM     18  C   UNL     1      19.253   9.133  22.710  0.00  0.00    +0.190 C 
BRANCH  18   5
ATOM      5  O   UNL     1      18.048   8.548  22.247  0.00  0.00    -0.392 OA
ATOM     34  H   UNL     1      17.326   9.157  22.478  0.00  0.00    +0.210 HD
ENDBRANCH  18   5
ENDBRANCH  12  18
TORSDOF 9
ENDMDL
MODEL 5
REMARK VINA RESULT:      -6.2     32.354     35.840
REMARK  Name = 28961885
REMARK  9 active torsions:
REMARK  status: ('A' for Active; 'I' for Inactive)
REMARK    1  A    between atoms: O_4  and  C_11
REMARK    2  A    between atoms: O_5  and  C_18
REMARK    3  A    between atoms: N_6  and  C_9
REMARK    4  A    between atoms: N_7  and  C_19
REMARK    5  A    between atoms: N_8  and  C_15
REMARK    6  A    between atoms: N_8  and  C_20
REMARK    7  A    between atoms: C_10  and  C_15
REMARK    8  A    between atoms: C_12  and  C_18
REMARK    9  A    between atoms: C_20  and  C_23
REMARK                            x       y       z     vdW  Elec       q    Type
REMARK                         _______ _______ _______ _____ _____    ______ ____
ROOT
ATOM      3  O   UNL     1      18.272   8.837  20.831  0.00  0.00    -0.366 OA
ATOM      9  C   UNL     1      20.166   7.446  21.214  0.00  0.00    +0.118 C 
ATOM     10  C   UNL     1      18.739   7.481  20.649  0.00  0.00    +0.152 C 
ATOM     11  C   UNL     1      20.156   8.570  22.238  0.00  0.00    +0.165 C 
ATOM     12  C   UNL     1      19.282   9.593  21.524  0.00  0.00    +0.174 C 
ENDROOT
BRANCH   9   6
ATOM      6  N   UNL     1      20.628   6.161  21.708  0.00  0.00    -0.292 NA
ATOM      7  N   UNL     1      22.459   3.990  22.011  0.00  0.00    -0.327 N 
ATOM     13  C   UNL     1      20.879   5.239  20.593  0.00  0.00    +0.104 C 
ATOM     14  C   UNL     1      21.850   6.325  22.504  0.00  0.00    +0.104 C 
ATOM     16  C   UNL     1      21.313   3.863  21.103  0.00  0.00    +0.120 C 
ATOM     17  C   UNL     1      22.317   4.985  23.078  0.00  0.00    +0.120 C 
BRANCH   7  19
ATOM      1  F   UNL     1      25.632  -0.464  22.821  0.00  0.00    -0.205 F 
ATOM     19  C   UNL     1      23.263   2.861  22.217  0.00  0.00    +0.030 A 
ATOM     21  C   UNL     1      23.679   2.095  21.129  0.00  0.00    +0.026 A 
ATOM     22  C   UNL     1      23.646   2.505  23.509  0.00  0.00    +0.026 A 
ATOM     24  C   UNL     1      24.480   0.972  21.332  0.00  0.00    +0.040 A 
ATOM     25  C   UNL     1      24.447   1.381  23.713  0.00  0.00    +0.040 A 
ATOM     26  C   UNL     1      24.864   0.614  22.624  0.00  0.00    +0.124 A 
ENDBRANCH   7  19
ENDBRANCH   9   6
BRANCH  11   4
ATOM      4  O   UNL     1      19.547   8.161  23.455  0.00  0.00    -0.388 OA
ATOM     32  H   UNL     1      19.019   7.366  23.268  0.00  0.00    +0.210 HD
ENDBRANCH  11   4
BRANCH  10  15
ATOM     15  C   UNL     1      17.719   6.559  21.308  0.00  0.00    +0.114 C 
BRANCH  15   8
ATOM      8  N   UNL     1      16.467   7.259  21.555  0.00  0.00    -0.310 NA
ATOM     33  H   UNL     1      16.331   7.362  22.560  0.00  0.00    +0.122 HD
BRANCH   8  20
ATOM     20  C   UNL     1      15.343   6.535  20.975  0.00  0.00    +0.116 C 
BRANCH  20  23
ATOM      2  F   UNL     1      12.541   9.669  17.223  0.00  0.00    -0.205 F 
ATOM     23  C   UNL     1      14.594   7.373  19.972  0.00  0.00    -0.033 A 
ATOM     27  C   UNL     1      13.325   6.981  19.547  0.00  0.00    +0.008 A 
ATOM     28  C   UNL     1      15.170   8.540  19.470  0.00  0.00    +0.008 A 
ATOM     29  C   UNL     1      12.631   7.758  18.619  0.00  0.00    +0.038 A 
ATOM     30  C   UNL     1      14.476   9.316  18.541  0.00  0.00    +0.038 A 
ATOM     31  C   UNL     1      13.207   8.925  18.115  0.00  0.00    +0.123 A 
ENDBRANCH  20  23
ENDBRANCH   8  20
ENDBRANCH  15   8
ENDBRANCH  10  15
BRANCH  12  18
ATOM     18  C   UNL     1      18.612  10.620  22.420  0.00  0.00    +0.190 C 
BRANCH  18   5
ATOM      5  O   UNL     1      17.266  10.230  22.637  0.00  0.00    -0.392 OA
ATOM     34  H   UNL     1      16.858  10.113  21.762  0.00  0.00    +0.210 HD
ENDBRANCH  18   5
ENDBRANCH  12  18
TORSDOF 9
ENDMDL
MODEL 6
REMARK VINA RESULT:      -6.2     31.038     36.565
REMARK  Name = 28961885
REMARK  9 active torsions:
REMARK  status: ('A' for Active; 'I' for Inactive)
REMARK    1  A    between atoms: O_4  and  C_11
REMARK    2  A    between atoms: O_5  and  C_18
REMARK    3  A    between atoms: N_6  and  C_9
REMARK    4  A    between atoms: N_7  and  C_19
REMARK    5  A    between atoms: N_8  and  C_15
REMARK    6  A    between atoms: N_8  and  C_20
REMARK    7  A    between atoms: C_10  and  C_15
REMARK    8  A    between atoms: C_12  and  C_18
REMARK    9  A    between atoms: C_20  and  C_23
REMARK                            x       y       z     vdW  Elec       q    Type
REMARK                         _______ _______ _______ _____ _____    ______ ____
ROOT
ATOM      3  O   UNL     1      13.929   8.380   4.578  0.00  0.00    -0.366 OA
ATOM      9  C   UNL     1      13.417   7.452   2.446  0.00  0.00    +0.118 C 
ATOM     10  C   UNL     1      12.831   7.834   3.813  0.00  0.00    +0.152 C 
ATOM     11  C   UNL     1      14.884   7.204   2.760  0.00  0.00    +0.165 C 
ATOM     12  C   UNL     1      15.137   8.289   3.799  0.00  0.00    +0.174 C 
ENDROOT
BRANCH   9   6
ATOM      6  N   UNL     1      12.743   6.378   1.738  0.00  0.00    -0.292 NA
ATOM      7  N   UNL     1      11.639   5.043  -0.533  0.00  0.00    -0.327 N 
ATOM     13  C   UNL     1      11.504   6.865   1.120  0.00  0.00    +0.104 C 
ATOM     14  C   UNL     1      13.623   5.809   0.710  0.00  0.00    +0.104 C 
ATOM     16  C   UNL     1      10.756   5.729   0.418  0.00  0.00    +0.120 C 
ATOM     17  C   UNL     1      12.946   4.638  -0.007  0.00  0.00    +0.120 C 
BRANCH   7  19
ATOM      1  F   UNL     1       9.302   2.126  -4.606  0.00  0.00    -0.205 F 
ATOM     19  C   UNL     1      11.047   4.305  -1.565  0.00  0.00    +0.030 A 
ATOM     21  C   UNL     1      11.508   3.021  -1.856  0.00  0.00    +0.026 A 
ATOM     22  C   UNL     1       9.997   4.853  -2.301  0.00  0.00    +0.026 A 
ATOM     24  C   UNL     1      10.918   2.284  -2.883  0.00  0.00    +0.040 A 
ATOM     25  C   UNL     1       9.407   4.116  -3.328  0.00  0.00    +0.040 A 
ATOM     26  C   UNL     1       9.868   2.832  -3.620  0.00  0.00    +0.124 A 
ENDBRANCH   7  19
ENDBRANCH   9   6
BRANCH  11   4
ATOM      4  O   UNL     1      15.085   5.916   3.328  0.00  0.00    -0.388 OA
ATOM     32  H   UNL     1      15.466   6.041   4.213  0.00  0.00    +0.210 HD
ENDBRANCH  11   4
BRANCH  10  15
ATOM     15  C   UNL     1      12.224   6.703   4.637  0.00  0.00    +0.114 C 
BRANCH  15   8
ATOM      8  N   UNL     1      10.770   6.730   4.565  0.00  0.00    -0.310 NA
ATOM     33  H   UNL     1      10.414   7.447   5.196  0.00  0.00    +0.122 HD
BRANCH   8  20
ATOM     20  C   UNL     1      10.207   5.434   4.920  0.00  0.00    +0.116 C 
BRANCH  20  23
ATOM      2  F   UNL     1       8.876   5.154  10.388  0.00  0.00    -0.205 F 
ATOM     23  C   UNL     1       9.851   5.359   6.381  0.00  0.00    -0.033 A 
ATOM     27  C   UNL     1      10.004   4.159   7.074  0.00  0.00    +0.008 A 
ATOM     28  C   UNL     1       9.370   6.490   7.041  0.00  0.00    +0.008 A 
ATOM     29  C   UNL     1       9.675   4.089   8.429  0.00  0.00    +0.038 A 
ATOM     30  C   UNL     1       9.041   6.421   8.394  0.00  0.00    +0.038 A 
ATOM     31  C   UNL     1       9.192   5.221   9.088  0.00  0.00    +0.123 A 
ENDBRANCH  20  23
ENDBRANCH   8  20
ENDBRANCH  15   8
ENDBRANCH  10  15
BRANCH  12  18
ATOM     18  C   UNL     1      16.313   8.043   4.727  0.00  0.00    +0.190 C 
BRANCH  18   5
ATOM      5  O   UNL     1      17.415   7.586   3.960  0.00  0.00    -0.392 OA
ATOM     34  H   UNL     1      17.790   6.820   4.426  0.00  0.00    +0.210 HD
ENDBRANCH  18   5
ENDBRANCH  12  18
TORSDOF 9
ENDMDL
MODEL 7
REMARK VINA RESULT:      -6.1      5.609     10.046
REMARK  Name = 28961885
REMARK  9 active torsions:
REMARK  status: ('A' for Active; 'I' for Inactive)
REMARK    1  A    between atoms: O_4  and  C_11
REMARK    2  A    between atoms: O_5  and  C_18
REMARK    3  A    between atoms: N_6  and  C_9
REMARK    4  A    between atoms: N_7  and  C_19
REMARK    5  A    between atoms: N_8  and  C_15
REMARK    6  A    between atoms: N_8  and  C_20
REMARK    7  A    between atoms: C_10  and  C_15
REMARK    8  A    between atoms: C_12  and  C_18
REMARK    9  A    between atoms: C_20  and  C_23
REMARK                            x       y       z     vdW  Elec       q    Type
REMARK                         _______ _______ _______ _____ _____    ______ ____
ROOT
ATOM      3  O   UNL     1     -16.782   5.068  22.618  0.00  0.00    -0.366 OA
ATOM      9  C   UNL     1     -14.996   6.492  21.946  0.00  0.00    +0.118 C 
ATOM     10  C   UNL     1     -16.407   6.006  21.584  0.00  0.00    +0.152 C 
ATOM     11  C   UNL     1     -14.435   5.338  22.761  0.00  0.00    +0.165 C 
ATOM     12  C   UNL     1     -15.678   4.904  23.528  0.00  0.00    +0.174 C 
ENDROOT
BRANCH   9   6
ATOM      6  N   UNL     1     -14.166   6.931  20.839  0.00  0.00    -0.292 NA
ATOM      7  N   UNL     1     -12.412   8.696  19.435  0.00  0.00    -0.327 N 
ATOM     13  C   UNL     1     -14.670   8.194  20.285  0.00  0.00    +0.104 C 
ATOM     14  C   UNL     1     -12.774   7.098  21.274  0.00  0.00    +0.104 C 
ATOM     16  C   UNL     1     -13.836   8.638  19.081  0.00  0.00    +0.120 C 
ATOM     17  C   UNL     1     -11.876   7.507  20.104  0.00  0.00    +0.120 C 
BRANCH   7  19
ATOM      1  F   UNL     1      -9.085  11.819  16.314  0.00  0.00    -0.205 F 
ATOM     19  C   UNL     1     -11.570   9.487  18.644  0.00  0.00    +0.030 A 
ATOM     21  C   UNL     1     -11.361  10.826  18.972  0.00  0.00    +0.026 A 
ATOM     22  C   UNL     1     -10.940   8.935  17.529  0.00  0.00    +0.026 A 
ATOM     24  C   UNL     1     -10.521  11.614  18.186  0.00  0.00    +0.040 A 
ATOM     25  C   UNL     1     -10.100   9.723  16.742  0.00  0.00    +0.040 A 
ATOM     26  C   UNL     1      -9.892  11.063  17.070  0.00  0.00    +0.124 A 
ENDBRANCH   7  19
ENDBRANCH   9   6
BRANCH  11   4
ATOM      4  O   UNL     1     -13.976   4.284  21.924  0.00  0.00    -0.388 OA
ATOM     32  H   UNL     1     -14.554   3.517  22.072  0.00  0.00    +0.210 HD
ENDBRANCH  11   4
BRANCH  10  15
ATOM     15  C   UNL     1     -16.561   5.292  20.246  0.00  0.00    +0.114 C 
BRANCH  15   8
ATOM      8  N   UNL     1     -17.841   5.611  19.631  0.00  0.00    -0.310 NA
ATOM     33  H   UNL     1     -18.154   4.818  19.071  0.00  0.00    +0.122 HD
BRANCH   8  20
ATOM     20  C   UNL     1     -17.734   6.797  18.791  0.00  0.00    +0.116 C 
BRANCH  20  23
ATOM      2  F   UNL     1     -16.086   5.518  13.557  0.00  0.00    -0.205 F 
ATOM     23  C   UNL     1     -17.293   6.455  17.392  0.00  0.00    -0.033 A 
ATOM     27  C   UNL     1     -17.710   5.262  16.803  0.00  0.00    +0.008 A 
ATOM     28  C   UNL     1     -16.470   7.333  16.686  0.00  0.00    +0.008 A 
ATOM     29  C   UNL     1     -17.302   4.945  15.507  0.00  0.00    +0.038 A 
ATOM     30  C   UNL     1     -16.062   7.016  15.391  0.00  0.00    +0.038 A 
ATOM     31  C   UNL     1     -16.477   5.822  14.801  0.00  0.00    +0.123 A 
ENDBRANCH  20  23
ENDBRANCH   8  20
ENDBRANCH  15   8
ENDBRANCH  10  15
BRANCH  12  18
ATOM     18  C   UNL     1     -15.662   3.476  24.044  0.00  0.00    +0.190 C 
BRANCH  18   5
ATOM      5  O   UNL     1     -16.131   2.613  23.020  0.00  0.00    -0.392 OA
ATOM     34  H   UNL     1     -16.526   1.839  23.456  0.00  0.00    +0.210 HD
ENDBRANCH  18   5
ENDBRANCH  12  18
TORSDOF 9
ENDMDL
MODEL 8
REMARK VINA RESULT:      -6.0     19.885     21.763
REMARK  Name = 28961885
REMARK  9 active torsions:
REMARK  status: ('A' for Active; 'I' for Inactive)
REMARK    1  A    between atoms: O_4  and  C_11
REMARK    2  A    between atoms: O_5  and  C_18
REMARK    3  A    between atoms: N_6  and  C_9
REMARK    4  A    between atoms: N_7  and  C_19
REMARK    5  A    between atoms: N_8  and  C_15
REMARK    6  A    between atoms: N_8  and  C_20
REMARK    7  A    between atoms: C_10  and  C_15
REMARK    8  A    between atoms: C_12  and  C_18
REMARK    9  A    between atoms: C_20  and  C_23
REMARK                            x       y       z     vdW  Elec       q    Type
REMARK                         _______ _______ _______ _____ _____    ______ ____
ROOT
ATOM      3  O   UNL     1      -8.066  -9.706   7.166  0.00  0.00    -0.366 OA
ATOM      9  C   UNL     1      -6.555 -10.442   8.852  0.00  0.00    +0.118 C 
ATOM     10  C   UNL     1      -7.855  -9.668   8.595  0.00  0.00    +0.152 C 
ATOM     11  C   UNL     1      -5.804 -10.295   7.539  0.00  0.00    +0.165 C 
ATOM     12  C   UNL     1      -6.956 -10.381   6.545  0.00  0.00    +0.174 C 
ENDROOT
BRANCH   9   6
ATOM      6  N   UNL     1      -5.808 -10.064  10.039  0.00  0.00    -0.292 NA
ATOM      7  N   UNL     1      -4.396 -10.509  12.482  0.00  0.00    -0.327 N 
ATOM     13  C   UNL     1      -6.531 -10.466  11.253  0.00  0.00    +0.104 C 
ATOM     14  C   UNL     1      -4.475 -10.678  10.026  0.00  0.00    +0.104 C 
ATOM     16  C   UNL     1      -5.781 -10.023  12.511  0.00  0.00    +0.120 C 
ATOM     17  C   UNL     1      -3.657 -10.244  11.244  0.00  0.00    +0.120 C 
BRANCH   7  19
ATOM      1  F   UNL     1      -1.671 -10.872  17.278  0.00  0.00    -0.205 F 
ATOM     19  C   UNL     1      -3.705 -10.600  13.696  0.00  0.00    +0.030 A 
ATOM     21  C   UNL     1      -4.409 -10.799  14.884  0.00  0.00    +0.026 A 
ATOM     22  C   UNL     1      -2.315 -10.494  13.718  0.00  0.00    +0.026 A 
ATOM     24  C   UNL     1      -3.722 -10.891  16.095  0.00  0.00    +0.040 A 
ATOM     25  C   UNL     1      -1.628 -10.586  14.929  0.00  0.00    +0.040 A 
ATOM     26  C   UNL     1      -2.332 -10.784  16.117  0.00  0.00    +0.124 A 
ENDBRANCH   7  19
ENDBRANCH   9   6
BRANCH  11   4
ATOM      4  O   UNL     1      -5.161  -9.031   7.444  0.00  0.00    -0.388 OA
ATOM     32  H   UNL     1      -5.800  -8.354   7.724  0.00  0.00    +0.210 HD
ENDBRANCH  11   4
BRANCH  10  15
ATOM     15  C   UNL     1      -7.874  -8.203   9.017  0.00  0.00    +0.114 C 
BRANCH  15   8
ATOM      8  N   UNL     1      -9.177  -7.830   9.548  0.00  0.00    -0.310 NA
ATOM     33  H   UNL     1      -9.697  -8.673   9.788  0.00  0.00    +0.122 HD
BRANCH   8  20
ATOM     20  C   UNL     1      -9.929  -7.044   8.578  0.00  0.00    +0.116 C 
BRANCH  20  23
ATOM      2  F   UNL     1     -12.830  -2.891  11.047  0.00  0.00    -0.205 F 
ATOM     23  C   UNL     1     -10.704  -5.934   9.238  0.00  0.00    -0.033 A 
ATOM     27  C   UNL     1     -11.709  -6.237  10.156  0.00  0.00    +0.008 A 
ATOM     28  C   UNL     1     -10.416  -4.603   8.931  0.00  0.00    +0.008 A 
ATOM     29  C   UNL     1     -12.427  -5.208  10.768  0.00  0.00    +0.038 A 
ATOM     30  C   UNL     1     -11.134  -3.576   9.542  0.00  0.00    +0.038 A 
ATOM     31  C   UNL     1     -12.140  -3.878  10.460  0.00  0.00    +0.123 A 
ENDBRANCH  20  23
ENDBRANCH   8  20
ENDBRANCH  15   8
ENDBRANCH  10  15
BRANCH  12  18
ATOM     18  C   UNL     1      -6.691  -9.763   5.183  0.00  0.00    +0.190 C 
BRANCH  18   5
ATOM      5  O   UNL     1      -6.752  -8.351   5.301  0.00  0.00    -0.392 OA
ATOM     34  H   UNL     1      -6.241  -7.979   4.563  0.00  0.00    +0.210 HD
ENDBRANCH  18   5
ENDBRANCH  12  18
TORSDOF 9
ENDMDL
MODEL 9
REMARK VINA RESULT:      -5.9     32.127     36.853
REMARK  Name = 28961885
REMARK  9 active torsions:
REMARK  status: ('A' for Active; 'I' for Inactive)
REMARK    1  A    between atoms: O_4  and  C_11
REMARK    2  A    between atoms: O_5  and  C_18
REMARK    3  A    between atoms: N_6  and  C_9
REMARK    4  A    between atoms: N_7  and  C_19
REMARK    5  A    between atoms: N_8  and  C_15
REMARK    6  A    between atoms: N_8  and  C_20
REMARK    7  A    between atoms: C_10  and  C_15
REMARK    8  A    between atoms: C_12  and  C_18
REMARK    9  A    between atoms: C_20  and  C_23
REMARK                            x       y       z     vdW  Elec       q    Type
REMARK                         _______ _______ _______ _____ _____    ______ ____
ROOT
ATOM      3  O   UNL     1       9.738   7.695   4.618  0.00  0.00    -0.366 OA
ATOM      9  C   UNL     1      11.955   8.184   5.337  0.00  0.00    +0.118 C 
ATOM     10  C   UNL     1      11.073   7.919   4.109  0.00  0.00    +0.152 C 
ATOM     11  C   UNL     1      11.216   7.461   6.452  0.00  0.00    +0.165 C 
ATOM     12  C   UNL     1       9.770   7.737   6.057  0.00  0.00    +0.174 C 
ENDROOT
BRANCH   9   6
ATOM      6  N   UNL     1      13.360   7.844   5.202  0.00  0.00    -0.292 NA
ATOM      7  N   UNL     1      16.173   8.342   5.189  0.00  0.00    -0.327 N 
ATOM     13  C   UNL     1      13.974   8.611   4.111  0.00  0.00    +0.104 C 
ATOM     14  C   UNL     1      14.075   8.103   6.458  0.00  0.00    +0.104 C 
ATOM     16  C   UNL     1      15.441   8.221   3.922  0.00  0.00    +0.120 C 
ATOM     17  C   UNL     1      15.546   7.697   6.347  0.00  0.00    +0.120 C 
BRANCH   7  19
ATOM      1  F   UNL     1      21.674   8.844   4.970  0.00  0.00    -0.205 F 
ATOM     19  C   UNL     1      17.566   8.469   5.134  0.00  0.00    +0.030 A 
ATOM     21  C   UNL     1      18.241   8.228   3.938  0.00  0.00    +0.026 A 
ATOM     22  C   UNL     1      18.278   8.836   6.276  0.00  0.00    +0.026 A 
ATOM     24  C   UNL     1      19.629   8.355   3.881  0.00  0.00    +0.040 A 
ATOM     25  C   UNL     1      19.666   8.963   6.219  0.00  0.00    +0.040 A 
ATOM     26  C   UNL     1      20.342   8.722   5.023  0.00  0.00    +0.124 A 
ENDBRANCH   7  19
ENDBRANCH   9   6
BRANCH  11   4
ATOM      4  O   UNL     1      11.478   6.063   6.429  0.00  0.00    -0.388 OA
ATOM     32  H   UNL     1      12.240   5.897   7.009  0.00  0.00    +0.210 HD
ENDBRANCH  11   4
BRANCH  10  15
ATOM     15  C   UNL     1      11.438   6.712   3.252  0.00  0.00    +0.114 C 
BRANCH  15   8
ATOM      8  N   UNL     1      10.393   5.701   3.304  0.00  0.00    -0.310 NA
ATOM     33  H   UNL     1       9.855   5.815   4.163  0.00  0.00    +0.122 HD
BRANCH   8  20
ATOM     20  C   UNL     1      10.961   4.360   3.251  0.00  0.00    +0.116 C 
BRANCH  20  23
ATOM      2  F   UNL     1      13.024   3.159  -1.854  0.00  0.00    -0.205 F 
ATOM     23  C   UNL     1      11.513   4.039   1.887  0.00  0.00    -0.033 A 
ATOM     27  C   UNL     1      12.810   3.545   1.758  0.00  0.00    +0.008 A 
ATOM     28  C   UNL     1      10.725   4.236   0.752  0.00  0.00    +0.008 A 
ATOM     29  C   UNL     1      13.321   3.247   0.495  0.00  0.00    +0.038 A 
ATOM     30  C   UNL     1      11.236   3.939  -0.511  0.00  0.00    +0.038 A 
ATOM     31  C   UNL     1      12.534   3.445  -0.641  0.00  0.00    +0.123 A 
ENDBRANCH  20  23
ENDBRANCH   8  20
ENDBRANCH  15   8
ENDBRANCH  10  15
BRANCH  12  18
ATOM     18  C   UNL     1       8.745   6.763   6.609  0.00  0.00    +0.190 C 
BRANCH  18   5
ATOM      5  O   UNL     1       8.705   5.616   5.774  0.00  0.00    -0.392 OA
ATOM     34  H   UNL     1       9.406   5.016   6.079  0.00  0.00    +0.210 HD
ENDBRANCH  18   5
ENDBRANCH  12  18
TORSDOF 9
ENDMDL
MODEL 10
REMARK VINA RESULT:      -5.9     31.908     36.198
REMARK  Name = 28961885
REMARK  9 active torsions:
REMARK  status: ('A' for Active; 'I' for Inactive)
REMARK    1  A    between atoms: O_4  and  C_11
REMARK    2  A    between atoms: O_5  and  C_18
REMARK    3  A    between atoms: N_6  and  C_9
REMARK    4  A    between atoms: N_7  and  C_19
REMARK    5  A    between atoms: N_8  and  C_15
REMARK    6  A    between atoms: N_8  and  C_20
REMARK    7  A    between atoms: C_10  and  C_15
REMARK    8  A    between atoms: C_12  and  C_18
REMARK    9  A    between atoms: C_20  and  C_23
REMARK                            x       y       z     vdW  Elec       q    Type
REMARK                         _______ _______ _______ _____ _____    ______ ____
ROOT
ATOM      3  O   UNL     1       9.650   7.493   6.899  0.00  0.00    -0.366 OA
ATOM      9  C   UNL     1      11.971   8.001   7.051  0.00  0.00    +0.118 C 
ATOM     10  C   UNL     1      10.639   8.430   6.418  0.00  0.00    +0.152 C 
ATOM     11  C   UNL     1      11.768   6.516   7.302  0.00  0.00    +0.165 C 
ATOM     12  C   UNL     1      10.300   6.497   7.711  0.00  0.00    +0.174 C 
ENDROOT
BRANCH   9   6
ATOM      6  N   UNL     1      13.172   8.348   6.313  0.00  0.00    -0.292 NA
ATOM      7  N   UNL     1      15.896   9.145   5.992  0.00  0.00    -0.327 N 
ATOM     13  C   UNL     1      13.583   9.725   6.613  0.00  0.00    +0.104 C 
ATOM     14  C   UNL     1      14.262   7.420   6.639  0.00  0.00    +0.104 C 
ATOM     16  C   UNL     1      14.817  10.120   5.797  0.00  0.00    +0.120 C 
ATOM     17  C   UNL     1      15.518   7.738   5.825  0.00  0.00    +0.120 C 
BRANCH   7  19
ATOM      1  F   UNL     1      21.070  10.745   4.883  0.00  0.00    -0.205 F 
ATOM     19  C   UNL     1      17.207   9.550   5.710  0.00  0.00    +0.030 A 
ATOM     21  C   UNL     1      17.662  10.792   6.151  0.00  0.00    +0.026 A 
ATOM     22  C   UNL     1      18.056   8.711   4.990  0.00  0.00    +0.026 A 
ATOM     24  C   UNL     1      18.967  11.197   5.872  0.00  0.00    +0.040 A 
ATOM     25  C   UNL     1      19.362   9.115   4.711  0.00  0.00    +0.040 A 
ATOM     26  C   UNL     1      19.817  10.358   5.151  0.00  0.00    +0.124 A 
ENDBRANCH   7  19
ENDBRANCH   9   6
BRANCH  11   4
ATOM      4  O   UNL     1      11.961   5.756   6.116  0.00  0.00    -0.388 OA
ATOM     32  H   UNL     1      12.015   6.380   5.373  0.00  0.00    +0.210 HD
ENDBRANCH  11   4
BRANCH  10  15
ATOM     15  C   UNL     1      10.572   8.420   4.896  0.00  0.00    +0.114 C 
BRANCH  15   8
ATOM      8  N   UNL     1       9.829   7.263   4.415  0.00  0.00    -0.310 NA
ATOM     33  H   UNL     1      10.164   6.426   4.892  0.00  0.00    +0.122 HD
BRANCH   8  20
ATOM     20  C   UNL     1       9.982   7.107   2.975  0.00  0.00    +0.116 C 
BRANCH  20  23
ATOM      2  F   UNL     1      13.417   2.831   1.681  0.00  0.00    -0.205 F 
ATOM     23  C   UNL     1      10.900   5.965   2.629  0.00  0.00    -0.033 A 
ATOM     27  C   UNL     1      10.464   4.649   2.786  0.00  0.00    +0.008 A 
ATOM     28  C   UNL     1      12.186   6.222   2.151  0.00  0.00    +0.008 A 
ATOM     29  C   UNL     1      11.314   3.590   2.466  0.00  0.00    +0.038 A 
ATOM     30  C   UNL     1      13.035   5.164   1.832  0.00  0.00    +0.038 A 
ATOM     31  C   UNL     1      12.601   3.848   1.989  0.00  0.00    +0.123 A 
ENDBRANCH  20  23
ENDBRANCH   8  20
ENDBRANCH  15   8
ENDBRANCH  10  15
BRANCH  12  18
ATOM     18  C   UNL     1       9.590   5.166   7.537  0.00  0.00    +0.190 C 
BRANCH  18   5
ATOM      5  O   UNL     1      10.434   4.130   8.012  0.00  0.00    -0.392 OA
ATOM     34  H   UNL     1      10.340   4.105   8.979  0.00  0.00    +0.210 HD
ENDBRANCH  18   5
ENDBRANCH  12  18
TORSDOF 9
ENDMDL
