MODEL 1
REMARK VINA RESULT:      -6.9      0.000      0.000
REMARK  Name = 75537060
REMARK  5 active torsions:
REMARK  status: ('A' for Active; 'I' for Inactive)
REMARK    1  A    between atoms: O_2  and  C_24
REMARK    2  A    between atoms: O_2  and  C_25
REMARK    3  A    between atoms: N_4  and  C_13
REMARK    4  A    between atoms: N_5  and  C_14
REMARK    5  A    between atoms: C_13  and  C_15
REMARK                            x       y       z     vdW  Elec       q    Type
REMARK                         _______ _______ _______ _____ _____    ______ ____
ROOT
ATOM      1  O   UNL     1      16.810   5.492  18.628  0.00  0.00    -0.252 OA
ATOM      3  N   UNL     1      15.506   7.071  19.744  0.00  0.00    -0.278 N 
ATOM      4  N   UNL     1      13.570   9.074  20.136  0.00  0.00    -0.295 NA
ATOM      5  N   UNL     1      17.679   6.902  20.357  0.00  0.00    -0.254 N 
ATOM      7  C   UNL     1      15.625   7.946  20.883  0.00  0.00    +0.109 C 
ATOM      8  C   UNL     1      14.956   9.291  20.599  0.00  0.00    +0.109 C 
ATOM      9  C   UNL     1      17.129   8.015  21.122  0.00  0.00    +0.139 C 
ATOM     10  C   UNL     1      14.212   6.902  19.114  0.00  0.00    +0.125 C 
ATOM     11  C   UNL     1      13.551   8.266  18.900  0.00  0.00    +0.104 C 
ATOM     12  C   UNL     1      16.693   6.368  19.475  0.00  0.00    +0.309 C 
ENDROOT
BRANCH   5  14
ATOM     14  C   UNL     1      19.044   6.505  20.460  0.00  0.00    +0.038 A 
ATOM     16  C   UNL     1      20.028   7.455  20.732  0.00  0.00    +0.023 A 
ATOM     17  C   UNL     1      19.396   5.167  20.287  0.00  0.00    +0.023 A 
ATOM     20  C   UNL     1      21.364   7.067  20.831  0.00  0.00    +0.002 A 
ATOM     21  C   UNL     1      20.732   4.779  20.387  0.00  0.00    +0.002 A 
ATOM     22  C   UNL     1      21.716   5.729  20.659  0.00  0.00    +0.000 A 
ENDBRANCH   5  14
BRANCH   4  13
ATOM     13  C   UNL     1      12.900  10.357  19.918  0.00  0.00    +0.121 C 
BRANCH  13  15
ATOM      6  N   UNL     1      10.988  10.292  23.184  0.00  0.00    -0.221 NA
ATOM     15  C   UNL     1      12.184  10.832  21.153  0.00  0.00    -0.015 A 
ATOM     18  C   UNL     1      12.044  12.189  21.423  0.00  0.00    +0.011 A 
ATOM     19  C   UNL     1      11.643   9.933  22.057  0.00  0.00    +0.119 A 
ATOM     23  C   UNL     1      11.378  12.599  22.572  0.00  0.00    +0.067 A 
ATOM     24  C   UNL     1      10.873  11.620  23.413  0.00  0.00    +0.214 A 
BRANCH  24   2
ATOM      2  O   UNL     1      10.212  11.998  24.551  0.00  0.00    -0.480 OA
ATOM     25  C   UNL     1      10.582  13.247  25.123  0.00  0.00    +0.279 C 
ENDBRANCH  24   2
ENDBRANCH  13  15
ENDBRANCH   4  13
TORSDOF 4
ENDMDL
MODEL 2
REMARK VINA RESULT:      -6.7      3.496      4.475
REMARK  Name = 75537060
REMARK  5 active torsions:
REMARK  status: ('A' for Active; 'I' for Inactive)
REMARK    1  A    between atoms: O_2  and  C_24
REMARK    2  A    between atoms: O_2  and  C_25
REMARK    3  A    between atoms: N_4  and  C_13
REMARK    4  A    between atoms: N_5  and  C_14
REMARK    5  A    between atoms: C_13  and  C_15
REMARK                            x       y       z     vdW  Elec       q    Type
REMARK                         _______ _______ _______ _____ _____    ______ ____
ROOT
ATOM      1  O   UNL     1      19.723   8.036  22.414  0.00  0.00    -0.252 OA
ATOM      3  N   UNL     1      17.769   7.744  21.176  0.00  0.00    -0.278 N 
ATOM      4  N   UNL     1      15.017   7.624  20.602  0.00  0.00    -0.295 NA
ATOM      5  N   UNL     1      19.483   6.326  20.755  0.00  0.00    -0.254 N 
ATOM      7  C   UNL     1      17.322   6.971  20.045  0.00  0.00    +0.109 C 
ATOM      8  C   UNL     1      15.890   6.483  20.259  0.00  0.00    +0.109 C 
ATOM      9  C   UNL     1      18.368   5.866  19.936  0.00  0.00    +0.139 C 
ATOM     10  C   UNL     1      16.917   8.796  21.693  0.00  0.00    +0.125 C 
ATOM     11  C   UNL     1      15.481   8.286  21.838  0.00  0.00    +0.104 C 
ATOM     12  C   UNL     1      19.088   7.442  21.553  0.00  0.00    +0.309 C 
ENDROOT
BRANCH   5  14
ATOM     14  C   UNL     1      20.743   5.660  20.775  0.00  0.00    +0.038 A 
ATOM     16  C   UNL     1      21.908   6.363  20.468  0.00  0.00    +0.023 A 
ATOM     17  C   UNL     1      20.811   4.306  21.101  0.00  0.00    +0.023 A 
ATOM     20  C   UNL     1      23.141   5.711  20.486  0.00  0.00    +0.002 A 
ATOM     21  C   UNL     1      22.043   3.654  21.120  0.00  0.00    +0.002 A 
ATOM     22  C   UNL     1      23.209   4.357  20.813  0.00  0.00    +0.000 A 
ENDBRANCH   5  14
BRANCH   4  13
ATOM     13  C   UNL     1      13.632   7.177  20.751  0.00  0.00    +0.121 C 
BRANCH  13  15
ATOM      6  N   UNL     1      10.663   8.471  18.791  0.00  0.00    -0.221 NA
ATOM     15  C   UNL     1      12.776   7.610  19.591  0.00  0.00    -0.015 A 
ATOM     18  C   UNL     1      13.257   7.559  18.287  0.00  0.00    +0.011 A 
ATOM     19  C   UNL     1      11.483   8.069  19.787  0.00  0.00    +0.119 A 
ATOM     23  C   UNL     1      12.443   7.965  17.235  0.00  0.00    +0.067 A 
ATOM     24  C   UNL     1      11.166   8.409  17.538  0.00  0.00    +0.214 A 
BRANCH  24   2
ATOM      2  O   UNL     1      10.344   8.814  16.519  0.00  0.00    -0.480 OA
ATOM     25  C   UNL     1      10.971   9.410  15.389  0.00  0.00    +0.279 C 
ENDBRANCH  24   2
ENDBRANCH  13  15
ENDBRANCH   4  13
TORSDOF 4
ENDMDL
MODEL 3
REMARK VINA RESULT:      -6.7     28.137     31.579
REMARK  Name = 75537060
REMARK  5 active torsions:
REMARK  status: ('A' for Active; 'I' for Inactive)
REMARK    1  A    between atoms: O_2  and  C_24
REMARK    2  A    between atoms: O_2  and  C_25
REMARK    3  A    between atoms: N_4  and  C_13
REMARK    4  A    between atoms: N_5  and  C_14
REMARK    5  A    between atoms: C_13  and  C_15
REMARK                            x       y       z     vdW  Elec       q    Type
REMARK                         _______ _______ _______ _____ _____    ______ ____
ROOT
ATOM      1  O   UNL     1     -16.313   5.283  20.701  0.00  0.00    -0.252 OA
ATOM      3  N   UNL     1     -16.205   4.179  22.752  0.00  0.00    -0.278 N 
ATOM      4  N   UNL     1     -17.082   3.037  25.169  0.00  0.00    -0.295 NA
ATOM      5  N   UNL     1     -14.524   5.613  22.258  0.00  0.00    -0.254 N 
ATOM      7  C   UNL     1     -15.262   4.007  23.828  0.00  0.00    +0.109 C 
ATOM      8  C   UNL     1     -15.979   4.019  25.177  0.00  0.00    +0.109 C 
ATOM      9  C   UNL     1     -14.272   5.147  23.616  0.00  0.00    +0.139 C 
ATOM     10  C   UNL     1     -17.405   3.367  22.728  0.00  0.00    +0.125 C 
ATOM     11  C   UNL     1     -18.061   3.358  24.111  0.00  0.00    +0.104 C 
ATOM     12  C   UNL     1     -15.741   5.058  21.759  0.00  0.00    +0.309 C 
ENDROOT
BRANCH   5  14
ATOM     14  C   UNL     1     -13.680   6.557  21.604  0.00  0.00    +0.038 A 
ATOM     16  C   UNL     1     -12.408   6.177  21.178  0.00  0.00    +0.023 A 
ATOM     17  C   UNL     1     -14.126   7.861  21.391  0.00  0.00    +0.023 A 
ATOM     20  C   UNL     1     -11.581   7.101  20.539  0.00  0.00    +0.002 A 
ATOM     21  C   UNL     1     -13.301   8.785  20.752  0.00  0.00    +0.002 A 
ATOM     22  C   UNL     1     -12.028   8.405  20.325  0.00  0.00    +0.000 A 
ENDBRANCH   5  14
BRANCH   4  13
ATOM     13  C   UNL     1     -17.738   2.998  26.476  0.00  0.00    +0.121 C 
BRANCH  13  15
ATOM      6  N   UNL     1     -15.808   0.522  28.591  0.00  0.00    -0.221 NA
ATOM     15  C   UNL     1     -16.830   2.445  27.542  0.00  0.00    -0.015 A 
ATOM     18  C   UNL     1     -16.187   3.287  28.443  0.00  0.00    +0.011 A 
ATOM     19  C   UNL     1     -16.609   1.083  27.658  0.00  0.00    +0.119 A 
ATOM     23  C   UNL     1     -15.355   2.748  29.417  0.00  0.00    +0.067 A 
ATOM     24  C   UNL     1     -15.199   1.372  29.449  0.00  0.00    +0.214 A 
BRANCH  24   2
ATOM      2  O   UNL     1     -14.384   0.816  30.399  0.00  0.00    -0.480 OA
ATOM     25  C   UNL     1     -14.947  -0.213  31.204  0.00  0.00    +0.279 C 
ENDBRANCH  24   2
ENDBRANCH  13  15
ENDBRANCH   4  13
TORSDOF 4
ENDMDL
MODEL 4
REMARK VINA RESULT:      -6.4     27.774     29.534
REMARK  Name = 75537060
REMARK  5 active torsions:
REMARK  status: ('A' for Active; 'I' for Inactive)
REMARK    1  A    between atoms: O_2  and  C_24
REMARK    2  A    between atoms: O_2  and  C_25
REMARK    3  A    between atoms: N_4  and  C_13
REMARK    4  A    between atoms: N_5  and  C_14
REMARK    5  A    between atoms: C_13  and  C_15
REMARK                            x       y       z     vdW  Elec       q    Type
REMARK                         _______ _______ _______ _____ _____    ______ ____
ROOT
ATOM      1  O   UNL     1      -4.604 -11.787  18.605  0.00  0.00    -0.252 OA
ATOM      3  N   UNL     1      -6.400 -10.455  17.941  0.00  0.00    -0.278 N 
ATOM      4  N   UNL     1      -9.060  -9.583  17.661  0.00  0.00    -0.295 NA
ATOM      5  N   UNL     1      -4.721 -10.749  16.450  0.00  0.00    -0.254 N 
ATOM      7  C   UNL     1      -6.739  -9.584  16.845  0.00  0.00    +0.109 C 
ATOM      8  C   UNL     1      -8.210  -9.747  16.464  0.00  0.00    +0.109 C 
ATOM      9  C   UNL     1      -5.747  -9.979  15.757  0.00  0.00    +0.139 C 
ATOM     10  C   UNL     1      -7.255 -10.486  19.111  0.00  0.00    +0.125 C 
ATOM     11  C   UNL     1      -8.721 -10.591  18.686  0.00  0.00    +0.104 C 
ATOM     12  C   UNL     1      -5.156 -11.085  17.767  0.00  0.00    +0.309 C 
ENDROOT
BRANCH   5  14
ATOM     14  C   UNL     1      -3.510 -11.153  15.817  0.00  0.00    +0.038 A 
ATOM     16  C   UNL     1      -2.312 -10.510  16.129  0.00  0.00    +0.023 A 
ATOM     17  C   UNL     1      -3.522 -12.191  14.886  0.00  0.00    +0.023 A 
ATOM     20  C   UNL     1      -1.127 -10.904  15.509  0.00  0.00    +0.002 A 
ATOM     21  C   UNL     1      -2.337 -12.586  14.266  0.00  0.00    +0.002 A 
ATOM     22  C   UNL     1      -1.138 -11.943  14.578  0.00  0.00    +0.000 A 
ENDBRANCH   5  14
BRANCH   4  13
ATOM     13  C   UNL     1     -10.474  -9.678  17.299  0.00  0.00    +0.121 C 
BRANCH  13  15
ATOM      6  N   UNL     1     -12.010  -7.600  14.533  0.00  0.00    -0.221 NA
ATOM     15  C   UNL     1     -10.932  -8.481  16.510  0.00  0.00    -0.015 A 
ATOM     18  C   UNL     1     -10.723  -7.189  16.980  0.00  0.00    +0.011 A 
ATOM     19  C   UNL     1     -11.574  -8.631  15.291  0.00  0.00    +0.119 A 
ATOM     23  C   UNL     1     -11.157  -6.103  16.229  0.00  0.00    +0.067 A 
ATOM     24  C   UNL     1     -11.790  -6.359  15.024  0.00  0.00    +0.214 A 
BRANCH  24   2
ATOM      2  O   UNL     1     -12.227  -5.306  14.265  0.00  0.00    -0.480 OA
ATOM     25  C   UNL     1     -12.654  -5.603  12.941  0.00  0.00    +0.279 C 
ENDBRANCH  24   2
ENDBRANCH  13  15
ENDBRANCH   4  13
TORSDOF 4
ENDMDL
MODEL 5
REMARK VINA RESULT:      -6.3      3.398      9.474
REMARK  Name = 75537060
REMARK  5 active torsions:
REMARK  status: ('A' for Active; 'I' for Inactive)
REMARK    1  A    between atoms: O_2  and  C_24
REMARK    2  A    between atoms: O_2  and  C_25
REMARK    3  A    between atoms: N_4  and  C_13
REMARK    4  A    between atoms: N_5  and  C_14
REMARK    5  A    between atoms: C_13  and  C_15
REMARK                            x       y       z     vdW  Elec       q    Type
REMARK                         _______ _______ _______ _____ _____    ______ ____
ROOT
ATOM      1  O   UNL     1      15.775   9.949  20.746  0.00  0.00    -0.252 OA
ATOM      3  N   UNL     1      17.150   8.075  20.927  0.00  0.00    -0.278 N 
ATOM      4  N   UNL     1      19.513   6.552  21.035  0.00  0.00    -0.295 NA
ATOM      5  N   UNL     1      15.233   7.843  19.744  0.00  0.00    -0.254 N 
ATOM      7  C   UNL     1      17.092   6.670  20.612  0.00  0.00    +0.109 C 
ATOM      8  C   UNL     1      18.442   6.181  20.088  0.00  0.00    +0.109 C 
ATOM      9  C   UNL     1      15.944   6.577  19.614  0.00  0.00    +0.139 C 
ATOM     10  C   UNL     1      18.248   8.575  21.729  0.00  0.00    +0.125 C 
ATOM     11  C   UNL     1      19.575   8.017  21.208  0.00  0.00    +0.104 C 
ATOM     12  C   UNL     1      16.007   8.772  20.502  0.00  0.00    +0.309 C 
ENDROOT
BRANCH   5  14
ATOM     14  C   UNL     1      13.981   8.086  19.108  0.00  0.00    +0.038 A 
ATOM     16  C   UNL     1      12.819   8.187  19.873  0.00  0.00    +0.023 A 
ATOM     17  C   UNL     1      13.918   8.223  17.722  0.00  0.00    +0.023 A 
ATOM     20  C   UNL     1      11.593   8.424  19.250  0.00  0.00    +0.002 A 
ATOM     21  C   UNL     1      12.693   8.461  17.100  0.00  0.00    +0.002 A 
ATOM     22  C   UNL     1      11.530   8.562  17.864  0.00  0.00    +0.000 A 
ENDBRANCH   5  14
BRANCH   4  13
ATOM     13  C   UNL     1      20.802   6.037  20.573  0.00  0.00    +0.121 C 
BRANCH  13  15
ATOM      6  N   UNL     1      22.196   4.705  23.830  0.00  0.00    -0.221 NA
ATOM     15  C   UNL     1      21.423   5.100  21.574  0.00  0.00    -0.015 A 
ATOM     18  C   UNL     1      21.793   3.809  21.213  0.00  0.00    +0.011 A 
ATOM     19  C   UNL     1      21.644   5.495  22.883  0.00  0.00    +0.119 A 
ATOM     23  C   UNL     1      22.364   2.965  22.160  0.00  0.00    +0.067 A 
ATOM     24  C   UNL     1      22.542   3.456  23.443  0.00  0.00    +0.214 A 
BRANCH  24   2
ATOM      2  O   UNL     1      23.104   2.645  24.393  0.00  0.00    -0.480 OA
ATOM     25  C   UNL     1      24.522   2.669  24.500  0.00  0.00    +0.279 C 
ENDBRANCH  24   2
ENDBRANCH  13  15
ENDBRANCH   4  13
TORSDOF 4
ENDMDL
MODEL 6
REMARK VINA RESULT:      -6.3     27.054     29.206
REMARK  Name = 75537060
REMARK  5 active torsions:
REMARK  status: ('A' for Active; 'I' for Inactive)
REMARK    1  A    between atoms: O_2  and  C_24
REMARK    2  A    between atoms: O_2  and  C_25
REMARK    3  A    between atoms: N_4  and  C_13
REMARK    4  A    between atoms: N_5  and  C_14
REMARK    5  A    between atoms: C_13  and  C_15
REMARK                            x       y       z     vdW  Elec       q    Type
REMARK                         _______ _______ _______ _____ _____    ______ ____
ROOT
ATOM      1  O   UNL     1      -1.524 -10.162  11.980  0.00  0.00    -0.252 OA
ATOM      3  N   UNL     1      -2.839 -10.355  13.896  0.00  0.00    -0.278 N 
ATOM      4  N   UNL     1      -3.560 -11.037  16.529  0.00  0.00    -0.295 NA
ATOM      5  N   UNL     1      -3.865 -10.660  11.901  0.00  0.00    -0.254 N 
ATOM      7  C   UNL     1      -4.235 -10.483  14.229  0.00  0.00    +0.109 C 
ATOM      8  C   UNL     1      -4.422 -11.446  15.402  0.00  0.00    +0.109 C 
ATOM      9  C   UNL     1      -4.872 -10.935  12.919  0.00  0.00    +0.139 C 
ATOM     10  C   UNL     1      -1.881 -10.102  14.954  0.00  0.00    +0.125 C 
ATOM     11  C   UNL     1      -2.137 -11.046  16.131  0.00  0.00    +0.104 C 
ATOM     12  C   UNL     1      -2.609 -10.361  12.510  0.00  0.00    +0.309 C 
ENDROOT
BRANCH   5  14
ATOM     14  C   UNL     1      -4.137 -10.772  10.507  0.00  0.00    +0.038 A 
ATOM     16  C   UNL     1      -4.469  -9.637   9.768  0.00  0.00    +0.023 A 
ATOM     17  C   UNL     1      -4.072 -12.017   9.882  0.00  0.00    +0.023 A 
ATOM     20  C   UNL     1      -4.737  -9.747   8.403  0.00  0.00    +0.002 A 
ATOM     21  C   UNL     1      -4.339 -12.128   8.518  0.00  0.00    +0.002 A 
ATOM     22  C   UNL     1      -4.671 -10.992   7.778  0.00  0.00    +0.000 A 
ENDBRANCH   5  14
BRANCH   4  13
ATOM     13  C   UNL     1      -3.774 -11.916  17.679  0.00  0.00    +0.121 C 
BRANCH  13  15
ATOM      6  N   UNL     1      -6.689 -10.279  19.453  0.00  0.00    -0.221 NA
ATOM     15  C   UNL     1      -5.136 -11.720  18.288  0.00  0.00    -0.015 A 
ATOM     18  C   UNL     1      -6.084 -12.738  18.268  0.00  0.00    +0.011 A 
ATOM     19  C   UNL     1      -5.485 -10.521  18.887  0.00  0.00    +0.119 A 
ATOM     23  C   UNL     1      -7.334 -12.527  18.839  0.00  0.00    +0.067 A 
ATOM     24  C   UNL     1      -7.585 -11.291  19.413  0.00  0.00    +0.214 A 
BRANCH  24   2
ATOM      2  O   UNL     1      -8.809 -11.059  19.983  0.00  0.00    -0.480 OA
ATOM     25  C   UNL     1      -9.836 -10.581  19.122  0.00  0.00    +0.279 C 
ENDBRANCH  24   2
ENDBRANCH  13  15
ENDBRANCH   4  13
TORSDOF 4
ENDMDL
MODEL 7
REMARK VINA RESULT:      -6.1     28.068     31.001
REMARK  Name = 75537060
REMARK  5 active torsions:
REMARK  status: ('A' for Active; 'I' for Inactive)
REMARK    1  A    between atoms: O_2  and  C_24
REMARK    2  A    between atoms: O_2  and  C_25
REMARK    3  A    between atoms: N_4  and  C_13
REMARK    4  A    between atoms: N_5  and  C_14
REMARK    5  A    between atoms: C_13  and  C_15
REMARK                            x       y       z     vdW  Elec       q    Type
REMARK                         _______ _______ _______ _____ _____    ______ ____
ROOT
ATOM      1  O   UNL     1     -10.774  -9.630  19.060  0.00  0.00    -0.252 OA
ATOM      3  N   UNL     1      -8.773 -10.344  18.100  0.00  0.00    -0.278 N 
ATOM      4  N   UNL     1      -6.066 -11.092  17.919  0.00  0.00    -0.295 NA
ATOM      5  N   UNL     1     -10.049  -8.915  16.893  0.00  0.00    -0.254 N 
ATOM      7  C   UNL     1      -8.107 -10.261  16.825  0.00  0.00    +0.109 C 
ATOM      8  C   UNL     1      -6.604 -10.055  17.015  0.00  0.00    +0.109 C 
ATOM      9  C   UNL     1      -8.828  -9.115  16.122  0.00  0.00    +0.139 C 
ATOM     10  C   UNL     1      -8.237 -11.223  19.120  0.00  0.00    +0.125 C 
ATOM     11  C   UNL     1      -6.724 -11.028  19.240  0.00  0.00    +0.104 C 
ATOM     12  C   UNL     1      -9.980  -9.627  18.129  0.00  0.00    +0.309 C 
ENDROOT
BRANCH   5  14
ATOM     14  C   UNL     1     -11.094  -8.049  16.458  0.00  0.00    +0.038 A 
ATOM     16  C   UNL     1     -12.406  -8.519  16.392  0.00  0.00    +0.023 A 
ATOM     17  C   UNL     1     -10.806  -6.733  16.099  0.00  0.00    +0.023 A 
ATOM     20  C   UNL     1     -13.429  -7.672  15.965  0.00  0.00    +0.002 A 
ATOM     21  C   UNL     1     -11.828  -5.886  15.674  0.00  0.00    +0.002 A 
ATOM     22  C   UNL     1     -13.140  -6.355  15.607  0.00  0.00    +0.000 A 
ENDBRANCH   5  14
BRANCH   4  13
ATOM     13  C   UNL     1      -4.618 -10.941  18.062  0.00  0.00    +0.121 C 
BRANCH  13  15
ATOM      6  N   UNL     1      -3.640 -12.926  14.990  0.00  0.00    -0.221 NA
ATOM     15  C   UNL     1      -3.886 -11.358  16.815  0.00  0.00    -0.015 A 
ATOM     18  C   UNL     1      -2.815 -10.614  16.329  0.00  0.00    +0.011 A 
ATOM     19  C   UNL     1      -4.255 -12.495  16.115  0.00  0.00    +0.119 A 
ATOM     23  C   UNL     1      -2.158 -11.024  15.175  0.00  0.00    +0.067 A 
ATOM     24  C   UNL     1      -2.605 -12.176  14.548  0.00  0.00    +0.214 A 
BRANCH  24   2
ATOM      2  O   UNL     1      -1.974 -12.601  13.409  0.00  0.00    -0.480 OA
ATOM     25  C   UNL     1      -2.601 -12.284  12.172  0.00  0.00    +0.279 C 
ENDBRANCH  24   2
ENDBRANCH  13  15
ENDBRANCH   4  13
TORSDOF 4
ENDMDL
MODEL 8
REMARK VINA RESULT:      -6.1     27.331     29.467
REMARK  Name = 75537060
REMARK  5 active torsions:
REMARK  status: ('A' for Active; 'I' for Inactive)
REMARK    1  A    between atoms: O_2  and  C_24
REMARK    2  A    between atoms: O_2  and  C_25
REMARK    3  A    between atoms: N_4  and  C_13
REMARK    4  A    between atoms: N_5  and  C_14
REMARK    5  A    between atoms: C_13  and  C_15
REMARK                            x       y       z     vdW  Elec       q    Type
REMARK                         _______ _______ _______ _____ _____    ______ ____
ROOT
ATOM      1  O   UNL     1      -2.186 -10.888  16.044  0.00  0.00    -0.252 OA
ATOM      3  N   UNL     1      -3.019 -10.797  13.868  0.00  0.00    -0.278 N 
ATOM      4  N   UNL     1      -3.180 -10.110  11.144  0.00  0.00    -0.295 NA
ATOM      5  N   UNL     1      -4.524 -10.720  15.557  0.00  0.00    -0.254 N 
ATOM      7  C   UNL     1      -4.299 -10.848  13.208  0.00  0.00    +0.109 C 
ATOM      8  C   UNL     1      -4.336  -9.872  12.032  0.00  0.00    +0.109 C 
ATOM      9  C   UNL     1      -5.287 -10.543  14.328  0.00  0.00    +0.139 C 
ATOM     10  C   UNL     1      -1.810 -10.870  13.072  0.00  0.00    +0.125 C 
ATOM     11  C   UNL     1      -1.911  -9.922  11.875  0.00  0.00    +0.104 C 
ATOM     12  C   UNL     1      -3.130 -10.817  15.268  0.00  0.00    +0.309 C 
ENDROOT
BRANCH   5  14
ATOM     14  C   UNL     1      -5.135 -10.705  16.845  0.00  0.00    +0.038 A 
ATOM     16  C   UNL     1      -6.307  -9.979  17.052  0.00  0.00    +0.023 A 
ATOM     17  C   UNL     1      -4.560 -11.417  17.898  0.00  0.00    +0.023 A 
ATOM     20  C   UNL     1      -6.904  -9.963  18.313  0.00  0.00    +0.002 A 
ATOM     21  C   UNL     1      -5.157 -11.402  19.158  0.00  0.00    +0.002 A 
ATOM     22  C   UNL     1      -6.330 -10.675  19.365  0.00  0.00    +0.000 A 
ENDBRANCH   5  14
BRANCH   4  13
ATOM     13  C   UNL     1      -3.238  -9.221   9.984  0.00  0.00    +0.121 C 
BRANCH  13  15
ATOM      6  N   UNL     1      -6.043 -10.454   7.762  0.00  0.00    -0.221 NA
ATOM     15  C   UNL     1      -4.571  -9.293   9.288  0.00  0.00    -0.015 A 
ATOM     18  C   UNL     1      -5.543  -8.320   9.497  0.00  0.00    +0.011 A 
ATOM     19  C   UNL     1      -4.868 -10.330   8.418  0.00  0.00    +0.119 A 
ATOM     23  C   UNL     1      -6.764  -8.414   8.840  0.00  0.00    +0.067 A 
ATOM     24  C   UNL     1      -6.964  -9.490   7.991  0.00  0.00    +0.214 A 
BRANCH  24   2
ATOM      2  O   UNL     1      -8.159  -9.604   7.332  0.00  0.00    -0.480 OA
ATOM     25  C   UNL     1      -9.328  -9.242   8.057  0.00  0.00    +0.279 C 
ENDBRANCH  24   2
ENDBRANCH  13  15
ENDBRANCH   4  13
TORSDOF 4
ENDMDL
MODEL 9
REMARK VINA RESULT:      -6.0     29.449     32.102
REMARK  Name = 75537060
REMARK  5 active torsions:
REMARK  status: ('A' for Active; 'I' for Inactive)
REMARK    1  A    between atoms: O_2  and  C_24
REMARK    2  A    between atoms: O_2  and  C_25
REMARK    3  A    between atoms: N_4  and  C_13
REMARK    4  A    between atoms: N_5  and  C_14
REMARK    5  A    between atoms: C_13  and  C_15
REMARK                            x       y       z     vdW  Elec       q    Type
REMARK                         _______ _______ _______ _____ _____    ______ ____
ROOT
ATOM      1  O   UNL     1     -12.584  -8.166  12.563  0.00  0.00    -0.252 OA
ATOM      3  N   UNL     1     -11.234  -8.273  14.461  0.00  0.00    -0.278 N 
ATOM      4  N   UNL     1     -10.093  -9.304  16.817  0.00  0.00    -0.295 NA
ATOM      5  N   UNL     1     -12.156  -6.268  13.958  0.00  0.00    -0.254 N 
ATOM      7  C   UNL     1     -10.648  -7.363  15.412  0.00  0.00    +0.109 C 
ATOM      8  C   UNL     1     -10.692  -7.954  16.820  0.00  0.00    +0.109 C 
ATOM      9  C   UNL     1     -11.460  -6.086  15.226  0.00  0.00    +0.139 C 
ATOM     10  C   UNL     1     -10.826  -9.664  14.471  0.00  0.00    +0.125 C 
ATOM     11  C   UNL     1     -10.827 -10.202  15.904  0.00  0.00    +0.104 C 
ATOM     12  C   UNL     1     -12.060  -7.625  13.528  0.00  0.00    +0.309 C 
ENDROOT
BRANCH   5  14
ATOM     14  C   UNL     1     -12.886  -5.218  13.328  0.00  0.00    +0.038 A 
ATOM     16  C   UNL     1     -12.241  -4.354  12.444  0.00  0.00    +0.023 A 
ATOM     17  C   UNL     1     -14.245  -5.054  13.597  0.00  0.00    +0.023 A 
ATOM     20  C   UNL     1     -12.954  -3.325  11.829  0.00  0.00    +0.002 A 
ATOM     21  C   UNL     1     -14.958  -4.027  12.981  0.00  0.00    +0.002 A 
ATOM     22  C   UNL     1     -14.313  -3.162  12.097  0.00  0.00    +0.000 A 
ENDBRANCH   5  14
BRANCH   4  13
ATOM     13  C   UNL     1     -10.075  -9.856  18.172  0.00  0.00    +0.121 C 
BRANCH  13  15
ATOM      6  N   UNL     1      -7.358 -11.770  19.983  0.00  0.00    -0.221 NA
ATOM     15  C   UNL     1      -8.713 -10.372  18.550  0.00  0.00    -0.015 A 
ATOM     18  C   UNL     1      -7.575  -9.960  17.864  0.00  0.00    +0.011 A 
ATOM     19  C   UNL     1      -8.552 -11.270  19.592  0.00  0.00    +0.119 A 
ATOM     23  C   UNL     1      -6.329 -10.453  18.236  0.00  0.00    +0.067 A 
ATOM     24  C   UNL     1      -6.275 -11.348  19.292  0.00  0.00    +0.214 A 
BRANCH  24   2
ATOM      2  O   UNL     1      -5.060 -11.848  19.678  0.00  0.00    -0.480 OA
ATOM     25  C   UNL     1      -3.996 -11.745  18.739  0.00  0.00    +0.279 C 
ENDBRANCH  24   2
ENDBRANCH  13  15
ENDBRANCH   4  13
TORSDOF 4
ENDMDL
MODEL 10
REMARK VINA RESULT:      -5.9     28.667     30.530
REMARK  Name = 75537060
REMARK  5 active torsions:
REMARK  status: ('A' for Active; 'I' for Inactive)
REMARK    1  A    between atoms: O_2  and  C_24
REMARK    2  A    between atoms: O_2  and  C_25
REMARK    3  A    between atoms: N_4  and  C_13
REMARK    4  A    between atoms: N_5  and  C_14
REMARK    5  A    between atoms: C_13  and  C_15
REMARK                            x       y       z     vdW  Elec       q    Type
REMARK                         _______ _______ _______ _____ _____    ______ ____
ROOT
ATOM      1  O   UNL     1      -4.858 -10.435   7.517  0.00  0.00    -0.252 OA
ATOM      3  N   UNL     1      -6.851  -9.310   7.969  0.00  0.00    -0.278 N 
ATOM      4  N   UNL     1      -9.060  -7.616   7.564  0.00  0.00    -0.295 NA
ATOM      5  N   UNL     1      -5.365  -9.508   9.666  0.00  0.00    -0.254 N 
ATOM      7  C   UNL     1      -7.545  -8.778   9.114  0.00  0.00    +0.109 C 
ATOM      8  C   UNL     1      -8.219  -7.452   8.767  0.00  0.00    +0.109 C 
ATOM      9  C   UNL     1      -6.456  -8.687  10.178  0.00  0.00    +0.139 C 
ATOM     10  C   UNL     1      -7.538  -9.376   6.694  0.00  0.00    +0.125 C 
ATOM     11  C   UNL     1      -8.247  -8.050   6.410  0.00  0.00    +0.104 C 
ATOM     12  C   UNL     1      -5.590  -9.836   8.295  0.00  0.00    +0.309 C 
ENDROOT
BRANCH   5  14
ATOM     14  C   UNL     1      -4.220  -9.833  10.450  0.00  0.00    +0.038 A 
ATOM     16  C   UNL     1      -4.305 -10.821  11.431  0.00  0.00    +0.023 A 
ATOM     17  C   UNL     1      -3.016  -9.164  10.236  0.00  0.00    +0.023 A 
ATOM     20  C   UNL     1      -3.185 -11.139  12.199  0.00  0.00    +0.002 A 
ATOM     21  C   UNL     1      -1.896  -9.482  11.003  0.00  0.00    +0.002 A 
ATOM     22  C   UNL     1      -1.980 -10.470  11.985  0.00  0.00    +0.000 A 
ENDBRANCH   5  14
BRANCH   4  13
ATOM     13  C   UNL     1      -9.757  -6.367   7.256  0.00  0.00    +0.121 C 
BRANCH  13  15
ATOM      6  N   UNL     1     -12.179  -6.380  10.164  0.00  0.00    -0.221 NA
ATOM     15  C   UNL     1     -10.582  -5.884   8.418  0.00  0.00    -0.015 A 
ATOM     18  C   UNL     1     -10.536  -4.556   8.828  0.00  0.00    +0.011 A 
ATOM     19  C   UNL     1     -11.413  -6.748   9.114  0.00  0.00    +0.119 A 
ATOM     23  C   UNL     1     -11.310  -4.139   9.905  0.00  0.00    +0.067 A 
ATOM     24  C   UNL     1     -12.107  -5.082  10.535  0.00  0.00    +0.214 A 
BRANCH  24   2
ATOM      2  O   UNL     1     -12.879  -4.696  11.598  0.00  0.00    -0.480 OA
ATOM     25  C   UNL     1     -12.321  -3.726  12.477  0.00  0.00    +0.279 C 
ENDBRANCH  24   2
ENDBRANCH  13  15
ENDBRANCH   4  13
TORSDOF 4
ENDMDL
