MODEL 1
REMARK VINA RESULT:      -6.6      0.000      0.000
REMARK  Name = 11941977
REMARK  7 active torsions:
REMARK  status: ('A' for Active; 'I' for Inactive)
REMARK    1  A    between atoms: N_5  and  C_15
REMARK    2  A    between atoms: C_9  and  C_16
REMARK    3  A    between atoms: C_10  and  C_15
REMARK    4  A    between atoms: C_22  and  C_23
REMARK    5  A    between atoms: C_23  and  C_24
REMARK    6  A    between atoms: C_24  and  C_25
REMARK    7  A    between atoms: C_25  and  C_26
REMARK                            x       y       z     vdW  Elec       q    Type
REMARK                         _______ _______ _______ _____ _____    ______ ____
ROOT
ATOM      3  N   UNL     1      13.085   9.710  22.130  0.00  0.00    -0.297 NA
ATOM      8  C   UNL     1      12.831   7.430  20.903  0.00  0.00    +0.005 C 
ATOM      9  C   UNL     1      12.850   8.602  19.903  0.00  0.00    +0.092 C 
ATOM     10  C   UNL     1      11.960   8.939  22.721  0.00  0.00    +0.078 C 
ATOM     11  C   UNL     1      11.688   7.650  21.914  0.00  0.00    +0.025 C 
ATOM     12  C   UNL     1      14.155   7.493  21.686  0.00  0.00    +0.020 C 
ATOM     13  C   UNL     1      12.854   9.930  20.680  0.00  0.00    +0.097 C 
ATOM     14  C   UNL     1      14.321   8.903  22.283  0.00  0.00    +0.085 C 
ENDROOT
BRANCH   9  16
ATOM      1  O   UNL     1      10.541   8.454  19.387  0.00  0.00    -0.275 OA
ATOM      2  O   UNL     1      12.480   9.277  14.913  0.00  0.00    -0.377 OA
ATOM      4  N   UNL     1      12.004   8.524  17.586  0.00  0.00    -0.297 N 
ATOM     16  C   UNL     1      11.690   8.519  18.943  0.00  0.00    +0.220 C 
ATOM     17  C   UNL     1      13.358   8.472  17.027  0.00  0.00    +0.136 C 
ATOM     18  C   UNL     1      10.937   8.451  16.587  0.00  0.00    +0.136 C 
ATOM     20  C   UNL     1      13.500   9.481  15.894  0.00  0.00    +0.179 C 
ATOM     21  C   UNL     1      11.180   9.465  15.478  0.00  0.00    +0.179 C 
ENDBRANCH   9  16
BRANCH  10  15
ATOM     15  C   UNL     1      10.694   9.785  22.883  0.00  0.00    +0.164 C 
BRANCH  15   5
ATOM      5  N   UNL     1      10.916  10.929  23.750  0.00  0.00    -0.250 N 
ATOM      6  N   UNL     1      11.241  10.747  25.033  0.00  0.00    -0.065 NA
ATOM      7  N   UNL     1      11.374  11.956  25.570  0.00  0.00    -0.135 NA
ATOM     19  C   UNL     1      10.830  12.238  23.417  0.00  0.00    +0.133 A 
ATOM     22  C   UNL     1      11.126  12.879  24.593  0.00  0.00    +0.083 A 
BRANCH  22  23
ATOM     23  C   UNL     1      11.193  14.320  24.871  0.00  0.00    +0.059 C 
BRANCH  23  24
ATOM     24  C   UNL     1      10.674  15.193  23.708  0.00  0.00    +0.006 C 
BRANCH  24  25
ATOM     25  C   UNL     1       9.164  15.420  23.779  0.00  0.00    -0.003 C 
ATOM     26  C   UNL     1       8.483  15.060  22.469  0.00  0.00    +0.004 C 
ENDBRANCH  24  25
ENDBRANCH  23  24
ENDBRANCH  22  23
ENDBRANCH  15   5
ENDBRANCH  10  15
TORSDOF 6
ENDMDL
MODEL 2
REMARK VINA RESULT:      -6.2     15.442     20.214
REMARK  Name = 11941977
REMARK  7 active torsions:
REMARK  status: ('A' for Active; 'I' for Inactive)
REMARK    1  A    between atoms: N_5  and  C_15
REMARK    2  A    between atoms: C_9  and  C_16
REMARK    3  A    between atoms: C_10  and  C_15
REMARK    4  A    between atoms: C_22  and  C_23
REMARK    5  A    between atoms: C_23  and  C_24
REMARK    6  A    between atoms: C_24  and  C_25
REMARK    7  A    between atoms: C_25  and  C_26
REMARK                            x       y       z     vdW  Elec       q    Type
REMARK                         _______ _______ _______ _____ _____    ______ ____
ROOT
ATOM      3  N   UNL     1      13.200   5.761   1.553  0.00  0.00    -0.297 NA
ATOM      8  C   UNL     1      13.060   3.311   0.687  0.00  0.00    +0.005 C 
ATOM      9  C   UNL     1      12.708   4.317  -0.426  0.00  0.00    +0.092 C 
ATOM     10  C   UNL     1      12.340   4.951   2.457  0.00  0.00    +0.078 C 
ATOM     11  C   UNL     1      12.116   3.534   1.884  0.00  0.00    +0.025 C 
ATOM     12  C   UNL     1      14.486   3.652   1.157  0.00  0.00    +0.020 C 
ATOM     13  C   UNL     1      12.662   5.734   0.170  0.00  0.00    +0.097 C 
ATOM     14  C   UNL     1      14.549   5.144   1.534  0.00  0.00    +0.085 C 
ENDROOT
BRANCH   9  16
ATOM      1  O   UNL     1      10.345   4.149  -0.511  0.00  0.00    -0.275 OA
ATOM      2  O   UNL     1      11.563   3.012  -5.168  0.00  0.00    -0.377 OA
ATOM      4  N   UNL     1      11.506   3.402  -2.377  0.00  0.00    -0.297 N 
ATOM     16  C   UNL     1      11.410   3.951  -1.101  0.00  0.00    +0.220 C 
ATOM     17  C   UNL     1      12.755   3.036  -3.054  0.00  0.00    +0.136 C 
ATOM     18  C   UNL     1      10.295   3.023  -3.105  0.00  0.00    +0.136 C 
ATOM     20  C   UNL     1      12.728   3.508  -4.502  0.00  0.00    +0.179 C 
ATOM     21  C   UNL     1      10.371   3.501  -4.548  0.00  0.00    +0.179 C 
ENDBRANCH   9  16
BRANCH  10  15
ATOM     15  C   UNL     1      11.017   5.649   2.782  0.00  0.00    +0.164 C 
BRANCH  15   5
ATOM      5  N   UNL     1      11.004   6.181   4.134  0.00  0.00    -0.250 N 
ATOM      6  N   UNL     1      11.231   7.481   4.346  0.00  0.00    -0.065 NA
ATOM      7  N   UNL     1      11.163   7.672   5.660  0.00  0.00    -0.135 NA
ATOM     19  C   UNL     1      10.785   5.498   5.281  0.00  0.00    +0.133 A 
ATOM     22  C   UNL     1      10.890   6.468   6.246  0.00  0.00    +0.083 A 
BRANCH  22  23
ATOM     23  C   UNL     1      10.751   6.343   7.703  0.00  0.00    +0.059 C 
BRANCH  23  24
ATOM     24  C   UNL     1       9.406   5.723   8.139  0.00  0.00    +0.006 C 
BRANCH  24  25
ATOM     25  C   UNL     1       9.591   4.522   9.066  0.00  0.00    -0.003 C 
ATOM     26  C   UNL     1       8.753   4.657  10.327  0.00  0.00    +0.004 C 
ENDBRANCH  24  25
ENDBRANCH  23  24
ENDBRANCH  22  23
ENDBRANCH  15   5
ENDBRANCH  10  15
TORSDOF 6
ENDMDL
MODEL 3
REMARK VINA RESULT:      -6.1     27.363     29.357
REMARK  Name = 11941977
REMARK  7 active torsions:
REMARK  status: ('A' for Active; 'I' for Inactive)
REMARK    1  A    between atoms: N_5  and  C_15
REMARK    2  A    between atoms: C_9  and  C_16
REMARK    3  A    between atoms: C_10  and  C_15
REMARK    4  A    between atoms: C_22  and  C_23
REMARK    5  A    between atoms: C_23  and  C_24
REMARK    6  A    between atoms: C_24  and  C_25
REMARK    7  A    between atoms: C_25  and  C_26
REMARK                            x       y       z     vdW  Elec       q    Type
REMARK                         _______ _______ _______ _____ _____    ______ ____
ROOT
ATOM      3  N   UNL     1     -18.445   2.926  25.165  0.00  0.00    -0.297 NA
ATOM      8  C   UNL     1     -16.550   1.463  26.183  0.00  0.00    +0.005 C 
ATOM      9  C   UNL     1     -17.274   2.275  27.274  0.00  0.00    +0.092 C 
ATOM     10  C   UNL     1     -17.170   3.171  24.440  0.00  0.00    +0.078 C 
ATOM     11  C   UNL     1     -15.997   2.432  25.119  0.00  0.00    +0.025 C 
ATOM     12  C   UNL     1     -17.616   0.590  25.497  0.00  0.00    +0.020 C 
ATOM     13  C   UNL     1     -18.282   3.228  26.610  0.00  0.00    +0.097 C 
ATOM     14  C   UNL     1     -18.777   1.487  25.029  0.00  0.00    +0.085 C 
ENDROOT
BRANCH   9  16
ATOM      1  O   UNL     1     -16.214   4.245  28.057  0.00  0.00    -0.275 OA
ATOM      2  O   UNL     1     -14.508   0.888  31.264  0.00  0.00    -0.377 OA
ATOM      4  N   UNL     1     -15.523   2.244  29.012  0.00  0.00    -0.297 N 
ATOM     16  C   UNL     1     -16.292   3.017  28.145  0.00  0.00    +0.220 C 
ATOM     17  C   UNL     1     -15.499   0.779  29.052  0.00  0.00    +0.136 C 
ATOM     18  C   UNL     1     -14.549   2.886  29.895  0.00  0.00    +0.136 C 
ATOM     20  C   UNL     1     -15.553   0.289  30.493  0.00  0.00    +0.179 C 
ATOM     21  C   UNL     1     -14.648   2.311  31.301  0.00  0.00    +0.179 C 
ENDBRANCH   9  16
BRANCH  10  15
ATOM     15  C   UNL     1     -16.877   4.663  24.264  0.00  0.00    +0.164 C 
BRANCH  15   5
ATOM      5  N   UNL     1     -15.888   4.901  23.226  0.00  0.00    -0.250 N 
ATOM      6  N   UNL     1     -16.189   4.668  21.945  0.00  0.00    -0.065 NA
ATOM      7  N   UNL     1     -15.106   4.967  21.236  0.00  0.00    -0.135 NA
ATOM     19  C   UNL     1     -14.623   5.351  23.388  0.00  0.00    +0.133 A 
ATOM     22  C   UNL     1     -14.138   5.387  22.105  0.00  0.00    +0.083 A 
BRANCH  22  23
ATOM     23  C   UNL     1     -12.809   5.793  21.628  0.00  0.00    +0.059 C 
BRANCH  23  24
ATOM     24  C   UNL     1     -12.757   7.254  21.133  0.00  0.00    +0.006 C 
BRANCH  24  25
ATOM     25  C   UNL     1     -11.448   7.581  20.415  0.00  0.00    -0.003 C 
ATOM     26  C   UNL     1     -11.491   7.156  18.956  0.00  0.00    +0.004 C 
ENDBRANCH  24  25
ENDBRANCH  23  24
ENDBRANCH  22  23
ENDBRANCH  15   5
ENDBRANCH  10  15
TORSDOF 6
ENDMDL
MODEL 4
REMARK VINA RESULT:      -6.1     26.840     28.742
REMARK  Name = 11941977
REMARK  7 active torsions:
REMARK  status: ('A' for Active; 'I' for Inactive)
REMARK    1  A    between atoms: N_5  and  C_15
REMARK    2  A    between atoms: C_9  and  C_16
REMARK    3  A    between atoms: C_10  and  C_15
REMARK    4  A    between atoms: C_22  and  C_23
REMARK    5  A    between atoms: C_23  and  C_24
REMARK    6  A    between atoms: C_24  and  C_25
REMARK    7  A    between atoms: C_25  and  C_26
REMARK                            x       y       z     vdW  Elec       q    Type
REMARK                         _______ _______ _______ _____ _____    ______ ____
ROOT
ATOM      3  N   UNL     1      -5.317 -10.170  11.341  0.00  0.00    -0.297 NA
ATOM      8  C   UNL     1      -4.590  -8.984   9.142  0.00  0.00    +0.005 C 
ATOM      9  C   UNL     1      -5.476 -10.210   8.848  0.00  0.00    +0.092 C 
ATOM     10  C   UNL     1      -3.840  -9.996  11.322  0.00  0.00    +0.078 C 
ATOM     11  C   UNL     1      -3.366  -9.435   9.964  0.00  0.00    +0.025 C 
ATOM     12  C   UNL     1      -5.419  -8.040  10.032  0.00  0.00    +0.020 C 
ATOM     13  C   UNL     1      -5.758 -10.958  10.162  0.00  0.00    +0.097 C 
ATOM     14  C   UNL     1      -5.935  -8.824  11.253  0.00  0.00    +0.085 C 
ENDROOT
BRANCH   9  16
ATOM      1  O   UNL     1      -4.029 -11.964   8.179  0.00  0.00    -0.275 OA
ATOM      2  O   UNL     1      -6.478 -11.077   3.975  0.00  0.00    -0.377 OA
ATOM      4  N   UNL     1      -5.226 -10.907   6.494  0.00  0.00    -0.297 N 
ATOM     16  C   UNL     1      -4.840 -11.108   7.817  0.00  0.00    +0.220 C 
ATOM     17  C   UNL     1      -6.088  -9.822   6.015  0.00  0.00    +0.136 C 
ATOM     18  C   UNL     1      -4.660 -11.740   5.432  0.00  0.00    +0.136 C 
ATOM     20  C   UNL     1      -7.121 -10.362   5.034  0.00  0.00    +0.179 C 
ATOM     21  C   UNL     1      -5.755 -12.203   4.481  0.00  0.00    +0.179 C 
ENDBRANCH   9  16
BRANCH  10  15
ATOM     15  C   UNL     1      -3.097 -11.281  11.696  0.00  0.00    +0.164 C 
BRANCH  15   5
ATOM      5  N   UNL     1      -2.786 -11.333  13.114  0.00  0.00    -0.250 N 
ATOM      6  N   UNL     1      -1.668 -11.932  13.536  0.00  0.00    -0.065 NA
ATOM      7  N   UNL     1      -1.654 -11.828  14.860  0.00  0.00    -0.135 NA
ATOM     19  C   UNL     1      -3.521 -10.830  14.133  0.00  0.00    +0.133 A 
ATOM     22  C   UNL     1      -2.782 -11.156  15.242  0.00  0.00    +0.083 A 
BRANCH  22  23
ATOM     23  C   UNL     1      -3.062 -10.879  16.657  0.00  0.00    +0.059 C 
BRANCH  23  24
ATOM     24  C   UNL     1      -4.513 -10.420  16.915  0.00  0.00    +0.006 C 
BRANCH  24  25
ATOM     25  C   UNL     1      -4.993 -10.768  18.324  0.00  0.00    -0.003 C 
ATOM     26  C   UNL     1      -4.166 -11.888  18.934  0.00  0.00    +0.004 C 
ENDBRANCH  24  25
ENDBRANCH  23  24
ENDBRANCH  22  23
ENDBRANCH  15   5
ENDBRANCH  10  15
TORSDOF 6
ENDMDL
MODEL 5
REMARK VINA RESULT:      -6.0     26.719     28.601
REMARK  Name = 11941977
REMARK  7 active torsions:
REMARK  status: ('A' for Active; 'I' for Inactive)
REMARK    1  A    between atoms: N_5  and  C_15
REMARK    2  A    between atoms: C_9  and  C_16
REMARK    3  A    between atoms: C_10  and  C_15
REMARK    4  A    between atoms: C_22  and  C_23
REMARK    5  A    between atoms: C_23  and  C_24
REMARK    6  A    between atoms: C_24  and  C_25
REMARK    7  A    between atoms: C_25  and  C_26
REMARK                            x       y       z     vdW  Elec       q    Type
REMARK                         _______ _______ _______ _____ _____    ______ ____
ROOT
ATOM      3  N   UNL     1      -5.849 -12.510  18.062  0.00  0.00    -0.297 NA
ATOM      8  C   UNL     1      -6.459  -9.992  17.817  0.00  0.00    +0.005 C 
ATOM      9  C   UNL     1      -7.635 -10.894  17.396  0.00  0.00    +0.092 C 
ATOM     10  C   UNL     1      -4.809 -11.812  17.261  0.00  0.00    +0.078 C 
ATOM     11  C   UNL     1      -5.221 -10.352  16.971  0.00  0.00    +0.025 C 
ATOM     12  C   UNL     1      -6.132 -10.343  19.280  0.00  0.00    +0.020 C 
ATOM     13  C   UNL     1      -7.179 -12.363  17.418  0.00  0.00    +0.097 C 
ATOM     14  C   UNL     1      -5.909 -11.862  19.396  0.00  0.00    +0.085 C 
ENDROOT
BRANCH   9  16
ATOM      1  O   UNL     1      -7.851 -11.149  15.049  0.00  0.00    -0.275 OA
ATOM      2  O   UNL     1     -11.262  -7.687  15.962  0.00  0.00    -0.377 OA
ATOM      4  N   UNL     1      -9.016  -9.387  16.012  0.00  0.00    -0.297 N 
ATOM     16  C   UNL     1      -8.171 -10.495  16.044  0.00  0.00    +0.220 C 
ATOM     17  C   UNL     1      -9.315  -8.513  17.151  0.00  0.00    +0.136 C 
ATOM     18  C   UNL     1      -9.584  -8.936  14.742  0.00  0.00    +0.136 C 
ATOM     20  C   UNL     1     -10.809  -8.217  17.211  0.00  0.00    +0.179 C 
ATOM     21  C   UNL     1     -11.066  -8.628  14.903  0.00  0.00    +0.179 C 
ENDBRANCH   9  16
BRANCH  10  15
ATOM     15  C   UNL     1      -4.455 -12.568  15.979  0.00  0.00    +0.164 C 
BRANCH  15   5
ATOM      5  N   UNL     1      -3.488 -11.843  15.173  0.00  0.00    -0.250 N 
ATOM      6  N   UNL     1      -2.358 -11.390  15.724  0.00  0.00    -0.065 NA
ATOM      7  N   UNL     1      -1.682 -10.772  14.761  0.00  0.00    -0.135 NA
ATOM     19  C   UNL     1      -3.581 -11.540  13.857  0.00  0.00    +0.133 A 
ATOM     22  C   UNL     1      -2.418 -10.855  13.612  0.00  0.00    +0.083 A 
BRANCH  22  23
ATOM     23  C   UNL     1      -1.938 -10.263  12.356  0.00  0.00    +0.059 C 
BRANCH  23  24
ATOM     24  C   UNL     1      -2.946 -10.395  11.193  0.00  0.00    +0.006 C 
BRANCH  24  25
ATOM     25  C   UNL     1      -2.951  -9.167  10.283  0.00  0.00    -0.003 C 
ATOM     26  C   UNL     1      -4.109  -9.206   9.300  0.00  0.00    +0.004 C 
ENDBRANCH  24  25
ENDBRANCH  23  24
ENDBRANCH  22  23
ENDBRANCH  15   5
ENDBRANCH  10  15
TORSDOF 6
ENDMDL
MODEL 6
REMARK VINA RESULT:      -5.9     26.935     28.987
REMARK  Name = 11941977
REMARK  7 active torsions:
REMARK  status: ('A' for Active; 'I' for Inactive)
REMARK    1  A    between atoms: N_5  and  C_15
REMARK    2  A    between atoms: C_9  and  C_16
REMARK    3  A    between atoms: C_10  and  C_15
REMARK    4  A    between atoms: C_22  and  C_23
REMARK    5  A    between atoms: C_23  and  C_24
REMARK    6  A    between atoms: C_24  and  C_25
REMARK    7  A    between atoms: C_25  and  C_26
REMARK                            x       y       z     vdW  Elec       q    Type
REMARK                         _______ _______ _______ _____ _____    ______ ____
ROOT
ATOM      3  N   UNL     1     -16.226   5.524  33.950  0.00  0.00    -0.297 NA
ATOM      8  C   UNL     1     -15.373   5.365  31.496  0.00  0.00    +0.005 C 
ATOM      9  C   UNL     1     -15.748   3.976  32.048  0.00  0.00    +0.092 C 
ATOM     10  C   UNL     1     -14.913   6.211  33.823  0.00  0.00    +0.078 C 
ATOM     11  C   UNL     1     -14.312   6.001  32.416  0.00  0.00    +0.025 C 
ATOM     12  C   UNL     1     -16.640   6.235  31.587  0.00  0.00    +0.020 C 
ATOM     13  C   UNL     1     -16.104   4.103  33.539  0.00  0.00    +0.097 C 
ATOM     14  C   UNL     1     -17.180   6.191  33.029  0.00  0.00    +0.085 C 
ENDROOT
BRANCH   9  16
ATOM      1  O   UNL     1     -13.713   2.910  32.634  0.00  0.00    -0.275 OA
ATOM      2  O   UNL     1     -15.232   0.088  28.867  0.00  0.00    -0.377 OA
ATOM      4  N   UNL     1     -14.737   2.189  30.679  0.00  0.00    -0.297 N 
ATOM     16  C   UNL     1     -14.638   2.981  31.820  0.00  0.00    +0.220 C 
ATOM     17  C   UNL     1     -15.750   2.333  29.629  0.00  0.00    +0.136 C 
ATOM     18  C   UNL     1     -13.704   1.194  30.386  0.00  0.00    +0.136 C 
ATOM     20  C   UNL     1     -16.299   0.968  29.234  0.00  0.00    +0.179 C 
ATOM     21  C   UNL     1     -14.341  -0.123  29.965  0.00  0.00    +0.179 C 
ENDBRANCH   9  16
BRANCH  10  15
ATOM     15  C   UNL     1     -13.933   5.804  34.926  0.00  0.00    +0.164 C 
BRANCH  15   5
ATOM      5  N   UNL     1     -13.107   6.920  35.354  0.00  0.00    -0.250 N 
ATOM      6  N   UNL     1     -12.580   6.934  36.582  0.00  0.00    -0.065 NA
ATOM      7  N   UNL     1     -11.888   8.064  36.689  0.00  0.00    -0.135 NA
ATOM     19  C   UNL     1     -12.779   8.020  34.636  0.00  0.00    +0.133 A 
ATOM     22  C   UNL     1     -12.000   8.739  35.506  0.00  0.00    +0.083 A 
BRANCH  22  23
ATOM     23  C   UNL     1     -11.342  10.037  35.304  0.00  0.00    +0.059 C 
BRANCH  23  24
ATOM     24  C   UNL     1      -9.861   9.913  34.884  0.00  0.00    +0.006 C 
BRANCH  24  25
ATOM     25  C   UNL     1      -9.683   9.926  33.366  0.00  0.00    -0.003 C 
ATOM     26  C   UNL     1     -10.803  10.691  32.679  0.00  0.00    +0.004 C 
ENDBRANCH  24  25
ENDBRANCH  23  24
ENDBRANCH  22  23
ENDBRANCH  15   5
ENDBRANCH  10  15
TORSDOF 6
ENDMDL
MODEL 7
REMARK VINA RESULT:      -5.8     26.810     29.109
REMARK  Name = 11941977
REMARK  7 active torsions:
REMARK  status: ('A' for Active; 'I' for Inactive)
REMARK    1  A    between atoms: N_5  and  C_15
REMARK    2  A    between atoms: C_9  and  C_16
REMARK    3  A    between atoms: C_10  and  C_15
REMARK    4  A    between atoms: C_22  and  C_23
REMARK    5  A    between atoms: C_23  and  C_24
REMARK    6  A    between atoms: C_24  and  C_25
REMARK    7  A    between atoms: C_25  and  C_26
REMARK                            x       y       z     vdW  Elec       q    Type
REMARK                         _______ _______ _______ _____ _____    ______ ____
ROOT
ATOM      3  N   UNL     1      -4.828 -12.844  17.668  0.00  0.00    -0.297 NA
ATOM      8  C   UNL     1      -6.026 -10.694  18.513  0.00  0.00    +0.005 C 
ATOM      9  C   UNL     1      -7.020 -11.860  18.353  0.00  0.00    +0.092 C 
ATOM     10  C   UNL     1      -4.504 -11.699  16.776  0.00  0.00    +0.078 C 
ATOM     11  C   UNL     1      -5.321 -10.447  17.164  0.00  0.00    +0.025 C 
ATOM     12  C   UNL     1      -4.953 -11.159  19.513  0.00  0.00    +0.020 C 
ATOM     13  C   UNL     1      -6.297 -13.059  17.716  0.00  0.00    +0.097 C 
ATOM     14  C   UNL     1      -4.367 -12.501  19.036  0.00  0.00    +0.085 C 
ENDROOT
BRANCH   9  16
ATOM      1  O   UNL     1      -8.150 -11.406  16.319  0.00  0.00    -0.275 OA
ATOM      2  O   UNL     1     -11.878 -11.197  19.563  0.00  0.00    -0.377 OA
ATOM      4  N   UNL     1      -9.374 -11.123  18.272  0.00  0.00    -0.297 N 
ATOM     16  C   UNL     1      -8.226 -11.443  17.550  0.00  0.00    +0.220 C 
ATOM     17  C   UNL     1      -9.463 -11.034  19.733  0.00  0.00    +0.136 C 
ATOM     18  C   UNL     1     -10.590 -10.713  17.569  0.00  0.00    +0.136 C 
ATOM     20  C   UNL     1     -10.727 -11.725  20.228  0.00  0.00    +0.179 C 
ATOM     21  C   UNL     1     -11.804 -11.423  18.152  0.00  0.00    +0.179 C 
ENDBRANCH   9  16
BRANCH  10  15
ATOM     15  C   UNL     1      -4.668 -12.048  15.295  0.00  0.00    +0.164 C 
BRANCH  15   5
ATOM      5  N   UNL     1      -3.683 -11.372  14.468  0.00  0.00    -0.250 N 
ATOM      6  N   UNL     1      -2.569 -10.878  15.017  0.00  0.00    -0.065 NA
ATOM      7  N   UNL     1      -1.872 -10.321  14.032  0.00  0.00    -0.135 NA
ATOM     19  C   UNL     1      -3.744 -11.158  13.133  0.00  0.00    +0.133 A 
ATOM     22  C   UNL     1      -2.577 -10.484  12.873  0.00  0.00    +0.083 A 
BRANCH  22  23
ATOM     23  C   UNL     1      -2.068  -9.974  11.593  0.00  0.00    +0.059 C 
BRANCH  23  24
ATOM     24  C   UNL     1      -3.047 -10.183  10.418  0.00  0.00    +0.006 C 
BRANCH  24  25
ATOM     25  C   UNL     1      -3.647  -8.869   9.918  0.00  0.00    -0.003 C 
ATOM     26  C   UNL     1      -5.136  -8.789  10.209  0.00  0.00    +0.004 C 
ENDBRANCH  24  25
ENDBRANCH  23  24
ENDBRANCH  22  23
ENDBRANCH  15   5
ENDBRANCH  10  15
TORSDOF 6
ENDMDL
MODEL 8
REMARK VINA RESULT:      -5.7     26.621     29.133
REMARK  Name = 11941977
REMARK  7 active torsions:
REMARK  status: ('A' for Active; 'I' for Inactive)
REMARK    1  A    between atoms: N_5  and  C_15
REMARK    2  A    between atoms: C_9  and  C_16
REMARK    3  A    between atoms: C_10  and  C_15
REMARK    4  A    between atoms: C_22  and  C_23
REMARK    5  A    between atoms: C_23  and  C_24
REMARK    6  A    between atoms: C_24  and  C_25
REMARK    7  A    between atoms: C_25  and  C_26
REMARK                            x       y       z     vdW  Elec       q    Type
REMARK                         _______ _______ _______ _____ _____    ______ ____
ROOT
ATOM      3  N   UNL     1      -6.076 -12.040  16.935  0.00  0.00    -0.297 NA
ATOM      8  C   UNL     1      -7.512 -11.166  18.922  0.00  0.00    +0.005 C 
ATOM      9  C   UNL     1      -8.305 -11.129  17.602  0.00  0.00    +0.092 C 
ATOM     10  C   UNL     1      -5.336 -10.979  17.668  0.00  0.00    +0.078 C 
ATOM     11  C   UNL     1      -6.223 -10.336  18.757  0.00  0.00    +0.025 C 
ATOM     12  C   UNL     1      -7.089 -12.630  19.145  0.00  0.00    +0.020 C 
ATOM     13  C   UNL     1      -7.374 -11.514  16.440  0.00  0.00    +0.097 C 
ATOM     14  C   UNL     1      -6.359 -13.140  17.889  0.00  0.00    +0.085 C 
ENDROOT
BRANCH   9  16
ATOM      1  O   UNL     1      -8.259  -8.853  16.941  0.00  0.00    -0.275 OA
ATOM      2  O   UNL     1     -13.107  -9.567  17.611  0.00  0.00    -0.377 OA
ATOM      4  N   UNL     1     -10.293  -9.670  17.708  0.00  0.00    -0.297 N 
ATOM     16  C   UNL     1      -8.942  -9.780  17.385  0.00  0.00    +0.220 C 
ATOM     17  C   UNL     1     -11.100 -10.710  18.354  0.00  0.00    +0.136 C 
ATOM     18  C   UNL     1     -10.989  -8.396  17.523  0.00  0.00    +0.136 C 
ATOM     20  C   UNL     1     -12.451 -10.836  17.661  0.00  0.00    +0.179 C 
ATOM     21  C   UNL     1     -12.340  -8.621  16.860  0.00  0.00    +0.179 C 
ENDBRANCH   9  16
BRANCH  10  15
ATOM     15  C   UNL     1      -4.740  -9.928  16.728  0.00  0.00    +0.164 C 
BRANCH  15   5
ATOM      5  N   UNL     1      -3.735 -10.499  15.847  0.00  0.00    -0.250 N 
ATOM      6  N   UNL     1      -2.557 -10.895  16.339  0.00  0.00    -0.065 NA
ATOM      7  N   UNL     1      -1.851 -11.362  15.315  0.00  0.00    -0.135 NA
ATOM     19  C   UNL     1      -3.831 -10.692  14.512  0.00  0.00    +0.133 A 
ATOM     22  C   UNL     1      -2.617 -11.245  14.189  0.00  0.00    +0.083 A 
BRANCH  22  23
ATOM     23  C   UNL     1      -2.117 -11.678  12.878  0.00  0.00    +0.059 C 
BRANCH  23  24
ATOM     24  C   UNL     1      -1.793 -10.505  11.928  0.00  0.00    +0.006 C 
BRANCH  24  25
ATOM     25  C   UNL     1      -2.969 -10.149  11.018  0.00  0.00    -0.003 C 
ATOM     26  C   UNL     1      -3.588 -11.390  10.397  0.00  0.00    +0.004 C 
ENDBRANCH  24  25
ENDBRANCH  23  24
ENDBRANCH  22  23
ENDBRANCH  15   5
ENDBRANCH  10  15
TORSDOF 6
ENDMDL
MODEL 9
REMARK VINA RESULT:      -5.6     12.665     15.801
REMARK  Name = 11941977
REMARK  7 active torsions:
REMARK  status: ('A' for Active; 'I' for Inactive)
REMARK    1  A    between atoms: N_5  and  C_15
REMARK    2  A    between atoms: C_9  and  C_16
REMARK    3  A    between atoms: C_10  and  C_15
REMARK    4  A    between atoms: C_22  and  C_23
REMARK    5  A    between atoms: C_23  and  C_24
REMARK    6  A    between atoms: C_24  and  C_25
REMARK    7  A    between atoms: C_25  and  C_26
REMARK                            x       y       z     vdW  Elec       q    Type
REMARK                         _______ _______ _______ _____ _____    ______ ____
ROOT
ATOM      3  N   UNL     1      10.823   7.078   6.658  0.00  0.00    -0.297 NA
ATOM      8  C   UNL     1       9.308   5.271   5.556  0.00  0.00    +0.005 C 
ATOM      9  C   UNL     1      10.563   5.542   4.704  0.00  0.00    +0.092 C 
ATOM     10  C   UNL     1       9.429   7.584   6.545  0.00  0.00    +0.078 C 
ATOM     11  C   UNL     1       8.543   6.595   5.758  0.00  0.00    +0.025 C 
ATOM     12  C   UNL     1       9.802   4.812   6.940  0.00  0.00    +0.020 C 
ATOM     13  C   UNL     1      11.348   6.714   5.317  0.00  0.00    +0.097 C 
ATOM     14  C   UNL     1      10.796   5.851   7.491  0.00  0.00    +0.085 C 
ENDROOT
BRANCH   9  16
ATOM      1  O   UNL     1       9.527   6.801   2.983  0.00  0.00    -0.275 OA
ATOM      2  O   UNL     1      12.145   3.534   0.350  0.00  0.00    -0.377 OA
ATOM      4  N   UNL     1      10.659   4.883   2.328  0.00  0.00    -0.297 N 
ATOM     16  C   UNL     1      10.199   5.805   3.265  0.00  0.00    +0.220 C 
ATOM     17  C   UNL     1      11.348   3.626   2.639  0.00  0.00    +0.136 C 
ATOM     18  C   UNL     1      10.355   5.065   0.909  0.00  0.00    +0.136 C 
ATOM     20  C   UNL     1      12.548   3.439   1.719  0.00  0.00    +0.179 C 
ATOM     21  C   UNL     1      11.597   4.824   0.064  0.00  0.00    +0.179 C 
ENDBRANCH   9  16
BRANCH  10  15
ATOM     15  C   UNL     1       9.368   8.995   5.956  0.00  0.00    +0.164 C 
BRANCH  15   5
ATOM      5  N   UNL     1       9.381  10.015   6.991  0.00  0.00    -0.250 N 
ATOM      6  N   UNL     1       9.060  11.278   6.694  0.00  0.00    -0.065 NA
ATOM      7  N   UNL     1       9.165  11.974   7.821  0.00  0.00    -0.135 NA
ATOM     19  C   UNL     1       9.698   9.852   8.296  0.00  0.00    +0.133 A 
ATOM     22  C   UNL     1       9.554  11.116   8.812  0.00  0.00    +0.083 A 
BRANCH  22  23
ATOM     23  C   UNL     1       9.759  11.584  10.189  0.00  0.00    +0.059 C 
BRANCH  23  24
ATOM     24  C   UNL     1       8.443  11.923  10.922  0.00  0.00    +0.006 C 
BRANCH  24  25
ATOM     25  C   UNL     1       8.059  13.396  10.779  0.00  0.00    -0.003 C 
ATOM     26  C   UNL     1       6.617  13.555  10.327  0.00  0.00    +0.004 C 
ENDBRANCH  24  25
ENDBRANCH  23  24
ENDBRANCH  22  23
ENDBRANCH  15   5
ENDBRANCH  10  15
TORSDOF 6
ENDMDL
MODEL 10
REMARK VINA RESULT:      -5.6     15.195     20.198
REMARK  Name = 11941977
REMARK  7 active torsions:
REMARK  status: ('A' for Active; 'I' for Inactive)
REMARK    1  A    between atoms: N_5  and  C_15
REMARK    2  A    between atoms: C_9  and  C_16
REMARK    3  A    between atoms: C_10  and  C_15
REMARK    4  A    between atoms: C_22  and  C_23
REMARK    5  A    between atoms: C_23  and  C_24
REMARK    6  A    between atoms: C_24  and  C_25
REMARK    7  A    between atoms: C_25  and  C_26
REMARK                            x       y       z     vdW  Elec       q    Type
REMARK                         _______ _______ _______ _____ _____    ______ ____
ROOT
ATOM      3  N   UNL     1      13.422   4.282   2.031  0.00  0.00    -0.297 NA
ATOM      8  C   UNL     1      13.413   4.726  -0.533  0.00  0.00    +0.005 C 
ATOM      9  C   UNL     1      14.841   4.801   0.041  0.00  0.00    +0.092 C 
ATOM     10  C   UNL     1      12.436   5.346   1.704  0.00  0.00    +0.078 C 
ATOM     11  C   UNL     1      12.519   5.737   0.212  0.00  0.00    +0.025 C 
ATOM     12  C   UNL     1      12.879   3.318  -0.213  0.00  0.00    +0.020 C 
ATOM     13  C   UNL     1      14.778   4.678   1.573  0.00  0.00    +0.097 C 
ATOM     14  C   UNL     1      13.027   3.054   1.297  0.00  0.00    +0.085 C 
ENDROOT
BRANCH   9  16
ATOM      1  O   UNL     1      15.334   7.111   0.233  0.00  0.00    -0.275 OA
ATOM      2  O   UNL     1      18.632   5.699  -3.172  0.00  0.00    -0.377 OA
ATOM      4  N   UNL     1      16.385   5.966  -1.491  0.00  0.00    -0.297 N 
ATOM     16  C   UNL     1      15.537   6.066  -0.391  0.00  0.00    +0.220 C 
ATOM     17  C   UNL     1      16.552   4.775  -2.330  0.00  0.00    +0.136 C 
ATOM     18  C   UNL     1      17.104   7.146  -1.973  0.00  0.00    +0.136 C 
ATOM     20  C   UNL     1      18.029   4.529  -2.611  0.00  0.00    +0.179 C 
ATOM     21  C   UNL     1      18.557   6.800  -2.262  0.00  0.00    +0.179 C 
ENDBRANCH   9  16
BRANCH  10  15
ATOM     15  C   UNL     1      12.569   6.566   2.618  0.00  0.00    +0.164 C 
BRANCH  15   5
ATOM      5  N   UNL     1      11.915   6.356   3.899  0.00  0.00    -0.250 N 
ATOM      6  N   UNL     1      12.375   6.964   4.996  0.00  0.00    -0.065 NA
ATOM      7  N   UNL     1      11.592   6.585   6.001  0.00  0.00    -0.135 NA
ATOM     19  C   UNL     1      10.838   5.576   4.150  0.00  0.00    +0.133 A 
ATOM     22  C   UNL     1      10.646   5.735   5.499  0.00  0.00    +0.083 A 
BRANCH  22  23
ATOM     23  C   UNL     1       9.623   5.136   6.366  0.00  0.00    +0.059 C 
BRANCH  23  24
ATOM     24  C   UNL     1       9.832   5.445   7.864  0.00  0.00    +0.006 C 
BRANCH  24  25
ATOM     25  C   UNL     1       9.638   4.211   8.746  0.00  0.00    -0.003 C 
ATOM     26  C   UNL     1       9.062   4.581  10.103  0.00  0.00    +0.004 C 
ENDBRANCH  24  25
ENDBRANCH  23  24
ENDBRANCH  22  23
ENDBRANCH  15   5
ENDBRANCH  10  15
TORSDOF 6
ENDMDL
