MODEL 1
REMARK VINA RESULT:      -8.0      0.000      0.000
REMARK  Name = 11911721
REMARK  6 active torsions:
REMARK  status: ('A' for Active; 'I' for Inactive)
REMARK    1  A    between atoms: O_4  and  C_26
REMARK    2  A    between atoms: O_4  and  C_30
REMARK    3  A    between atoms: N_5  and  C_11
REMARK    4  A    between atoms: N_6  and  C_12
REMARK    5  A    between atoms: C_16  and  C_18
REMARK    6  A    between atoms: C_17  and  C_19
REMARK                            x       y       z     vdW  Elec       q    Type
REMARK                         _______ _______ _______ _____ _____    ______ ____
ROOT
ATOM      1  O   UNL     1     -16.489   2.720  23.076  0.00  0.00    -0.370 OA
ATOM      2  O   UNL     1     -17.475   4.957  25.054  0.00  0.00    -0.370 OA
ATOM      9  C   UNL     1     -16.223   4.684  24.400  0.00  0.00    +0.175 C 
ATOM     10  C   UNL     1     -16.054   3.178  24.366  0.00  0.00    +0.171 C 
ATOM     11  C   UNL     1     -16.300   5.096  22.942  0.00  0.00    +0.166 C 
ATOM     12  C   UNL     1     -16.988   2.673  25.443  0.00  0.00    +0.130 C 
ATOM     13  C   UNL     1     -16.843   3.844  22.262  0.00  0.00    +0.190 C 
ATOM     14  C   UNL     1     -18.088   3.718  25.433  0.00  0.00    +0.185 C 
ENDROOT
BRANCH  11   5
ATOM      5  N   UNL     1     -15.017   5.577  22.424  0.00  0.00    -0.243 N 
ATOM      7  N   UNL     1     -13.949   4.768  22.404  0.00  0.00    -0.065 NA
ATOM      8  N   UNL     1     -12.943   5.466  21.890  0.00  0.00    -0.129 NA
ATOM     15  C   UNL     1     -14.735   6.808  21.930  0.00  0.00    +0.139 A 
ATOM     17  C   UNL     1     -13.407   6.717  21.594  0.00  0.00    +0.113 A 
BRANCH  17  19
ATOM     19  C   UNL     1     -12.620   7.763  21.023  0.00  0.00    +0.004 A 
ATOM     22  C   UNL     1     -12.857   9.098  21.374  0.00  0.00    +0.010 A 
ATOM     23  C   UNL     1     -11.605   7.464  20.109  0.00  0.00    +0.010 A 
ATOM     27  C   UNL     1     -12.088  10.119  20.816  0.00  0.00    +0.001 A 
ATOM     28  C   UNL     1     -10.836   8.485  19.551  0.00  0.00    +0.001 A 
ATOM     29  C   UNL     1     -11.077   9.813  19.905  0.00  0.00    +0.000 A 
ENDBRANCH  17  19
ENDBRANCH  11   5
BRANCH  12   6
ATOM      3  O   UNL     1     -17.227   0.599  27.415  0.00  0.00    -0.270 OA
ATOM      6  N   UNL     1     -16.328   2.622  26.726  0.00  0.00    -0.304 N 
ATOM     16  C   UNL     1     -16.507   1.574  27.616  0.00  0.00    +0.244 C 
ATOM     31  H   UNL     1     -15.808   3.448  27.006  0.00  0.00    +0.149 HD
BRANCH  16  18
ATOM     18  C   UNL     1     -15.777   1.684  28.905  0.00  0.00    +0.037 A 
ATOM     20  C   UNL     1     -15.109   2.857  29.194  0.00  0.00    +0.016 A 
ATOM     21  C   UNL     1     -15.790   0.611  29.772  0.00  0.00    +0.016 A 
ATOM     24  C   UNL     1     -14.425   2.960  30.405  0.00  0.00    +0.046 A 
ATOM     25  C   UNL     1     -15.104   0.715  30.982  0.00  0.00    +0.046 A 
ATOM     26  C   UNL     1     -14.422   1.890  31.300  0.00  0.00    +0.120 A 
BRANCH  26   4
ATOM      4  O   UNL     1     -13.755   1.992  32.481  0.00  0.00    -0.495 OA
ATOM     30  C   UNL     1     -14.503   1.751  33.672  0.00  0.00    +0.277 C 
ENDBRANCH  26   4
ENDBRANCH  16  18
ENDBRANCH  12   6
TORSDOF 5
ENDMDL
MODEL 2
REMARK VINA RESULT:      -7.7      1.777      2.228
REMARK  Name = 11911721
REMARK  6 active torsions:
REMARK  status: ('A' for Active; 'I' for Inactive)
REMARK    1  A    between atoms: O_4  and  C_26
REMARK    2  A    between atoms: O_4  and  C_30
REMARK    3  A    between atoms: N_5  and  C_11
REMARK    4  A    between atoms: N_6  and  C_12
REMARK    5  A    between atoms: C_16  and  C_18
REMARK    6  A    between atoms: C_17  and  C_19
REMARK                            x       y       z     vdW  Elec       q    Type
REMARK                         _______ _______ _______ _____ _____    ______ ____
ROOT
ATOM      1  O   UNL     1     -15.876   2.484  24.334  0.00  0.00    -0.370 OA
ATOM      2  O   UNL     1     -18.017   4.132  25.945  0.00  0.00    -0.370 OA
ATOM      9  C   UNL     1     -16.775   4.470  25.300  0.00  0.00    +0.175 C 
ATOM     10  C   UNL     1     -15.829   3.305  25.512  0.00  0.00    +0.171 C 
ATOM     11  C   UNL     1     -16.975   4.534  23.798  0.00  0.00    +0.166 C 
ATOM     12  C   UNL     1     -16.411   2.560  26.692  0.00  0.00    +0.130 C 
ATOM     13  C   UNL     1     -16.727   3.096  23.357  0.00  0.00    +0.190 C 
ATOM     14  C   UNL     1     -17.895   2.837  26.549  0.00  0.00    +0.185 C 
ENDROOT
BRANCH  11   5
ATOM      5  N   UNL     1     -16.117   5.536  23.159  0.00  0.00    -0.243 N 
ATOM      7  N   UNL     1     -16.125   6.806  23.586  0.00  0.00    -0.065 NA
ATOM      8  N   UNL     1     -15.262   7.475  22.829  0.00  0.00    -0.129 NA
ATOM     15  C   UNL     1     -15.260   5.350  22.125  0.00  0.00    +0.139 A 
ATOM     17  C   UNL     1     -14.723   6.598  21.930  0.00  0.00    +0.113 A 
BRANCH  17  19
ATOM     19  C   UNL     1     -13.751   6.941  20.942  0.00  0.00    +0.004 A 
ATOM     22  C   UNL     1     -14.141   7.584  19.761  0.00  0.00    +0.010 A 
ATOM     23  C   UNL     1     -12.401   6.639  21.145  0.00  0.00    +0.010 A 
ATOM     27  C   UNL     1     -13.191   7.919  18.796  0.00  0.00    +0.001 A 
ATOM     28  C   UNL     1     -11.451   6.974  20.180  0.00  0.00    +0.001 A 
ATOM     29  C   UNL     1     -11.846   7.614  19.006  0.00  0.00    +0.000 A 
ENDBRANCH  17  19
ENDBRANCH  11   5
BRANCH  12   6
ATOM      3  O   UNL     1     -15.513   1.026  28.949  0.00  0.00    -0.270 OA
ATOM      6  N   UNL     1     -15.901   3.078  27.940  0.00  0.00    -0.304 N 
ATOM     16  C   UNL     1     -15.490   2.255  28.977  0.00  0.00    +0.244 C 
ATOM     31  H   UNL     1     -15.961   4.082  28.077  0.00  0.00    +0.149 HD
BRANCH  16  18
ATOM     18  C   UNL     1     -15.015   2.943  30.205  0.00  0.00    +0.037 A 
ATOM     20  C   UNL     1     -13.740   2.682  30.663  0.00  0.00    +0.016 A 
ATOM     21  C   UNL     1     -15.862   3.822  30.846  0.00  0.00    +0.016 A 
ATOM     24  C   UNL     1     -13.293   3.328  31.816  0.00  0.00    +0.046 A 
ATOM     25  C   UNL     1     -15.416   4.468  31.999  0.00  0.00    +0.046 A 
ATOM     26  C   UNL     1     -14.131   4.222  32.484  0.00  0.00    +0.120 A 
BRANCH  26   4
ATOM      4  O   UNL     1     -13.694   4.854  33.607  0.00  0.00    -0.495 OA
ATOM     30  C   UNL     1     -14.687   5.299  34.530  0.00  0.00    +0.277 C 
ENDBRANCH  26   4
ENDBRANCH  16  18
ENDBRANCH  12   6
TORSDOF 5
ENDMDL
MODEL 3
REMARK VINA RESULT:      -7.5     29.260     32.470
REMARK  Name = 11911721
REMARK  6 active torsions:
REMARK  status: ('A' for Active; 'I' for Inactive)
REMARK    1  A    between atoms: O_4  and  C_26
REMARK    2  A    between atoms: O_4  and  C_30
REMARK    3  A    between atoms: N_5  and  C_11
REMARK    4  A    between atoms: N_6  and  C_12
REMARK    5  A    between atoms: C_16  and  C_18
REMARK    6  A    between atoms: C_17  and  C_19
REMARK                            x       y       z     vdW  Elec       q    Type
REMARK                         _______ _______ _______ _____ _____    ______ ____
ROOT
ATOM      1  O   UNL     1      13.167   7.336  17.336  0.00  0.00    -0.370 OA
ATOM      2  O   UNL     1      13.523   9.400  19.682  0.00  0.00    -0.370 OA
ATOM      9  C   UNL     1      14.095   9.274  18.367  0.00  0.00    +0.175 C 
ATOM     10  C   UNL     1      14.291   7.795  18.104  0.00  0.00    +0.171 C 
ATOM     11  C   UNL     1      13.091   9.722  17.322  0.00  0.00    +0.166 C 
ATOM     12  C   UNL     1      14.277   7.165  19.479  0.00  0.00    +0.130 C 
ATOM     13  C   UNL     1      12.313   8.444  17.025  0.00  0.00    +0.190 C 
ATOM     14  C   UNL     1      13.360   8.094  20.251  0.00  0.00    +0.185 C 
ENDROOT
BRANCH  11   5
ATOM      5  N   UNL     1      13.728  10.345  16.159  0.00  0.00    -0.243 N 
ATOM      7  N   UNL     1      13.045  10.509  15.019  0.00  0.00    -0.065 NA
ATOM      8  N   UNL     1      13.868  11.090  14.153  0.00  0.00    -0.129 NA
ATOM     15  C   UNL     1      14.999  10.809  16.065  0.00  0.00    +0.139 A 
ATOM     17  C   UNL     1      15.068  11.281  14.778  0.00  0.00    +0.113 A 
BRANCH  17  19
ATOM     19  C   UNL     1      16.213  11.882  14.172  0.00  0.00    +0.004 A 
ATOM     22  C   UNL     1      16.223  12.160  12.800  0.00  0.00    +0.010 A 
ATOM     23  C   UNL     1      17.336  12.197  14.944  0.00  0.00    +0.010 A 
ATOM     27  C   UNL     1      17.342  12.747  12.209  0.00  0.00    +0.001 A 
ATOM     28  C   UNL     1      18.456  12.784  14.352  0.00  0.00    +0.001 A 
ATOM     29  C   UNL     1      18.458  13.059  12.985  0.00  0.00    +0.000 A 
ENDBRANCH  17  19
ENDBRANCH  11   5
BRANCH  12   6
ATOM      3  O   UNL     1      16.518   5.617  18.566  0.00  0.00    -0.270 OA
ATOM      6  N   UNL     1      15.601   7.140  20.055  0.00  0.00    -0.304 N 
ATOM     16  C   UNL     1      16.623   6.357  19.542  0.00  0.00    +0.244 C 
ATOM     31  H   UNL     1      15.728   7.638  20.930  0.00  0.00    +0.149 HD
BRANCH  16  18
ATOM     18  C   UNL     1      17.919   6.424  20.265  0.00  0.00    +0.037 A 
ATOM     20  C   UNL     1      18.889   5.483  19.982  0.00  0.00    +0.016 A 
ATOM     21  C   UNL     1      18.114   7.425  21.193  0.00  0.00    +0.016 A 
ATOM     24  C   UNL     1      20.106   5.546  20.660  0.00  0.00    +0.046 A 
ATOM     25  C   UNL     1      19.331   7.487  21.872  0.00  0.00    +0.046 A 
ATOM     26  C   UNL     1      20.328   6.548  21.605  0.00  0.00    +0.120 A 
BRANCH  26   4
ATOM      4  O   UNL     1      21.516   6.610  22.265  0.00  0.00    -0.495 OA
ATOM     30  C   UNL     1      21.986   5.407  22.871  0.00  0.00    +0.277 C 
ENDBRANCH  26   4
ENDBRANCH  16  18
ENDBRANCH  12   6
TORSDOF 5
ENDMDL
MODEL 4
REMARK VINA RESULT:      -7.3     18.211     19.716
REMARK  Name = 11911721
REMARK  6 active torsions:
REMARK  status: ('A' for Active; 'I' for Inactive)
REMARK    1  A    between atoms: O_4  and  C_26
REMARK    2  A    between atoms: O_4  and  C_30
REMARK    3  A    between atoms: N_5  and  C_11
REMARK    4  A    between atoms: N_6  and  C_12
REMARK    5  A    between atoms: C_16  and  C_18
REMARK    6  A    between atoms: C_17  and  C_19
REMARK                            x       y       z     vdW  Elec       q    Type
REMARK                         _______ _______ _______ _____ _____    ______ ____
ROOT
ATOM      1  O   UNL     1      -5.166 -10.756  19.390  0.00  0.00    -0.370 OA
ATOM      2  O   UNL     1      -7.011 -12.909  18.029  0.00  0.00    -0.370 OA
ATOM      9  C   UNL     1      -6.211 -11.821  17.531  0.00  0.00    +0.175 C 
ATOM     10  C   UNL     1      -6.318 -10.690  18.534  0.00  0.00    +0.171 C 
ATOM     11  C   UNL     1      -4.745 -12.210  17.544  0.00  0.00    +0.166 C 
ATOM     12  C   UNL     1      -7.571 -11.004  19.320  0.00  0.00    +0.130 C 
ATOM     13  C   UNL     1      -4.295 -11.803  18.942  0.00  0.00    +0.190 C 
ATOM     14  C   UNL     1      -7.612 -12.520  19.272  0.00  0.00    +0.185 C 
ENDROOT
BRANCH  11   5
ATOM      5  N   UNL     1      -3.991 -11.599  16.446  0.00  0.00    -0.243 N 
ATOM      7  N   UNL     1      -2.770 -11.092  16.663  0.00  0.00    -0.065 NA
ATOM      8  N   UNL     1      -2.337 -10.612  15.503  0.00  0.00    -0.129 NA
ATOM     15  C   UNL     1      -4.379 -11.462  15.154  0.00  0.00    +0.139 A 
ATOM     17  C   UNL     1      -3.310 -10.830  14.568  0.00  0.00    +0.113 A 
BRANCH  17  19
ATOM     19  C   UNL     1      -3.217 -10.453  13.195  0.00  0.00    +0.004 A 
ATOM     22  C   UNL     1      -4.377 -10.275  12.431  0.00  0.00    +0.010 A 
ATOM     23  C   UNL     1      -1.967 -10.257  12.599  0.00  0.00    +0.010 A 
ATOM     27  C   UNL     1      -4.285  -9.906  11.088  0.00  0.00    +0.001 A 
ATOM     28  C   UNL     1      -1.875  -9.889  11.257  0.00  0.00    +0.001 A 
ATOM     29  C   UNL     1      -3.034  -9.713  10.502  0.00  0.00    +0.000 A 
ENDBRANCH  17  19
ENDBRANCH  11   5
BRANCH  12   6
ATOM      3  O   UNL     1     -10.164 -10.663  20.507  0.00  0.00    -0.270 OA
ATOM      6  N   UNL     1      -8.738 -10.431  18.693  0.00  0.00    -0.304 N 
ATOM     16  C   UNL     1      -9.953 -10.307  19.350  0.00  0.00    +0.244 C 
ATOM     31  H   UNL     1      -8.669 -10.221  17.702  0.00  0.00    +0.149 HD
BRANCH  16  18
ATOM     18  C   UNL     1     -11.064  -9.720  18.557  0.00  0.00    +0.037 A 
ATOM     20  C   UNL     1     -12.360 -10.092  18.851  0.00  0.00    +0.016 A 
ATOM     21  C   UNL     1     -10.766  -8.820  17.555  0.00  0.00    +0.016 A 
ATOM     24  C   UNL     1     -13.404  -9.540  18.108  0.00  0.00    +0.046 A 
ATOM     25  C   UNL     1     -11.809  -8.269  16.812  0.00  0.00    +0.046 A 
ATOM     26  C   UNL     1     -13.129  -8.628  17.088  0.00  0.00    +0.120 A 
BRANCH  26   4
ATOM      4  O   UNL     1     -14.147  -8.088  16.365  0.00  0.00    -0.495 OA
ATOM     30  C   UNL     1     -13.881  -6.866  15.680  0.00  0.00    +0.277 C 
ENDBRANCH  26   4
ENDBRANCH  16  18
ENDBRANCH  12   6
TORSDOF 5
ENDMDL
MODEL 5
REMARK VINA RESULT:      -7.3     19.846     22.763
REMARK  Name = 11911721
REMARK  6 active torsions:
REMARK  status: ('A' for Active; 'I' for Inactive)
REMARK    1  A    between atoms: O_4  and  C_26
REMARK    2  A    between atoms: O_4  and  C_30
REMARK    3  A    between atoms: N_5  and  C_11
REMARK    4  A    between atoms: N_6  and  C_12
REMARK    5  A    between atoms: C_16  and  C_18
REMARK    6  A    between atoms: C_17  and  C_19
REMARK                            x       y       z     vdW  Elec       q    Type
REMARK                         _______ _______ _______ _____ _____    ______ ____
ROOT
ATOM      1  O   UNL     1      -4.700 -11.794  10.415  0.00  0.00    -0.370 OA
ATOM      2  O   UNL     1      -3.789  -8.847   9.803  0.00  0.00    -0.370 OA
ATOM      9  C   UNL     1      -4.251  -9.524  10.986  0.00  0.00    +0.175 C 
ATOM     10  C   UNL     1      -5.321 -10.506  10.551  0.00  0.00    +0.171 C 
ATOM     11  C   UNL     1      -3.142 -10.389  11.553  0.00  0.00    +0.166 C 
ATOM     12  C   UNL     1      -5.770  -9.997   9.200  0.00  0.00    +0.130 C 
ATOM     13  C   UNL     1      -3.326 -11.710  10.816  0.00  0.00    +0.190 C 
ATOM     14  C   UNL     1      -4.509  -9.343   8.666  0.00  0.00    +0.185 C 
ENDROOT
BRANCH  11   5
ATOM      5  N   UNL     1      -3.192 -10.481  13.015  0.00  0.00    -0.243 N 
ATOM      7  N   UNL     1      -2.062 -10.588  13.726  0.00  0.00    -0.065 NA
ATOM      8  N   UNL     1      -2.413 -10.654  15.005  0.00  0.00    -0.129 NA
ATOM     15  C   UNL     1      -4.295 -10.476  13.805  0.00  0.00    +0.139 A 
ATOM     17  C   UNL     1      -3.777 -10.586  15.071  0.00  0.00    +0.113 A 
BRANCH  17  19
ATOM     19  C   UNL     1      -4.535 -10.626  16.280  0.00  0.00    +0.004 A 
ATOM     22  C   UNL     1      -5.805 -10.038  16.337  0.00  0.00    +0.010 A 
ATOM     23  C   UNL     1      -4.018 -11.253  17.418  0.00  0.00    +0.010 A 
ATOM     27  C   UNL     1      -6.546 -10.078  17.519  0.00  0.00    +0.001 A 
ATOM     28  C   UNL     1      -4.759 -11.293  18.599  0.00  0.00    +0.001 A 
ATOM     29  C   UNL     1      -6.023 -10.705  18.649  0.00  0.00    +0.000 A 
ENDBRANCH  17  19
ENDBRANCH  11   5
BRANCH  12   6
ATOM      3  O   UNL     1      -7.358  -8.893   7.077  0.00  0.00    -0.270 OA
ATOM      6  N   UNL     1      -6.840  -9.037   9.332  0.00  0.00    -0.304 N 
ATOM     16  C   UNL     1      -7.553  -8.560   8.243  0.00  0.00    +0.244 C 
ATOM     31  H   UNL     1      -6.980  -8.632  10.252  0.00  0.00    +0.149 HD
BRANCH  16  18
ATOM     18  C   UNL     1      -8.607  -7.557   8.544  0.00  0.00    +0.037 A 
ATOM     20  C   UNL     1      -8.393  -6.240   8.190  0.00  0.00    +0.016 A 
ATOM     21  C   UNL     1      -9.765  -7.973   9.166  0.00  0.00    +0.016 A 
ATOM     24  C   UNL     1      -9.382  -5.298   8.472  0.00  0.00    +0.046 A 
ATOM     25  C   UNL     1     -10.754  -7.030   9.449  0.00  0.00    +0.046 A 
ATOM     26  C   UNL     1     -10.563  -5.692   9.101  0.00  0.00    +0.120 A 
BRANCH  26   4
ATOM      4  O   UNL     1     -11.528  -4.774   9.374  0.00  0.00    -0.495 OA
ATOM     30  C   UNL     1     -11.191  -3.401   9.184  0.00  0.00    +0.277 C 
ENDBRANCH  26   4
ENDBRANCH  16  18
ENDBRANCH  12   6
TORSDOF 5
ENDMDL
MODEL 6
REMARK VINA RESULT:      -7.2      1.623      2.208
REMARK  Name = 11911721
REMARK  6 active torsions:
REMARK  status: ('A' for Active; 'I' for Inactive)
REMARK    1  A    between atoms: O_4  and  C_26
REMARK    2  A    between atoms: O_4  and  C_30
REMARK    3  A    between atoms: N_5  and  C_11
REMARK    4  A    between atoms: N_6  and  C_12
REMARK    5  A    between atoms: C_16  and  C_18
REMARK    6  A    between atoms: C_17  and  C_19
REMARK                            x       y       z     vdW  Elec       q    Type
REMARK                         _______ _______ _______ _____ _____    ______ ____
ROOT
ATOM      1  O   UNL     1     -15.848   2.629  24.087  0.00  0.00    -0.370 OA
ATOM      2  O   UNL     1     -17.891   4.573  25.479  0.00  0.00    -0.370 OA
ATOM      9  C   UNL     1     -16.602   4.752  24.867  0.00  0.00    +0.175 C 
ATOM     10  C   UNL     1     -15.772   3.529  25.204  0.00  0.00    +0.171 C 
ATOM     11  C   UNL     1     -16.737   4.720  23.356  0.00  0.00    +0.166 C 
ATOM     12  C   UNL     1     -16.463   2.929  26.408  0.00  0.00    +0.130 C 
ATOM     13  C   UNL     1     -16.603   3.237  23.031  0.00  0.00    +0.190 C 
ATOM     14  C   UNL     1     -17.910   3.322  26.179  0.00  0.00    +0.185 C 
ENDROOT
BRANCH  11   5
ATOM      5  N   UNL     1     -15.770   5.592  22.686  0.00  0.00    -0.243 N 
ATOM      7  N   UNL     1     -15.147   5.184  21.572  0.00  0.00    -0.065 NA
ATOM      8  N   UNL     1     -14.340   6.168  21.195  0.00  0.00    -0.129 NA
ATOM     15  C   UNL     1     -15.386   6.839  23.057  0.00  0.00    +0.139 A 
ATOM     17  C   UNL     1     -14.474   7.190  22.093  0.00  0.00    +0.113 A 
BRANCH  17  19
ATOM     19  C   UNL     1     -13.767   8.428  22.028  0.00  0.00    +0.004 A 
ATOM     22  C   UNL     1     -12.832   8.655  21.011  0.00  0.00    +0.010 A 
ATOM     23  C   UNL     1     -14.001   9.426  22.980  0.00  0.00    +0.010 A 
ATOM     27  C   UNL     1     -12.141   9.866  20.948  0.00  0.00    +0.001 A 
ATOM     28  C   UNL     1     -13.310  10.636  22.917  0.00  0.00    +0.001 A 
ATOM     29  C   UNL     1     -12.380  10.856  21.900  0.00  0.00    +0.000 A 
ENDBRANCH  17  19
ENDBRANCH  11   5
BRANCH  12   6
ATOM      3  O   UNL     1     -15.704   1.488  28.773  0.00  0.00    -0.270 OA
ATOM      6  N   UNL     1     -15.957   3.493  27.636  0.00  0.00    -0.304 N 
ATOM     16  C   UNL     1     -15.615   2.713  28.730  0.00  0.00    +0.244 C 
ATOM     31  H   UNL     1     -15.965   4.505  27.713  0.00  0.00    +0.149 HD
BRANCH  16  18
ATOM     18  C   UNL     1     -15.134   3.447  29.928  0.00  0.00    +0.037 A 
ATOM     20  C   UNL     1     -15.783   4.606  30.304  0.00  0.00    +0.016 A 
ATOM     21  C   UNL     1     -14.055   2.948  30.628  0.00  0.00    +0.016 A 
ATOM     24  C   UNL     1     -15.332   5.296  31.429  0.00  0.00    +0.046 A 
ATOM     25  C   UNL     1     -13.604   3.639  31.753  0.00  0.00    +0.046 A 
ATOM     26  C   UNL     1     -14.242   4.813  32.154  0.00  0.00    +0.120 A 
BRANCH  26   4
ATOM      4  O   UNL     1     -13.804   5.485  33.253  0.00  0.00    -0.495 OA
ATOM     30  C   UNL     1     -14.188   4.969  34.526  0.00  0.00    +0.277 C 
ENDBRANCH  26   4
ENDBRANCH  16  18
ENDBRANCH  12   6
TORSDOF 5
ENDMDL
MODEL 7
REMARK VINA RESULT:      -7.2     19.494     22.142
REMARK  Name = 11911721
REMARK  6 active torsions:
REMARK  status: ('A' for Active; 'I' for Inactive)
REMARK    1  A    between atoms: O_4  and  C_26
REMARK    2  A    between atoms: O_4  and  C_30
REMARK    3  A    between atoms: N_5  and  C_11
REMARK    4  A    between atoms: N_6  and  C_12
REMARK    5  A    between atoms: C_16  and  C_18
REMARK    6  A    between atoms: C_17  and  C_19
REMARK                            x       y       z     vdW  Elec       q    Type
REMARK                         _______ _______ _______ _____ _____    ______ ____
ROOT
ATOM      1  O   UNL     1      -4.542 -12.997  17.285  0.00  0.00    -0.370 OA
ATOM      2  O   UNL     1      -3.528 -10.071  16.742  0.00  0.00    -0.370 OA
ATOM      9  C   UNL     1      -4.831 -10.670  16.858  0.00  0.00    +0.175 C 
ATOM     10  C   UNL     1      -4.748 -12.046  16.228  0.00  0.00    +0.171 C 
ATOM     11  C   UNL     1      -5.151 -10.933  18.317  0.00  0.00    +0.166 C 
ATOM     12  C   UNL     1      -3.526 -11.978  15.340  0.00  0.00    +0.130 C 
ATOM     13  C   UNL     1      -4.572 -12.324  18.550  0.00  0.00    +0.190 C 
ATOM     14  C   UNL     1      -2.647 -10.984  16.075  0.00  0.00    +0.185 C 
ENDROOT
BRANCH  11   5
ATOM      5  N   UNL     1      -6.580 -10.798  18.613  0.00  0.00    -0.243 N 
ATOM      7  N   UNL     1      -7.084 -11.285  19.755  0.00  0.00    -0.065 NA
ATOM      8  N   UNL     1      -8.386 -11.021  19.748  0.00  0.00    -0.129 NA
ATOM     15  C   UNL     1      -7.530 -10.211  17.844  0.00  0.00    +0.139 A 
ATOM     17  C   UNL     1      -8.675 -10.363  18.585  0.00  0.00    +0.113 A 
BRANCH  17  19
ATOM     19  C   UNL     1      -9.976  -9.910  18.210  0.00  0.00    +0.004 A 
ATOM     22  C   UNL     1     -10.180  -9.299  16.967  0.00  0.00    +0.010 A 
ATOM     23  C   UNL     1     -11.059 -10.071  19.081  0.00  0.00    +0.010 A 
ATOM     27  C   UNL     1     -11.451  -8.856  16.600  0.00  0.00    +0.001 A 
ATOM     28  C   UNL     1     -12.330  -9.628  18.714  0.00  0.00    +0.001 A 
ATOM     29  C   UNL     1     -12.526  -9.021  17.474  0.00  0.00    +0.000 A 
ENDBRANCH  17  19
ENDBRANCH  11   5
BRANCH  12   6
ATOM      3  O   UNL     1      -1.896 -12.149  12.982  0.00  0.00    -0.270 OA
ATOM      6  N   UNL     1      -3.865 -11.500  14.021  0.00  0.00    -0.304 N 
ATOM     16  C   UNL     1      -3.008 -11.628  12.938  0.00  0.00    +0.244 C 
ATOM     31  H   UNL     1      -4.719 -10.958  13.936  0.00  0.00    +0.149 HD
BRANCH  16  18
ATOM     18  C   UNL     1      -3.494 -11.061  11.654  0.00  0.00    +0.037 A 
ATOM     20  C   UNL     1      -2.899  -9.917  11.164  0.00  0.00    +0.016 A 
ATOM     21  C   UNL     1      -4.523 -11.698  10.991  0.00  0.00    +0.016 A 
ATOM     24  C   UNL     1      -3.354  -9.385   9.957  0.00  0.00    +0.046 A 
ATOM     25  C   UNL     1      -4.979 -11.165   9.785  0.00  0.00    +0.046 A 
ATOM     26  C   UNL     1      -4.394 -10.009   9.267  0.00  0.00    +0.120 A 
BRANCH  26   4
ATOM      4  O   UNL     1      -4.837  -9.491   8.090  0.00  0.00    -0.495 OA
ATOM     30  C   UNL     1      -6.223  -9.650   7.790  0.00  0.00    +0.277 C 
ENDBRANCH  26   4
ENDBRANCH  16  18
ENDBRANCH  12   6
TORSDOF 5
ENDMDL
MODEL 8
REMARK VINA RESULT:      -6.8     30.577     35.669
REMARK  Name = 11911721
REMARK  6 active torsions:
REMARK  status: ('A' for Active; 'I' for Inactive)
REMARK    1  A    between atoms: O_4  and  C_26
REMARK    2  A    between atoms: O_4  and  C_30
REMARK    3  A    between atoms: N_5  and  C_11
REMARK    4  A    between atoms: N_6  and  C_12
REMARK    5  A    between atoms: C_16  and  C_18
REMARK    6  A    between atoms: C_17  and  C_19
REMARK                            x       y       z     vdW  Elec       q    Type
REMARK                         _______ _______ _______ _____ _____    ______ ____
ROOT
ATOM      1  O   UNL     1      13.360   5.660  -0.703  0.00  0.00    -0.370 OA
ATOM      2  O   UNL     1      13.191   2.849   0.696  0.00  0.00    -0.370 OA
ATOM      9  C   UNL     1      12.232   3.695   0.036  0.00  0.00    +0.175 C 
ATOM     10  C   UNL     1      12.585   5.127   0.383  0.00  0.00    +0.171 C 
ATOM     11  C   UNL     1      12.413   3.606  -1.467  0.00  0.00    +0.166 C 
ATOM     12  C   UNL     1      13.437   5.012   1.626  0.00  0.00    +0.130 C 
ATOM     13  C   UNL     1      13.451   4.686  -1.751  0.00  0.00    +0.190 C 
ATOM     14  C   UNL     1      14.109   3.666   1.435  0.00  0.00    +0.185 C 
ENDROOT
BRANCH  11   5
ATOM      5  N   UNL     1      11.151   3.752  -2.196  0.00  0.00    -0.243 N 
ATOM      7  N   UNL     1      10.492   2.670  -2.633  0.00  0.00    -0.065 NA
ATOM      8  N   UNL     1       9.399   3.103  -3.250  0.00  0.00    -0.129 NA
ATOM     15  C   UNL     1      10.510   4.903  -2.515  0.00  0.00    +0.139 A 
ATOM     17  C   UNL     1       9.394   4.469  -3.187  0.00  0.00    +0.113 A 
BRANCH  17  19
ATOM     19  C   UNL     1       8.378   5.305  -3.740  0.00  0.00    +0.004 A 
ATOM     22  C   UNL     1       7.733   6.256  -2.941  0.00  0.00    +0.010 A 
ATOM     23  C   UNL     1       8.017   5.181  -5.086  0.00  0.00    +0.010 A 
ATOM     27  C   UNL     1       6.740   7.073  -3.483  0.00  0.00    +0.001 A 
ATOM     28  C   UNL     1       7.024   5.998  -5.627  0.00  0.00    +0.001 A 
ATOM     29  C   UNL     1       6.386   6.944  -4.826  0.00  0.00    +0.000 A 
ENDBRANCH  17  19
ENDBRANCH  11   5
BRANCH  12   6
ATOM      3  O   UNL     1      12.532   7.329   3.062  0.00  0.00    -0.270 OA
ATOM      6  N   UNL     1      12.624   5.025   2.819  0.00  0.00    -0.304 N 
ATOM     16  C   UNL     1      12.235   6.200   3.445  0.00  0.00    +0.244 C 
ATOM     31  H   UNL     1      12.438   4.128   3.256  0.00  0.00    +0.149 HD
BRANCH  16  18
ATOM     18  C   UNL     1      11.422   6.042   4.678  0.00  0.00    +0.037 A 
ATOM     20  C   UNL     1      10.299   5.241   4.636  0.00  0.00    +0.016 A 
ATOM     21  C   UNL     1      11.816   6.699   5.825  0.00  0.00    +0.016 A 
ATOM     24  C   UNL     1       9.535   5.091   5.794  0.00  0.00    +0.046 A 
ATOM     25  C   UNL     1      11.051   6.550   6.982  0.00  0.00    +0.046 A 
ATOM     26  C   UNL     1       9.911   5.746   6.968  0.00  0.00    +0.120 A 
BRANCH  26   4
ATOM      4  O   UNL     1       9.167   5.599   8.097  0.00  0.00    -0.495 OA
ATOM     30  C   UNL     1       9.556   4.566   9.001  0.00  0.00    +0.277 C 
ENDBRANCH  26   4
ENDBRANCH  16  18
ENDBRANCH  12   6
TORSDOF 5
ENDMDL
MODEL 9
REMARK VINA RESULT:      -6.7     31.496     36.528
REMARK  Name = 11911721
REMARK  6 active torsions:
REMARK  status: ('A' for Active; 'I' for Inactive)
REMARK    1  A    between atoms: O_4  and  C_26
REMARK    2  A    between atoms: O_4  and  C_30
REMARK    3  A    between atoms: N_5  and  C_11
REMARK    4  A    between atoms: N_6  and  C_12
REMARK    5  A    between atoms: C_16  and  C_18
REMARK    6  A    between atoms: C_17  and  C_19
REMARK                            x       y       z     vdW  Elec       q    Type
REMARK                         _______ _______ _______ _____ _____    ______ ____
ROOT
ATOM      1  O   UNL     1      14.968   5.676   1.029  0.00  0.00    -0.370 OA
ATOM      2  O   UNL     1      13.449   8.343   1.716  0.00  0.00    -0.370 OA
ATOM      9  C   UNL     1      14.618   7.695   2.249  0.00  0.00    +0.175 C 
ATOM     10  C   UNL     1      14.356   6.202   2.218  0.00  0.00    +0.171 C 
ATOM     11  C   UNL     1      15.793   7.899   1.312  0.00  0.00    +0.166 C 
ATOM     12  C   UNL     1      12.851   6.088   2.125  0.00  0.00    +0.130 C 
ATOM     13  C   UNL     1      15.671   6.723   0.349  0.00  0.00    +0.190 C 
ATOM     14  C   UNL     1      12.478   7.347   1.366  0.00  0.00    +0.185 C 
ENDROOT
BRANCH  11   5
ATOM      5  N   UNL     1      17.071   7.988   2.023  0.00  0.00    -0.243 N 
ATOM      7  N   UNL     1      18.226   7.977   1.345  0.00  0.00    -0.065 NA
ATOM      8  N   UNL     1      19.203   8.069   2.240  0.00  0.00    -0.129 NA
ATOM     15  C   UNL     1      17.265   8.086   3.362  0.00  0.00    +0.139 A 
ATOM     17  C   UNL     1      18.632   8.137   3.480  0.00  0.00    +0.113 A 
BRANCH  17  19
ATOM     19  C   UNL     1      19.358   8.244   4.705  0.00  0.00    +0.004 A 
ATOM     22  C   UNL     1      20.613   7.638   4.838  0.00  0.00    +0.010 A 
ATOM     23  C   UNL     1      18.822   8.955   5.784  0.00  0.00    +0.010 A 
ATOM     27  C   UNL     1      21.322   7.742   6.035  0.00  0.00    +0.001 A 
ATOM     28  C   UNL     1      19.531   9.059   6.981  0.00  0.00    +0.001 A 
ATOM     29  C   UNL     1      20.781   8.453   7.106  0.00  0.00    +0.000 A 
ENDBRANCH  17  19
ENDBRANCH  11   5
BRANCH  12   6
ATOM      3  O   UNL     1      10.486   4.657   2.905  0.00  0.00    -0.270 OA
ATOM      6  N   UNL     1      12.246   6.070   3.436  0.00  0.00    -0.304 N 
ATOM     16  C   UNL     1      11.098   5.346   3.718  0.00  0.00    +0.244 C 
ATOM     31  H   UNL     1      12.632   6.706   4.126  0.00  0.00    +0.149 HD
BRANCH  16  18
ATOM     18  C   UNL     1      10.587   5.453   5.109  0.00  0.00    +0.037 A 
ATOM     20  C   UNL     1      10.762   6.639   5.793  0.00  0.00    +0.016 A 
ATOM     21  C   UNL     1       9.953   4.365   5.672  0.00  0.00    +0.016 A 
ATOM     24  C   UNL     1      10.281   6.740   7.098  0.00  0.00    +0.046 A 
ATOM     25  C   UNL     1       9.473   4.466   6.978  0.00  0.00    +0.046 A 
ATOM     26  C   UNL     1       9.637   5.654   7.691  0.00  0.00    +0.120 A 
BRANCH  26   4
ATOM      4  O   UNL     1       9.167   5.753   8.964  0.00  0.00    -0.495 OA
ATOM     30  C   UNL     1       9.338   4.618   9.811  0.00  0.00    +0.277 C 
ENDBRANCH  26   4
ENDBRANCH  16  18
ENDBRANCH  12   6
TORSDOF 5
ENDMDL
MODEL 10
REMARK VINA RESULT:      -6.7     17.591     19.439
REMARK  Name = 11911721
REMARK  6 active torsions:
REMARK  status: ('A' for Active; 'I' for Inactive)
REMARK    1  A    between atoms: O_4  and  C_26
REMARK    2  A    between atoms: O_4  and  C_30
REMARK    3  A    between atoms: N_5  and  C_11
REMARK    4  A    between atoms: N_6  and  C_12
REMARK    5  A    between atoms: C_16  and  C_18
REMARK    6  A    between atoms: C_17  and  C_19
REMARK                            x       y       z     vdW  Elec       q    Type
REMARK                         _______ _______ _______ _____ _____    ______ ____
ROOT
ATOM      1  O   UNL     1      -6.765 -10.310  18.956  0.00  0.00    -0.370 OA
ATOM      2  O   UNL     1      -8.708 -11.973  17.127  0.00  0.00    -0.370 OA
ATOM      9  C   UNL     1      -7.567 -11.135  16.868  0.00  0.00    +0.175 C 
ATOM     10  C   UNL     1      -7.625  -9.984  17.853  0.00  0.00    +0.171 C 
ATOM     11  C   UNL     1      -6.291 -11.877  17.219  0.00  0.00    +0.166 C 
ATOM     12  C   UNL     1      -9.067  -9.951  18.306  0.00  0.00    +0.130 C 
ATOM     13  C   UNL     1      -6.102 -11.553  18.696  0.00  0.00    +0.190 C 
ATOM     14  C   UNL     1      -9.472 -11.410  18.201  0.00  0.00    +0.185 C 
ENDROOT
BRANCH  11   5
ATOM      5  N   UNL     1      -5.169 -11.506  16.353  0.00  0.00    -0.243 N 
ATOM      7  N   UNL     1      -3.926 -11.435  16.848  0.00  0.00    -0.065 NA
ATOM      8  N   UNL     1      -3.129 -11.080  15.847  0.00  0.00    -0.129 NA
ATOM     15  C   UNL     1      -5.210 -11.203  15.032  0.00  0.00    +0.139 A 
ATOM     17  C   UNL     1      -3.899 -10.935  14.728  0.00  0.00    +0.113 A 
BRANCH  17  19
ATOM     19  C   UNL     1      -3.403 -10.559  13.442  0.00  0.00    +0.004 A 
ATOM     22  C   UNL     1      -2.036 -10.324  13.254  0.00  0.00    +0.010 A 
ATOM     23  C   UNL     1      -4.278 -10.422  12.360  0.00  0.00    +0.010 A 
ATOM     27  C   UNL     1      -1.552  -9.958  11.998  0.00  0.00    +0.001 A 
ATOM     28  C   UNL     1      -3.794 -10.055  11.104  0.00  0.00    +0.001 A 
ATOM     29  C   UNL     1      -2.431  -9.823  10.923  0.00  0.00    +0.000 A 
ENDBRANCH  17  19
ENDBRANCH  11   5
BRANCH  12   6
ATOM      3  O   UNL     1     -11.837  -9.278  18.654  0.00  0.00    -0.270 OA
ATOM      6  N   UNL     1      -9.869  -9.124  17.437  0.00  0.00    -0.304 N 
ATOM     16  C   UNL     1     -11.206  -8.853  17.689  0.00  0.00    +0.244 C 
ATOM     31  H   UNL     1      -9.446  -8.833  16.562  0.00  0.00    +0.149 HD
BRANCH  16  18
ATOM     18  C   UNL     1     -11.899  -8.006  16.685  0.00  0.00    +0.037 A 
ATOM     20  C   UNL     1     -11.381  -6.760  16.394  0.00  0.00    +0.016 A 
ATOM     21  C   UNL     1     -13.036  -8.491  16.073  0.00  0.00    +0.016 A 
ATOM     24  C   UNL     1     -12.030  -5.964  15.451  0.00  0.00    +0.046 A 
ATOM     25  C   UNL     1     -13.686  -7.694  15.131  0.00  0.00    +0.046 A 
ATOM     26  C   UNL     1     -13.183  -6.430  14.819  0.00  0.00    +0.120 A 
BRANCH  26   4
ATOM      4  O   UNL     1     -13.816  -5.654  13.897  0.00  0.00    -0.495 OA
ATOM     30  C   UNL     1     -15.242  -5.681  13.895  0.00  0.00    +0.277 C 
ENDBRANCH  26   4
ENDBRANCH  16  18
ENDBRANCH  12   6
TORSDOF 5
ENDMDL
