MODEL 1
REMARK VINA RESULT:      -7.2      0.000      0.000
REMARK  Name = 11941493
REMARK  3 active torsions:
REMARK  status: ('A' for Active; 'I' for Inactive)
REMARK    1  A    between atoms: N_6  and  C_9
REMARK    2  A    between atoms: N_7  and  C_13
REMARK    3  A    between atoms: C_26  and  C_28
REMARK                            x       y       z     vdW  Elec       q    Type
REMARK                         _______ _______ _______ _____ _____    ______ ____
ROOT
ATOM      2  O   UNL     1     -13.533   6.362  34.207  0.00  0.00    -0.273 OA
ATOM      3  O   UNL     1     -17.654   6.114  30.934  0.00  0.00    -0.270 OA
ATOM      5  N   UNL     1     -15.786   7.043  31.900  0.00  0.00    -0.284 N 
ATOM      8  N   UNL     1     -14.104   4.761  32.690  0.00  0.00    -0.283 N 
ATOM      9  C   UNL     1     -14.099   8.569  32.549  0.00  0.00    +0.105 C 
ATOM     10  C   UNL     1     -14.348   7.131  32.072  0.00  0.00    +0.183 C 
ATOM     11  C   UNL     1     -15.413   8.946  33.239  0.00  0.00    +0.043 C 
ATOM     12  C   UNL     1     -16.465   8.223  32.412  0.00  0.00    +0.111 C 
ATOM     16  C   UNL     1     -13.993   6.073  33.100  0.00  0.00    +0.240 C 
ATOM     20  C   UNL     1     -16.452   6.064  31.193  0.00  0.00    +0.249 C 
ATOM     22  C   UNL     1     -15.681   4.876  30.744  0.00  0.00    +0.059 A 
ATOM     23  C   UNL     1     -14.671   4.256  31.499  0.00  0.00    +0.046 A 
ATOM     24  C   UNL     1     -16.132   4.265  29.560  0.00  0.00    +0.024 A 
ATOM     25  C   UNL     1     -14.185   3.005  31.083  0.00  0.00    +0.024 A 
ATOM     26  C   UNL     1     -15.605   3.045  29.139  0.00  0.00    -0.010 A 
ATOM     27  C   UNL     1     -14.639   2.408  29.907  0.00  0.00    +0.011 A 
ATOM     34  H   UNL     1     -13.646   4.077  33.288  0.00  0.00    +0.155 HD
ENDROOT
BRANCH   9   6
ATOM      4  O   UNL     1     -11.543   9.045  31.324  0.00  0.00    -0.253 OA
ATOM      6  N   UNL     1     -13.826   9.444  31.432  0.00  0.00    -0.294 N 
ATOM      7  N   UNL     1     -12.562  10.507  29.835  0.00  0.00    -0.297 N 
ATOM     21  C   UNL     1     -12.550   9.613  30.902  0.00  0.00    +0.300 C 
ATOM     32  H   UNL     1     -14.582  10.012  31.061  0.00  0.00    +0.151 HD
ATOM     33  H   UNL     1     -13.436  10.975  29.616  0.00  0.00    +0.151 HD
BRANCH   7  13
ATOM     13  C   UNL     1     -11.375  10.871  29.094  0.00  0.00    +0.074 C 
ATOM     14  C   UNL     1     -11.110   9.880  27.956  0.00  0.00    +0.022 C 
ATOM     15  C   UNL     1     -11.471  12.308  28.569  0.00  0.00    +0.022 C 
ATOM     17  C   UNL     1     -12.114  10.022  26.812  0.00  0.00    +0.002 C 
ATOM     18  C   UNL     1     -12.475  12.445  27.423  0.00  0.00    +0.002 C 
ATOM     19  C   UNL     1     -12.184  11.456  26.299  0.00  0.00    +0.000 C 
ENDBRANCH   7  13
ENDBRANCH   9   6
BRANCH  26  28
ATOM      1  S   UNL     1     -16.228   3.400  26.513  0.00  0.00    -0.097 S 
ATOM     28  C   UNL     1     -16.077   2.436  27.920  0.00  0.00    +0.019 A 
ATOM     29  C   UNL     1     -16.448   1.127  27.690  0.00  0.00    +0.016 A 
ATOM     30  C   UNL     1     -16.861   0.916  26.343  0.00  0.00    +0.008 A 
ATOM     31  C   UNL     1     -16.790   2.070  25.593  0.00  0.00    +0.046 A 
ENDBRANCH  26  28
TORSDOF 3
ENDMDL
MODEL 2
REMARK VINA RESULT:      -7.0     20.503     22.597
REMARK  Name = 11941493
REMARK  3 active torsions:
REMARK  status: ('A' for Active; 'I' for Inactive)
REMARK    1  A    between atoms: N_6  and  C_9
REMARK    2  A    between atoms: N_7  and  C_13
REMARK    3  A    between atoms: C_26  and  C_28
REMARK                            x       y       z     vdW  Elec       q    Type
REMARK                         _______ _______ _______ _____ _____    ______ ____
ROOT
ATOM      2  O   UNL     1     -11.174  -9.356  18.667  0.00  0.00    -0.273 OA
ATOM      3  O   UNL     1      -8.837 -11.508  14.463  0.00  0.00    -0.270 OA
ATOM      5  N   UNL     1     -10.113  -9.976  15.609  0.00  0.00    -0.284 N 
ATOM      8  N   UNL     1      -8.990  -9.907  18.328  0.00  0.00    -0.283 N 
ATOM      9  C   UNL     1     -11.597  -8.208  16.128  0.00  0.00    +0.105 C 
ATOM     10  C   UNL     1     -10.248  -8.839  16.502  0.00  0.00    +0.183 C 
ATOM     11  C   UNL     1     -12.394  -9.384  15.559  0.00  0.00    +0.043 C 
ATOM     12  C   UNL     1     -11.335 -10.221  14.858  0.00  0.00    +0.111 C 
ATOM     16  C   UNL     1     -10.207  -9.415  17.905  0.00  0.00    +0.240 C 
ATOM     20  C   UNL     1      -8.944 -10.657  15.347  0.00  0.00    +0.249 C 
ATOM     22  C   UNL     1      -7.757 -10.365  16.193  0.00  0.00    +0.059 A 
ATOM     23  C   UNL     1      -7.814 -10.112  17.575  0.00  0.00    +0.046 A 
ATOM     24  C   UNL     1      -6.507 -10.525  15.570  0.00  0.00    +0.024 A 
ATOM     25  C   UNL     1      -6.615 -10.092  18.309  0.00  0.00    +0.024 A 
ATOM     26  C   UNL     1      -5.326 -10.455  16.308  0.00  0.00    -0.010 A 
ATOM     27  C   UNL     1      -5.380 -10.251  17.681  0.00  0.00    +0.011 A 
ATOM     34  H   UNL     1      -8.909 -10.067  19.330  0.00  0.00    +0.155 HD
ENDROOT
BRANCH   9   6
ATOM      4  O   UNL     1     -13.495  -6.162  15.438  0.00  0.00    -0.253 OA
ATOM      6  N   UNL     1     -11.425  -7.167  15.142  0.00  0.00    -0.294 N 
ATOM      7  N   UNL     1     -11.985  -5.329  13.882  0.00  0.00    -0.297 N 
ATOM     21  C   UNL     1     -12.403  -6.214  14.873  0.00  0.00    +0.300 C 
ATOM     32  H   UNL     1     -10.584  -7.170  14.571  0.00  0.00    +0.151 HD
ATOM     33  H   UNL     1     -11.094  -5.506  13.431  0.00  0.00    +0.151 HD
BRANCH   7  13
ATOM     13  C   UNL     1     -12.801  -4.236  13.403  0.00  0.00    +0.074 C 
ATOM     14  C   UNL     1     -12.072  -3.439  12.316  0.00  0.00    +0.022 C 
ATOM     15  C   UNL     1     -14.161  -4.739  12.906  0.00  0.00    +0.022 C 
ATOM     17  C   UNL     1     -11.968  -4.207  10.999  0.00  0.00    +0.002 C 
ATOM     18  C   UNL     1     -14.053  -5.505  11.587  0.00  0.00    +0.002 C 
ATOM     19  C   UNL     1     -13.334  -4.688  10.518  0.00  0.00    +0.000 C 
ENDBRANCH   7  13
ENDBRANCH   9   6
BRANCH  26  28
ATOM      1  S   UNL     1      -4.010 -10.766  13.946  0.00  0.00    -0.097 S 
ATOM     28  C   UNL     1      -4.052 -10.617  15.652  0.00  0.00    +0.019 A 
ATOM     29  C   UNL     1      -2.790 -10.676  16.205  0.00  0.00    +0.016 A 
ATOM     30  C   UNL     1      -1.778 -10.845  15.216  0.00  0.00    +0.008 A 
ATOM     31  C   UNL     1      -2.304 -10.909  13.944  0.00  0.00    +0.046 A 
ENDBRANCH  26  28
TORSDOF 3
ENDMDL
MODEL 3
REMARK VINA RESULT:      -6.9     23.256     27.123
REMARK  Name = 11941493
REMARK  3 active torsions:
REMARK  status: ('A' for Active; 'I' for Inactive)
REMARK    1  A    between atoms: N_6  and  C_9
REMARK    2  A    between atoms: N_7  and  C_13
REMARK    3  A    between atoms: C_26  and  C_28
REMARK                            x       y       z     vdW  Elec       q    Type
REMARK                         _______ _______ _______ _____ _____    ______ ____
ROOT
ATOM      2  O   UNL     1      -1.148 -12.387  13.500  0.00  0.00    -0.273 OA
ATOM      3  O   UNL     1      -5.458 -13.491  10.678  0.00  0.00    -0.270 OA
ATOM      5  N   UNL     1      -4.221 -13.148  12.586  0.00  0.00    -0.284 N 
ATOM      8  N   UNL     1      -2.146 -11.205  11.828  0.00  0.00    -0.283 N 
ATOM      9  C   UNL     1      -3.525 -13.079  14.845  0.00  0.00    +0.105 C 
ATOM     10  C   UNL     1      -3.556 -12.277  13.537  0.00  0.00    +0.183 C 
ATOM     11  C   UNL     1      -3.553 -14.534  14.371  0.00  0.00    +0.043 C 
ATOM     12  C   UNL     1      -4.427 -14.483  13.128  0.00  0.00    +0.111 C 
ATOM     16  C   UNL     1      -2.183 -12.004  12.951  0.00  0.00    +0.240 C 
ATOM     20  C   UNL     1      -4.761 -12.758  11.379  0.00  0.00    +0.249 C 
ATOM     22  C   UNL     1      -4.464 -11.386  10.889  0.00  0.00    +0.059 A 
ATOM     23  C   UNL     1      -3.223 -10.744  11.039  0.00  0.00    +0.046 A 
ATOM     24  C   UNL     1      -5.456 -10.794  10.087  0.00  0.00    +0.024 A 
ATOM     25  C   UNL     1      -2.984  -9.556  10.327  0.00  0.00    +0.024 A 
ATOM     26  C   UNL     1      -5.217  -9.590   9.425  0.00  0.00    -0.010 A 
ATOM     27  C   UNL     1      -3.976  -8.977   9.534  0.00  0.00    +0.011 A 
ATOM     34  H   UNL     1      -1.229 -10.836  11.586  0.00  0.00    +0.155 HD
ENDROOT
BRANCH   9   6
ATOM      4  O   UNL     1      -3.682 -11.096  16.921  0.00  0.00    -0.253 OA
ATOM      6  N   UNL     1      -4.676 -12.775  15.664  0.00  0.00    -0.294 N 
ATOM      7  N   UNL     1      -5.894 -11.702  17.291  0.00  0.00    -0.297 N 
ATOM     21  C   UNL     1      -4.660 -11.792  16.651  0.00  0.00    +0.300 C 
ATOM     32  H   UNL     1      -5.510 -13.346  15.565  0.00  0.00    +0.151 HD
ATOM     33  H   UNL     1      -6.610 -12.375  17.040  0.00  0.00    +0.151 HD
BRANCH   7  13
ATOM     13  C   UNL     1      -6.164 -10.765  18.359  0.00  0.00    +0.074 C 
ATOM     14  C   UNL     1      -7.408  -9.925  18.053  0.00  0.00    +0.022 C 
ATOM     15  C   UNL     1      -6.296 -11.486  19.705  0.00  0.00    +0.022 C 
ATOM     17  C   UNL     1      -8.701 -10.734  18.162  0.00  0.00    +0.002 C 
ATOM     18  C   UNL     1      -7.591 -12.292  19.811  0.00  0.00    +0.002 C 
ATOM     19  C   UNL     1      -8.816 -11.432  19.513  0.00  0.00    +0.000 C 
ENDBRANCH   7  13
ENDBRANCH   9   6
BRANCH  26  28
ATOM      1  S   UNL     1      -6.513  -9.607   7.032  0.00  0.00    -0.097 S 
ATOM     28  C   UNL     1      -6.247  -8.996   8.610  0.00  0.00    +0.019 A 
ATOM     29  C   UNL     1      -7.103  -7.957   8.911  0.00  0.00    +0.016 A 
ATOM     30  C   UNL     1      -7.986  -7.660   7.833  0.00  0.00    +0.008 A 
ATOM     31  C   UNL     1      -7.773  -8.483   6.748  0.00  0.00    +0.046 A 
ENDBRANCH  26  28
TORSDOF 3
ENDMDL
MODEL 4
REMARK VINA RESULT:      -6.9     20.175     23.623
REMARK  Name = 11941493
REMARK  3 active torsions:
REMARK  status: ('A' for Active; 'I' for Inactive)
REMARK    1  A    between atoms: N_6  and  C_9
REMARK    2  A    between atoms: N_7  and  C_13
REMARK    3  A    between atoms: C_26  and  C_28
REMARK                            x       y       z     vdW  Elec       q    Type
REMARK                         _______ _______ _______ _____ _____    ______ ____
ROOT
ATOM      2  O   UNL     1      -6.250 -11.324  20.655  0.00  0.00    -0.273 OA
ATOM      3  O   UNL     1      -6.974 -13.331  15.838  0.00  0.00    -0.270 OA
ATOM      5  N   UNL     1      -7.499 -12.095  17.705  0.00  0.00    -0.284 N 
ATOM      8  N   UNL     1      -4.915 -11.226  18.812  0.00  0.00    -0.283 N 
ATOM      9  C   UNL     1      -8.671 -10.809  19.307  0.00  0.00    +0.105 C 
ATOM     10  C   UNL     1      -7.343 -10.922  18.544  0.00  0.00    +0.183 C 
ATOM     11  C   UNL     1      -9.180 -12.252  19.349  0.00  0.00    +0.043 C 
ATOM     12  C   UNL     1      -8.716 -12.828  18.021  0.00  0.00    +0.111 C 
ATOM     16  C   UNL     1      -6.147 -11.210  19.432  0.00  0.00    +0.240 C 
ATOM     20  C   UNL     1      -6.711 -12.418  16.620  0.00  0.00    +0.249 C 
ATOM     22  C   UNL     1      -5.466 -11.636  16.401  0.00  0.00    +0.059 A 
ATOM     23  C   UNL     1      -4.625 -11.183  17.431  0.00  0.00    +0.046 A 
ATOM     24  C   UNL     1      -5.053 -11.507  15.063  0.00  0.00    +0.024 A 
ATOM     25  C   UNL     1      -3.359 -10.672  17.096  0.00  0.00    +0.024 A 
ATOM     26  C   UNL     1      -3.812 -10.953  14.748  0.00  0.00    -0.010 A 
ATOM     27  C   UNL     1      -2.959 -10.547  15.766  0.00  0.00    +0.011 A 
ATOM     34  H   UNL     1      -4.113 -11.181  19.436  0.00  0.00    +0.155 HD
ENDROOT
BRANCH   9   6
ATOM      4  O   UNL     1      -8.019  -8.842  17.314  0.00  0.00    -0.253 OA
ATOM      6  N   UNL     1      -9.596  -9.949  18.608  0.00  0.00    -0.294 N 
ATOM      7  N   UNL     1     -10.276  -8.322  17.133  0.00  0.00    -0.297 N 
ATOM     21  C   UNL     1      -9.188  -9.020  17.653  0.00  0.00    +0.300 C 
ATOM     32  H   UNL     1     -10.577  -9.971  18.870  0.00  0.00    +0.151 HD
ATOM     33  H   UNL     1     -11.190  -8.497  17.536  0.00  0.00    +0.151 HD
BRANCH   7  13
ATOM     13  C   UNL     1     -10.146  -7.295  16.123  0.00  0.00    +0.074 C 
ATOM     14  C   UNL     1     -10.259  -7.891  14.716  0.00  0.00    +0.022 C 
ATOM     15  C   UNL     1     -11.172  -6.177  16.338  0.00  0.00    +0.022 C 
ATOM     17  C   UNL     1     -11.685  -8.328  14.378  0.00  0.00    +0.002 C 
ATOM     18  C   UNL     1     -12.597  -6.618  15.998  0.00  0.00    +0.002 C 
ATOM     19  C   UNL     1     -12.686  -7.196  14.589  0.00  0.00    +0.000 C 
ENDBRANCH   7  13
ENDBRANCH   9   6
BRANCH  26  28
ATOM      1  S   UNL     1      -4.479 -11.338  12.138  0.00  0.00    -0.097 S 
ATOM     28  C   UNL     1      -3.406 -10.825  13.370  0.00  0.00    +0.019 A 
ATOM     29  C   UNL     1      -2.228 -10.328  12.854  0.00  0.00    +0.016 A 
ATOM     30  C   UNL     1      -2.207 -10.370  11.430  0.00  0.00    +0.008 A 
ATOM     31  C   UNL     1      -3.370 -10.896  10.910  0.00  0.00    +0.046 A 
ENDBRANCH  26  28
TORSDOF 3
ENDMDL
MODEL 5
REMARK VINA RESULT:      -6.8     33.109     36.151
REMARK  Name = 11941493
REMARK  3 active torsions:
REMARK  status: ('A' for Active; 'I' for Inactive)
REMARK    1  A    between atoms: N_6  and  C_9
REMARK    2  A    between atoms: N_7  and  C_13
REMARK    3  A    between atoms: C_26  and  C_28
REMARK                            x       y       z     vdW  Elec       q    Type
REMARK                         _______ _______ _______ _____ _____    ______ ____
ROOT
ATOM      2  O   UNL     1      11.700   8.800   6.976  0.00  0.00    -0.273 OA
ATOM      3  O   UNL     1       9.937   4.270   4.943  0.00  0.00    -0.270 OA
ATOM      5  N   UNL     1       9.792   6.439   5.694  0.00  0.00    -0.284 N 
ATOM      8  N   UNL     1      12.435   7.621   5.170  0.00  0.00    -0.283 N 
ATOM      9  C   UNL     1       8.951   8.527   6.421  0.00  0.00    +0.105 C 
ATOM     10  C   UNL     1      10.012   7.864   5.531  0.00  0.00    +0.183 C 
ATOM     11  C   UNL     1       8.681   7.473   7.498  0.00  0.00    +0.043 C 
ATOM     12  C   UNL     1       8.828   6.159   6.748  0.00  0.00    +0.111 C 
ATOM     16  C   UNL     1      11.438   8.112   5.987  0.00  0.00    +0.240 C 
ATOM     20  C   UNL     1      10.279   5.450   4.866  0.00  0.00    +0.249 C 
ATOM     22  C   UNL     1      11.290   5.828   3.844  0.00  0.00    +0.059 A 
ATOM     23  C   UNL     1      12.316   6.765   4.054  0.00  0.00    +0.046 A 
ATOM     24  C   UNL     1      11.288   5.057   2.668  0.00  0.00    +0.024 A 
ATOM     25  C   UNL     1      13.351   6.859   3.108  0.00  0.00    +0.024 A 
ATOM     26  C   UNL     1      12.299   5.198   1.718  0.00  0.00    -0.010 A 
ATOM     27  C   UNL     1      13.339   6.090   1.944  0.00  0.00    +0.011 A 
ATOM     34  H   UNL     1      13.366   7.990   5.350  0.00  0.00    +0.155 HD
ENDROOT
BRANCH   9   6
ATOM      4  O   UNL     1       8.497  10.816   4.741  0.00  0.00    -0.253 OA
ATOM      6  N   UNL     1       7.755   8.821   5.666  0.00  0.00    -0.294 N 
ATOM      7  N   UNL     1       6.376  10.002   4.257  0.00  0.00    -0.297 N 
ATOM     21  C   UNL     1       7.624   9.960   4.875  0.00  0.00    +0.300 C 
ATOM     32  H   UNL     1       6.950   8.210   5.769  0.00  0.00    +0.151 HD
ATOM     33  H   UNL     1       5.703   9.281   4.494  0.00  0.00    +0.151 HD
BRANCH   7  13
ATOM     13  C   UNL     1       5.966  11.073   3.377  0.00  0.00    +0.074 C 
ATOM     14  C   UNL     1       6.801  11.080   2.091  0.00  0.00    +0.022 C 
ATOM     15  C   UNL     1       4.468  10.989   3.066  0.00  0.00    +0.022 C 
ATOM     17  C   UNL     1       6.457   9.914   1.165  0.00  0.00    +0.002 C 
ATOM     18  C   UNL     1       4.128   9.822   2.138  0.00  0.00    +0.002 C 
ATOM     19  C   UNL     1       4.963   9.857   0.861  0.00  0.00    +0.000 C 
ENDBRANCH   7  13
ENDBRANCH   9   6
BRANCH  26  28
ATOM      1  S   UNL     1      10.977   4.588  -0.581  0.00  0.00    -0.097 S 
ATOM     28  C   UNL     1      12.278   4.401   0.516  0.00  0.00    +0.019 A 
ATOM     29  C   UNL     1      13.188   3.460   0.081  0.00  0.00    +0.016 A 
ATOM     30  C   UNL     1      12.810   2.887  -1.168  0.00  0.00    +0.008 A 
ATOM     31  C   UNL     1      11.627   3.411  -1.641  0.00  0.00    +0.046 A 
ENDBRANCH  26  28
TORSDOF 3
ENDMDL
MODEL 6
REMARK VINA RESULT:      -6.8     26.705     29.864
REMARK  Name = 11941493
REMARK  3 active torsions:
REMARK  status: ('A' for Active; 'I' for Inactive)
REMARK    1  A    between atoms: N_6  and  C_9
REMARK    2  A    between atoms: N_7  and  C_13
REMARK    3  A    between atoms: C_26  and  C_28
REMARK                            x       y       z     vdW  Elec       q    Type
REMARK                         _______ _______ _______ _____ _____    ______ ____
ROOT
ATOM      2  O   UNL     1      -0.624   9.349   4.842  0.00  0.00    -0.273 OA
ATOM      3  O   UNL     1      -5.666  10.874   4.934  0.00  0.00    -0.270 OA
ATOM      5  N   UNL     1      -3.543  10.672   4.075  0.00  0.00    -0.284 N 
ATOM      8  N   UNL     1      -2.521   8.119   5.122  0.00  0.00    -0.283 N 
ATOM      9  C   UNL     1      -1.607  10.954   2.745  0.00  0.00    +0.105 C 
ATOM     10  C   UNL     1      -2.496   9.904   3.427  0.00  0.00    +0.183 C 
ATOM     11  C   UNL     1      -1.820  12.207   3.597  0.00  0.00    +0.043 C 
ATOM     12  C   UNL     1      -3.276  12.101   4.022  0.00  0.00    +0.111 C 
ATOM     16  C   UNL     1      -1.801   9.141   4.539  0.00  0.00    +0.240 C 
ATOM     20  C   UNL     1      -4.739  10.168   4.540  0.00  0.00    +0.249 C 
ATOM     22  C   UNL     1      -4.904   8.691   4.591  0.00  0.00    +0.059 A 
ATOM     23  C   UNL     1      -3.884   7.793   4.948  0.00  0.00    +0.046 A 
ATOM     24  C   UNL     1      -6.218   8.217   4.429  0.00  0.00    +0.024 A 
ATOM     25  C   UNL     1      -4.220   6.451   5.198  0.00  0.00    +0.024 A 
ATOM     26  C   UNL     1      -6.523   6.872   4.636  0.00  0.00    -0.010 A 
ATOM     27  C   UNL     1      -5.526   5.991   5.033  0.00  0.00    +0.011 A 
ATOM     34  H   UNL     1      -1.978   7.470   5.687  0.00  0.00    +0.155 HD
ENDROOT
BRANCH   9   6
ATOM      4  O   UNL     1      -1.309   9.132   0.541  0.00  0.00    -0.253 OA
ATOM      6  N   UNL     1      -2.024  11.174   1.380  0.00  0.00    -0.294 N 
ATOM      7  N   UNL     1      -2.328  10.691  -0.847  0.00  0.00    -0.297 N 
ATOM     21  C   UNL     1      -1.838  10.230   0.373  0.00  0.00    +0.300 C 
ATOM     32  H   UNL     1      -2.406  12.081   1.126  0.00  0.00    +0.151 HD
ATOM     33  H   UNL     1      -2.679  11.642  -0.889  0.00  0.00    +0.151 HD
BRANCH   7  13
ATOM     13  C   UNL     1      -2.267   9.917  -2.066  0.00  0.00    +0.074 C 
ATOM     14  C   UNL     1      -3.414  10.290  -3.012  0.00  0.00    +0.022 C 
ATOM     15  C   UNL     1      -0.906  10.075  -2.753  0.00  0.00    +0.022 C 
ATOM     17  C   UNL     1      -3.229  11.671  -3.640  0.00  0.00    +0.002 C 
ATOM     18  C   UNL     1      -0.726  11.458  -3.381  0.00  0.00    +0.002 C 
ATOM     19  C   UNL     1      -1.873  11.801  -4.327  0.00  0.00    +0.000 C 
ENDBRANCH   7  13
ENDBRANCH   9   6
BRANCH  26  28
ATOM      1  S   UNL     1      -8.918   7.250   3.401  0.00  0.00    -0.097 S 
ATOM     28  C   UNL     1      -7.876   6.402   4.462  0.00  0.00    +0.019 A 
ATOM     29  C   UNL     1      -8.502   5.319   5.044  0.00  0.00    +0.016 A 
ATOM     30  C   UNL     1      -9.853   5.186   4.612  0.00  0.00    +0.008 A 
ATOM     31  C   UNL     1     -10.209   6.171   3.717  0.00  0.00    +0.046 A 
ENDBRANCH  26  28
TORSDOF 3
ENDMDL
MODEL 7
REMARK VINA RESULT:      -6.7      4.083      7.573
REMARK  Name = 11941493
REMARK  3 active torsions:
REMARK  status: ('A' for Active; 'I' for Inactive)
REMARK    1  A    between atoms: N_6  and  C_9
REMARK    2  A    between atoms: N_7  and  C_13
REMARK    3  A    between atoms: C_26  and  C_28
REMARK                            x       y       z     vdW  Elec       q    Type
REMARK                         _______ _______ _______ _____ _____    ______ ____
ROOT
ATOM      2  O   UNL     1     -18.633   3.252  30.193  0.00  0.00    -0.273 OA
ATOM      3  O   UNL     1     -13.532   3.335  31.512  0.00  0.00    -0.270 OA
ATOM      5  N   UNL     1     -15.340   3.346  30.090  0.00  0.00    -0.284 N 
ATOM      8  N   UNL     1     -17.506   4.645  31.600  0.00  0.00    -0.283 N 
ATOM      9  C   UNL     1     -16.690   3.245  28.151  0.00  0.00    +0.105 C 
ATOM     10  C   UNL     1     -16.465   4.013  29.461  0.00  0.00    +0.183 C 
ATOM     11  C   UNL     1     -16.147   1.847  28.460  0.00  0.00    +0.043 C 
ATOM     12  C   UNL     1     -14.977   2.123  29.391  0.00  0.00    +0.111 C 
ATOM     16  C   UNL     1     -17.613   3.896  30.446  0.00  0.00    +0.240 C 
ATOM     20  C   UNL     1     -14.574   3.857  31.116  0.00  0.00    +0.249 C 
ATOM     22  C   UNL     1     -15.047   5.092  31.796  0.00  0.00    +0.059 A 
ATOM     23  C   UNL     1     -16.395   5.374  32.076  0.00  0.00    +0.046 A 
ATOM     24  C   UNL     1     -14.043   5.923  32.323  0.00  0.00    +0.024 A 
ATOM     25  C   UNL     1     -16.699   6.445  32.934  0.00  0.00    +0.024 A 
ATOM     26  C   UNL     1     -14.366   7.010  33.134  0.00  0.00    -0.010 A 
ATOM     27  C   UNL     1     -15.695   7.264  33.450  0.00  0.00    +0.011 A 
ATOM     34  H   UNL     1     -18.367   4.749  32.133  0.00  0.00    +0.155 HD
ENDROOT
BRANCH   9   6
ATOM      4  O   UNL     1     -17.074   2.761  25.343  0.00  0.00    -0.253 OA
ATOM      6  N   UNL     1     -15.966   3.857  27.062  0.00  0.00    -0.294 N 
ATOM      7  N   UNL     1     -15.385   4.287  24.880  0.00  0.00    -0.297 N 
ATOM     21  C   UNL     1     -16.221   3.561  25.726  0.00  0.00    +0.300 C 
ATOM     32  H   UNL     1     -15.192   4.479  27.279  0.00  0.00    +0.151 HD
ATOM     33  H   UNL     1     -14.666   4.865  25.304  0.00  0.00    +0.151 HD
BRANCH   7  13
ATOM     13  C   UNL     1     -15.430   4.178  23.439  0.00  0.00    +0.074 C 
ATOM     14  C   UNL     1     -16.785   4.642  22.894  0.00  0.00    +0.022 C 
ATOM     15  C   UNL     1     -14.276   4.951  22.791  0.00  0.00    +0.022 C 
ATOM     17  C   UNL     1     -16.966   6.157  22.988  0.00  0.00    +0.002 C 
ATOM     18  C   UNL     1     -14.461   6.466  22.886  0.00  0.00    +0.002 C 
ATOM     19  C   UNL     1     -15.812   6.904  22.327  0.00  0.00    +0.000 C 
ENDBRANCH   7  13
ENDBRANCH   9   6
BRANCH  26  28
ATOM      1  S   UNL     1     -12.369   8.773  32.576  0.00  0.00    -0.097 S 
ATOM     28  C   UNL     1     -13.323   7.855  33.662  0.00  0.00    +0.019 A 
ATOM     29  C   UNL     1     -12.948   8.055  34.974  0.00  0.00    +0.016 A 
ATOM     30  C   UNL     1     -11.864   8.972  35.087  0.00  0.00    +0.008 A 
ATOM     31  C   UNL     1     -11.452   9.440  33.859  0.00  0.00    +0.046 A 
ENDBRANCH  26  28
TORSDOF 3
ENDMDL
MODEL 8
REMARK VINA RESULT:      -6.7     11.633     14.670
REMARK  Name = 11941493
REMARK  3 active torsions:
REMARK  status: ('A' for Active; 'I' for Inactive)
REMARK    1  A    between atoms: N_6  and  C_9
REMARK    2  A    between atoms: N_7  and  C_13
REMARK    3  A    between atoms: C_26  and  C_28
REMARK                            x       y       z     vdW  Elec       q    Type
REMARK                         _______ _______ _______ _____ _____    ______ ____
ROOT
ATOM      2  O   UNL     1       0.412  11.927  34.374  0.00  0.00    -0.273 OA
ATOM      3  O   UNL     1      -2.271  12.246  38.898  0.00  0.00    -0.270 OA
ATOM      5  N   UNL     1      -1.941  12.418  36.628  0.00  0.00    -0.284 N 
ATOM      8  N   UNL     1       0.043  10.346  35.972  0.00  0.00    -0.283 N 
ATOM      9  C   UNL     1      -2.215  12.945  34.339  0.00  0.00    +0.105 C 
ATOM     10  C   UNL     1      -1.808  11.828  35.309  0.00  0.00    +0.183 C 
ATOM     11  C   UNL     1      -1.895  14.225  35.115  0.00  0.00    +0.043 C 
ATOM     12  C   UNL     1      -2.201  13.848  36.556  0.00  0.00    +0.111 C 
ATOM     16  C   UNL     1      -0.353  11.413  35.192  0.00  0.00    +0.240 C 
ATOM     20  C   UNL     1      -1.994  11.723  37.818  0.00  0.00    +0.249 C 
ATOM     22  C   UNL     1      -1.675  10.272  37.797  0.00  0.00    +0.059 A 
ATOM     23  C   UNL     1      -0.674   9.693  36.999  0.00  0.00    +0.046 A 
ATOM     24  C   UNL     1      -2.323   9.489  38.770  0.00  0.00    +0.024 A 
ATOM     25  C   UNL     1      -0.300   8.360  37.242  0.00  0.00    +0.024 A 
ATOM     26  C   UNL     1      -1.970   8.154  38.964  0.00  0.00    -0.010 A 
ATOM     27  C   UNL     1      -0.949   7.592  38.209  0.00  0.00    +0.011 A 
ATOM     34  H   UNL     1       0.935   9.928  35.718  0.00  0.00    +0.155 HD
ENDROOT
BRANCH   9   6
ATOM      4  O   UNL     1      -3.419  13.329  31.756  0.00  0.00    -0.253 OA
ATOM      6  N   UNL     1      -3.622  12.866  34.021  0.00  0.00    -0.294 N 
ATOM      7  N   UNL     1      -5.503  12.933  32.702  0.00  0.00    -0.297 N 
ATOM     21  C   UNL     1      -4.117  13.067  32.735  0.00  0.00    +0.300 C 
ATOM     32  H   UNL     1      -4.286  12.725  34.777  0.00  0.00    +0.151 HD
ATOM     33  H   UNL     1      -5.988  12.789  33.582  0.00  0.00    +0.151 HD
BRANCH   7  13
ATOM     13  C   UNL     1      -6.284  13.090  31.495  0.00  0.00    +0.074 C 
ATOM     14  C   UNL     1      -7.538  12.210  31.533  0.00  0.00    +0.022 C 
ATOM     15  C   UNL     1      -6.644  14.561  31.259  0.00  0.00    +0.022 C 
ATOM     17  C   UNL     1      -8.585  12.725  32.520  0.00  0.00    +0.002 C 
ATOM     18  C   UNL     1      -7.693  15.072  32.247  0.00  0.00    +0.002 C 
ATOM     19  C   UNL     1      -8.935  14.186  32.258  0.00  0.00    +0.000 C 
ENDBRANCH   7  13
ENDBRANCH   9   6
BRANCH  26  28
ATOM      1  S   UNL     1      -2.106   5.770  40.269  0.00  0.00    -0.097 S 
ATOM     28  C   UNL     1      -2.647   7.365  39.964  0.00  0.00    +0.019 A 
ATOM     29  C   UNL     1      -3.721   7.706  40.759  0.00  0.00    +0.016 A 
ATOM     30  C   UNL     1      -4.103   6.644  41.629  0.00  0.00    +0.008 A 
ATOM     31  C   UNL     1      -3.307   5.531  41.466  0.00  0.00    +0.046 A 
ENDBRANCH  26  28
TORSDOF 3
ENDMDL
MODEL 9
REMARK VINA RESULT:      -6.6     36.071     39.369
REMARK  Name = 11941493
REMARK  3 active torsions:
REMARK  status: ('A' for Active; 'I' for Inactive)
REMARK    1  A    between atoms: N_6  and  C_9
REMARK    2  A    between atoms: N_7  and  C_13
REMARK    3  A    between atoms: C_26  and  C_28
REMARK                            x       y       z     vdW  Elec       q    Type
REMARK                         _______ _______ _______ _____ _____    ______ ____
ROOT
ATOM      2  O   UNL     1      14.583   6.516  -1.003  0.00  0.00    -0.273 OA
ATOM      3  O   UNL     1      10.602   3.168  -1.841  0.00  0.00    -0.270 OA
ATOM      5  N   UNL     1      12.121   4.364  -0.595  0.00  0.00    -0.284 N 
ATOM      8  N   UNL     1      12.631   6.817  -2.139  0.00  0.00    -0.283 N 
ATOM      9  C   UNL     1      13.453   5.156   1.192  0.00  0.00    +0.105 C 
ATOM     10  C   UNL     1      12.591   5.600   0.001  0.00  0.00    +0.183 C 
ATOM     11  C   UNL     1      13.941   3.765   0.778  0.00  0.00    +0.043 C 
ATOM     12  C   UNL     1      12.768   3.200  -0.008  0.00  0.00    +0.111 C 
ATOM     16  C   UNL     1      13.371   6.310  -1.090  0.00  0.00    +0.240 C 
ATOM     20  C   UNL     1      11.074   4.248  -1.485  0.00  0.00    +0.249 C 
ATOM     22  C   UNL     1      10.503   5.493  -2.062  0.00  0.00    +0.059 A 
ATOM     23  C   UNL     1      11.264   6.616  -2.429  0.00  0.00    +0.046 A 
ATOM     24  C   UNL     1       9.139   5.442  -2.400  0.00  0.00    +0.024 A 
ATOM     25  C   UNL     1      10.653   7.631  -3.185  0.00  0.00    +0.024 A 
ATOM     26  C   UNL     1       8.539   6.481  -3.110  0.00  0.00    -0.010 A 
ATOM     27  C   UNL     1       9.299   7.570  -3.514  0.00  0.00    +0.011 A 
ATOM     34  H   UNL     1      13.118   7.485  -2.732  0.00  0.00    +0.155 HD
ENDROOT
BRANCH   9   6
ATOM      4  O   UNL     1      12.772   7.357   2.911  0.00  0.00    -0.253 OA
ATOM      6  N   UNL     1      12.668   5.096   2.403  0.00  0.00    -0.294 N 
ATOM      7  N   UNL     1      11.615   5.886   4.286  0.00  0.00    -0.297 N 
ATOM     21  C   UNL     1      12.387   6.219   3.175  0.00  0.00    +0.300 C 
ATOM     32  H   UNL     1      12.366   4.188   2.744  0.00  0.00    +0.151 HD
ATOM     33  H   UNL     1      11.415   4.905   4.449  0.00  0.00    +0.151 HD
BRANCH   7  13
ATOM     13  C   UNL     1      11.175   6.857   5.263  0.00  0.00    +0.074 C 
ATOM     14  C   UNL     1      10.077   7.758   4.688  0.00  0.00    +0.022 C 
ATOM     15  C   UNL     1      10.713   6.172   6.553  0.00  0.00    +0.022 C 
ATOM     17  C   UNL     1       8.747   7.023   4.519  0.00  0.00    +0.002 C 
ATOM     18  C   UNL     1       9.381   5.439   6.381  0.00  0.00    +0.002 C 
ATOM     19  C   UNL     1       8.302   6.359   5.818  0.00  0.00    +0.000 C 
ENDBRANCH   7  13
ENDBRANCH   9   6
BRANCH  26  28
ATOM      1  S   UNL     1       6.668   5.640  -4.899  0.00  0.00    -0.097 S 
ATOM     28  C   UNL     1       7.138   6.413  -3.445  0.00  0.00    +0.019 A 
ATOM     29  C   UNL     1       6.052   6.895  -2.744  0.00  0.00    +0.016 A 
ATOM     30  C   UNL     1       4.822   6.627  -3.411  0.00  0.00    +0.008 A 
ATOM     31  C   UNL     1       5.012   5.950  -4.595  0.00  0.00    +0.046 A 
ENDBRANCH  26  28
TORSDOF 3
ENDMDL
MODEL 10
REMARK VINA RESULT:      -6.5     19.939     23.401
REMARK  Name = 11941493
REMARK  3 active torsions:
REMARK  status: ('A' for Active; 'I' for Inactive)
REMARK    1  A    between atoms: N_6  and  C_9
REMARK    2  A    between atoms: N_7  and  C_13
REMARK    3  A    between atoms: C_26  and  C_28
REMARK                            x       y       z     vdW  Elec       q    Type
REMARK                         _______ _______ _______ _____ _____    ______ ____
ROOT
ATOM      2  O   UNL     1     -12.656  -3.181  12.506  0.00  0.00    -0.273 OA
ATOM      3  O   UNL     1     -14.416  -8.072  13.363  0.00  0.00    -0.270 OA
ATOM      5  N   UNL     1     -13.441  -6.363  12.172  0.00  0.00    -0.284 N 
ATOM      8  N   UNL     1     -12.170  -4.638  14.188  0.00  0.00    -0.283 N 
ATOM      9  C   UNL     1     -12.523  -5.069  10.418  0.00  0.00    +0.105 C 
ATOM     10  C   UNL     1     -12.323  -5.486  11.882  0.00  0.00    +0.183 C 
ATOM     11  C   UNL     1     -14.036  -5.185  10.219  0.00  0.00    +0.043 C 
ATOM     12  C   UNL     1     -14.416  -6.371  11.091  0.00  0.00    +0.111 C 
ATOM     16  C   UNL     1     -12.437  -4.338  12.868  0.00  0.00    +0.240 C 
ATOM     20  C   UNL     1     -13.528  -7.229  13.242  0.00  0.00    +0.249 C 
ATOM     22  C   UNL     1     -12.507  -7.119  14.316  0.00  0.00    +0.059 A 
ATOM     23  C   UNL     1     -11.974  -5.904  14.781  0.00  0.00    +0.046 A 
ATOM     24  C   UNL     1     -12.205  -8.312  14.998  0.00  0.00    +0.024 A 
ATOM     25  C   UNL     1     -11.205  -5.907  15.957  0.00  0.00    +0.024 A 
ATOM     26  C   UNL     1     -11.401  -8.301  16.137  0.00  0.00    -0.010 A 
ATOM     27  C   UNL     1     -10.911  -7.096  16.625  0.00  0.00    +0.011 A 
ATOM     34  H   UNL     1     -12.016  -3.835  14.795  0.00  0.00    +0.155 HD
ENDROOT
BRANCH   9   6
ATOM      4  O   UNL     1     -10.089  -4.488   9.002  0.00  0.00    -0.253 OA
ATOM      6  N   UNL     1     -11.810  -5.954   9.527  0.00  0.00    -0.294 N 
ATOM      7  N   UNL     1     -10.151  -6.620   8.084  0.00  0.00    -0.297 N 
ATOM     21  C   UNL     1     -10.632  -5.586   8.882  0.00  0.00    +0.300 C 
ATOM     32  H   UNL     1     -12.218  -6.858   9.307  0.00  0.00    +0.151 HD
ATOM     33  H   UNL     1     -10.716  -7.459   7.999  0.00  0.00    +0.151 HD
BRANCH   7  13
ATOM     13  C   UNL     1      -8.941  -6.516   7.298  0.00  0.00    +0.074 C 
ATOM     14  C   UNL     1      -7.701  -6.775   8.159  0.00  0.00    +0.022 C 
ATOM     15  C   UNL     1      -8.986  -7.456   6.088  0.00  0.00    +0.022 C 
ATOM     17  C   UNL     1      -7.559  -8.246   8.552  0.00  0.00    +0.002 C 
ATOM     18  C   UNL     1      -8.843  -8.926   6.486  0.00  0.00    +0.002 C 
ATOM     19  C   UNL     1      -7.595  -9.161   7.333  0.00  0.00    +0.000 C 
ENDBRANCH   7  13
ENDBRANCH   9   6
BRANCH  26  28
ATOM      1  S   UNL     1     -10.626 -10.899  15.901  0.00  0.00    -0.097 S 
ATOM     28  C   UNL     1     -11.099  -9.534  16.821  0.00  0.00    +0.019 A 
ATOM     29  C   UNL     1     -11.130  -9.809  18.172  0.00  0.00    +0.016 A 
ATOM     30  C   UNL     1     -10.761 -11.156  18.454  0.00  0.00    +0.008 A 
ATOM     31  C   UNL     1     -10.462 -11.860  17.308  0.00  0.00    +0.046 A 
ENDBRANCH  26  28
TORSDOF 3
ENDMDL
