MODEL 1
REMARK VINA RESULT:      -6.2      0.000      0.000
REMARK  Name = 7050335
REMARK  11 active torsions:
REMARK  status: ('A' for Active; 'I' for Inactive)
REMARK    1  A    between atoms: S_1  and  C_30
REMARK    2  A    between atoms: S_1  and  C_34
REMARK    3  A    between atoms: O_5  and  C_23
REMARK    4  A    between atoms: O_5  and  C_31
REMARK    5  A    between atoms: O_6  and  C_24
REMARK    6  A    between atoms: O_6  and  C_32
REMARK    7  A    between atoms: O_7  and  C_26
REMARK    8  A    between atoms: O_7  and  C_33
REMARK    9  A    between atoms: N_9  and  C_18
REMARK   10  A    between atoms: N_10  and  C_12
REMARK   11  A    between atoms: C_19  and  C_22
REMARK                            x       y       z     vdW  Elec       q    Type
REMARK                         _______ _______ _______ _____ _____    ______ ____
ROOT
ATOM      2  O   UNL     1     -13.097   4.830  22.178  0.00  0.00    -0.273 OA
ATOM      3  O   UNL     1     -16.432   8.051  22.421  0.00  0.00    -0.252 OA
ATOM      8  N   UNL     1     -15.926   6.150  23.651  0.00  0.00    -0.273 N 
ATOM      9  N   UNL     1     -14.551   6.687  21.967  0.00  0.00    -0.192 N 
ATOM     11  C   UNL     1     -14.959   5.088  23.668  0.00  0.00    +0.166 C 
ATOM     12  C   UNL     1     -16.825   3.546  24.423  0.00  0.00    +0.077 C 
ATOM     13  C   UNL     1     -15.632   3.734  23.470  0.00  0.00    +0.054 C 
ATOM     14  C   UNL     1     -17.790   4.743  24.359  0.00  0.00    +0.041 C 
ATOM     15  C   UNL     1     -17.070   6.081  24.543  0.00  0.00    +0.112 C 
ATOM     16  C   UNL     1     -14.075   5.493  22.501  0.00  0.00    +0.248 C 
ATOM     17  C   UNL     1     -15.700   7.096  22.650  0.00  0.00    +0.316 C 
ENDROOT
BRANCH   9  18
ATOM     18  C   UNL     1     -13.965   7.385  20.863  0.00  0.00    +0.052 A 
ATOM     20  C   UNL     1     -14.604   7.392  19.624  0.00  0.00    +0.069 A 
ATOM     21  C   UNL     1     -12.754   8.059  21.028  0.00  0.00    +0.069 A 
ATOM     23  C   UNL     1     -12.183   8.739  19.953  0.00  0.00    +0.125 A 
ATOM     24  C   UNL     1     -14.033   8.073  18.548  0.00  0.00    +0.125 A 
ATOM     25  C   UNL     1     -12.822   8.747  18.713  0.00  0.00    +0.091 A 
BRANCH  23   5
ATOM      5  O   UNL     1     -11.003   9.397  20.113  0.00  0.00    -0.495 OA
ATOM     31  C   UNL     1     -10.394   9.934  18.939  0.00  0.00    +0.277 C 
ENDBRANCH  23   5
BRANCH  24   6
ATOM      6  O   UNL     1     -14.657   8.081  17.339  0.00  0.00    -0.495 OA
ATOM     32  C   UNL     1     -13.856   8.381  16.197  0.00  0.00    +0.277 C 
ENDBRANCH  24   6
ENDBRANCH   9  18
BRANCH  12  10
ATOM      4  O   UNL     1     -18.030   1.786  26.344  0.00  0.00    -0.270 OA
ATOM     10  N   UNL     1     -16.381   3.313  25.778  0.00  0.00    -0.308 N 
ATOM     19  C   UNL     1     -17.033   2.440  26.635  0.00  0.00    +0.248 C 
ATOM     35  H   UNL     1     -15.573   3.837  26.098  0.00  0.00    +0.149 HD
BRANCH  19  22
ATOM     22  C   UNL     1     -16.466   2.332  28.004  0.00  0.00    +0.078 A 
ATOM     26  C   UNL     1     -16.191   3.473  28.756  0.00  0.00    +0.133 A 
ATOM     27  C   UNL     1     -16.211   1.067  28.535  0.00  0.00    +0.018 A 
ATOM     28  C   UNL     1     -15.660   3.350  30.040  0.00  0.00    +0.061 A 
ATOM     29  C   UNL     1     -15.680   0.944  29.819  0.00  0.00    +0.015 A 
ATOM     30  C   UNL     1     -15.404   2.087  30.571  0.00  0.00    +0.011 A 
BRANCH  30   1
ATOM      1  S   UNL     1     -14.724   1.928  32.211  0.00  0.00    -0.128 S 
ATOM     34  C   UNL     1     -13.317   3.073  32.139  0.00  0.00    +0.090 C 
ENDBRANCH  30   1
BRANCH  26   7
ATOM      7  O   UNL     1     -16.434   4.717  28.256  0.00  0.00    -0.494 OA
ATOM     33  C   UNL     1     -17.484   5.467  28.863  0.00  0.00    +0.277 C 
ENDBRANCH  26   7
ENDBRANCH  19  22
ENDBRANCH  12  10
TORSDOF 7
ENDMDL
MODEL 2
REMARK VINA RESULT:      -6.1      1.936      2.762
REMARK  Name = 7050335
REMARK  11 active torsions:
REMARK  status: ('A' for Active; 'I' for Inactive)
REMARK    1  A    between atoms: S_1  and  C_30
REMARK    2  A    between atoms: S_1  and  C_34
REMARK    3  A    between atoms: O_5  and  C_23
REMARK    4  A    between atoms: O_5  and  C_31
REMARK    5  A    between atoms: O_6  and  C_24
REMARK    6  A    between atoms: O_6  and  C_32
REMARK    7  A    between atoms: O_7  and  C_26
REMARK    8  A    between atoms: O_7  and  C_33
REMARK    9  A    between atoms: N_9  and  C_18
REMARK   10  A    between atoms: N_10  and  C_12
REMARK   11  A    between atoms: C_19  and  C_22
REMARK                            x       y       z     vdW  Elec       q    Type
REMARK                         _______ _______ _______ _____ _____    ______ ____
ROOT
ATOM      2  O   UNL     1     -13.914   4.706  23.202  0.00  0.00    -0.273 OA
ATOM      3  O   UNL     1     -18.243   6.386  23.201  0.00  0.00    -0.252 OA
ATOM      8  N   UNL     1     -17.057   4.971  24.606  0.00  0.00    -0.273 N 
ATOM      9  N   UNL     1     -15.972   5.820  22.839  0.00  0.00    -0.192 N 
ATOM     11  C   UNL     1     -15.753   4.377  24.706  0.00  0.00    +0.166 C 
ATOM     12  C   UNL     1     -16.885   2.319  25.665  0.00  0.00    +0.077 C 
ATOM     13  C   UNL     1     -15.844   2.854  24.666  0.00  0.00    +0.054 C 
ATOM     14  C   UNL     1     -18.238   3.034  25.504  0.00  0.00    +0.041 C 
ATOM     15  C   UNL     1     -18.098   4.558  25.530  0.00  0.00    +0.112 C 
ATOM     16  C   UNL     1     -15.079   4.968  23.480  0.00  0.00    +0.248 C 
ATOM     17  C   UNL     1     -17.201   5.820  23.506  0.00  0.00    +0.316 C 
ENDROOT
BRANCH   9  18
ATOM     18  C   UNL     1     -15.687   6.570  21.654  0.00  0.00    +0.052 A 
ATOM     20  C   UNL     1     -16.350   6.273  20.464  0.00  0.00    +0.069 A 
ATOM     21  C   UNL     1     -14.745   7.600  21.691  0.00  0.00    +0.069 A 
ATOM     23  C   UNL     1     -14.468   8.332  20.537  0.00  0.00    +0.125 A 
ATOM     24  C   UNL     1     -16.072   7.005  19.309  0.00  0.00    +0.125 A 
ATOM     25  C   UNL     1     -15.130   8.035  19.345  0.00  0.00    +0.091 A 
BRANCH  23   5
ATOM      5  O   UNL     1     -13.550   9.336  20.572  0.00  0.00    -0.495 OA
ATOM     31  C   UNL     1     -12.899   9.578  21.818  0.00  0.00    +0.277 C 
ENDBRANCH  23   5
BRANCH  24   6
ATOM      6  O   UNL     1     -16.719   6.716  18.147  0.00  0.00    -0.495 OA
ATOM     32  C   UNL     1     -17.548   5.556  18.138  0.00  0.00    +0.277 C 
ENDBRANCH  24   6
ENDBRANCH   9  18
BRANCH  12  10
ATOM      4  O   UNL     1     -17.471   0.526  27.828  0.00  0.00    -0.270 OA
ATOM     10  N   UNL     1     -16.406   2.422  27.025  0.00  0.00    -0.308 N 
ATOM     19  C   UNL     1     -16.747   1.501  28.004  0.00  0.00    +0.248 C 
ATOM     35  H   UNL     1     -15.819   3.217  27.251  0.00  0.00    +0.149 HD
BRANCH  19  22
ATOM     22  C   UNL     1     -16.194   1.761  29.358  0.00  0.00    +0.078 A 
ATOM     26  C   UNL     1     -15.326   0.852  29.963  0.00  0.00    +0.133 A 
ATOM     27  C   UNL     1     -16.553   2.933  30.024  0.00  0.00    +0.018 A 
ATOM     28  C   UNL     1     -14.818   1.115  31.235  0.00  0.00    +0.061 A 
ATOM     29  C   UNL     1     -16.045   3.196  31.296  0.00  0.00    +0.015 A 
ATOM     30  C   UNL     1     -15.177   2.286  31.902  0.00  0.00    +0.011 A 
BRANCH  30   1
ATOM      1  S   UNL     1     -14.529   2.622  33.527  0.00  0.00    -0.128 S 
ATOM     34  C   UNL     1     -15.239   4.256  33.877  0.00  0.00    +0.090 C 
ENDBRANCH  30   1
BRANCH  26   7
ATOM      7  O   UNL     1     -14.964  -0.298  29.329  0.00  0.00    -0.494 OA
ATOM     33  C   UNL     1     -13.615  -0.730  29.491  0.00  0.00    +0.277 C 
ENDBRANCH  26   7
ENDBRANCH  19  22
ENDBRANCH  12  10
TORSDOF 7
ENDMDL
MODEL 3
REMARK VINA RESULT:      -6.1     27.797     32.147
REMARK  Name = 7050335
REMARK  11 active torsions:
REMARK  status: ('A' for Active; 'I' for Inactive)
REMARK    1  A    between atoms: S_1  and  C_30
REMARK    2  A    between atoms: S_1  and  C_34
REMARK    3  A    between atoms: O_5  and  C_23
REMARK    4  A    between atoms: O_5  and  C_31
REMARK    5  A    between atoms: O_6  and  C_24
REMARK    6  A    between atoms: O_6  and  C_32
REMARK    7  A    between atoms: O_7  and  C_26
REMARK    8  A    between atoms: O_7  and  C_33
REMARK    9  A    between atoms: N_9  and  C_18
REMARK   10  A    between atoms: N_10  and  C_12
REMARK   11  A    between atoms: C_19  and  C_22
REMARK                            x       y       z     vdW  Elec       q    Type
REMARK                         _______ _______ _______ _____ _____    ______ ____
ROOT
ATOM      2  O   UNL     1      11.462   8.252   3.209  0.00  0.00    -0.273 OA
ATOM      3  O   UNL     1       9.287   4.536   4.948  0.00  0.00    -0.252 OA
ATOM      8  N   UNL     1       9.591   6.719   5.673  0.00  0.00    -0.273 N 
ATOM      9  N   UNL     1      10.455   6.162   3.683  0.00  0.00    -0.192 N 
ATOM     11  C   UNL     1      10.240   7.928   5.248  0.00  0.00    +0.166 C 
ATOM     12  C   UNL     1      10.755   8.381   7.690  0.00  0.00    +0.077 C 
ATOM     13  C   UNL     1      11.305   8.357   6.253  0.00  0.00    +0.054 C 
ATOM     14  C   UNL     1      10.053   7.059   8.045  0.00  0.00    +0.041 C 
ATOM     15  C   UNL     1       9.009   6.656   7.002  0.00  0.00    +0.112 C 
ATOM     16  C   UNL     1      10.820   7.484   3.916  0.00  0.00    +0.248 C 
ATOM     17  C   UNL     1       9.715   5.669   4.761  0.00  0.00    +0.316 C 
ENDROOT
BRANCH   9  18
ATOM     18  C   UNL     1      10.805   5.406   2.519  0.00  0.00    +0.052 A 
ATOM     20  C   UNL     1      10.053   5.534   1.352  0.00  0.00    +0.069 A 
ATOM     21  C   UNL     1      11.900   4.541   2.553  0.00  0.00    +0.069 A 
ATOM     23  C   UNL     1      12.242   3.805   1.418  0.00  0.00    +0.125 A 
ATOM     24  C   UNL     1      10.395   4.797   0.217  0.00  0.00    +0.125 A 
ATOM     25  C   UNL     1      11.489   3.933   0.250  0.00  0.00    +0.091 A 
BRANCH  23   5
ATOM      5  O   UNL     1      13.310   2.961   1.450  0.00  0.00    -0.495 OA
ATOM     31  C   UNL     1      14.596   3.550   1.635  0.00  0.00    +0.277 C 
ENDBRANCH  23   5
BRANCH  24   6
ATOM      6  O   UNL     1       9.661   4.922  -0.922  0.00  0.00    -0.495 OA
ATOM     32  C   UNL     1      10.324   4.644  -2.155  0.00  0.00    +0.277 C 
ENDBRANCH  24   6
ENDBRANCH   9  18
BRANCH  12  10
ATOM      4  O   UNL     1      11.358  10.798   9.116  0.00  0.00    -0.270 OA
ATOM     10  N   UNL     1       9.871   9.506   7.894  0.00  0.00    -0.308 N 
ATOM     19  C   UNL     1      10.255  10.635   8.601  0.00  0.00    +0.248 C 
ATOM     35  H   UNL     1       8.933   9.433   7.516  0.00  0.00    +0.149 HD
BRANCH  19  22
ATOM     22  C   UNL     1       9.222  11.692   8.744  0.00  0.00    +0.078 A 
ATOM     26  C   UNL     1       8.796  12.430   7.640  0.00  0.00    +0.133 A 
ATOM     27  C   UNL     1       8.676  11.942  10.004  0.00  0.00    +0.018 A 
ATOM     28  C   UNL     1       7.825  13.419   7.796  0.00  0.00    +0.061 A 
ATOM     29  C   UNL     1       7.705  12.930  10.159  0.00  0.00    +0.015 A 
ATOM     30  C   UNL     1       7.279  13.669   9.054  0.00  0.00    +0.011 A 
BRANCH  30   1
ATOM      1  S   UNL     1       6.038  14.932   9.254  0.00  0.00    -0.128 S 
ATOM     34  C   UNL     1       4.538  13.941   9.501  0.00  0.00    +0.090 C 
ENDBRANCH  30   1
BRANCH  26   7
ATOM      7  O   UNL     1       9.317  12.202   6.402  0.00  0.00    -0.494 OA
ATOM     33  C   UNL     1       8.430  11.690   5.410  0.00  0.00    +0.277 C 
ENDBRANCH  26   7
ENDBRANCH  19  22
ENDBRANCH  12  10
TORSDOF 7
ENDMDL
MODEL 4
REMARK VINA RESULT:      -6.1     19.726     22.897
REMARK  Name = 7050335
REMARK  11 active torsions:
REMARK  status: ('A' for Active; 'I' for Inactive)
REMARK    1  A    between atoms: S_1  and  C_30
REMARK    2  A    between atoms: S_1  and  C_34
REMARK    3  A    between atoms: O_5  and  C_23
REMARK    4  A    between atoms: O_5  and  C_31
REMARK    5  A    between atoms: O_6  and  C_24
REMARK    6  A    between atoms: O_6  and  C_32
REMARK    7  A    between atoms: O_7  and  C_26
REMARK    8  A    between atoms: O_7  and  C_33
REMARK    9  A    between atoms: N_9  and  C_18
REMARK   10  A    between atoms: N_10  and  C_12
REMARK   11  A    between atoms: C_19  and  C_22
REMARK                            x       y       z     vdW  Elec       q    Type
REMARK                         _______ _______ _______ _____ _____    ______ ____
ROOT
ATOM      2  O   UNL     1      -8.276 -14.445  17.434  0.00  0.00    -0.273 OA
ATOM      3  O   UNL     1      -7.422 -10.770  20.140  0.00  0.00    -0.252 OA
ATOM      8  N   UNL     1      -6.632 -11.478  18.077  0.00  0.00    -0.273 N 
ATOM      9  N   UNL     1      -8.191 -12.740  19.074  0.00  0.00    -0.192 N 
ATOM     11  C   UNL     1      -6.799 -12.574  17.163  0.00  0.00    +0.166 C 
ATOM     12  C   UNL     1      -4.332 -12.354  16.619  0.00  0.00    +0.077 C 
ATOM     13  C   UNL     1      -5.483 -13.317  16.958  0.00  0.00    +0.054 C 
ATOM     14  C   UNL     1      -4.250 -11.198  17.631  0.00  0.00    +0.041 C 
ATOM     15  C   UNL     1      -5.595 -10.494  17.822  0.00  0.00    +0.112 C 
ATOM     16  C   UNL     1      -7.842 -13.397  17.899  0.00  0.00    +0.248 C 
ATOM     17  C   UNL     1      -7.444 -11.566  19.210  0.00  0.00    +0.316 C 
ENDROOT
BRANCH   9  18
ATOM     18  C   UNL     1      -9.158 -13.205  20.021  0.00  0.00    +0.052 A 
ATOM     20  C   UNL     1      -8.857 -14.284  20.853  0.00  0.00    +0.069 A 
ATOM     21  C   UNL     1     -10.402 -12.580  20.113  0.00  0.00    +0.069 A 
ATOM     23  C   UNL     1     -11.344 -13.033  21.036  0.00  0.00    +0.125 A 
ATOM     24  C   UNL     1      -9.799 -14.737  21.776  0.00  0.00    +0.125 A 
ATOM     25  C   UNL     1     -11.043 -14.112  21.868  0.00  0.00    +0.091 A 
BRANCH  23   5
ATOM      5  O   UNL     1     -12.558 -12.423  21.126  0.00  0.00    -0.495 OA
ATOM     31  C   UNL     1     -13.334 -12.691  22.293  0.00  0.00    +0.277 C 
ENDBRANCH  23   5
BRANCH  24   6
ATOM      6  O   UNL     1      -9.505 -15.789  22.588  0.00  0.00    -0.495 OA
ATOM     32  C   UNL     1      -8.425 -15.620  23.504  0.00  0.00    +0.277 C 
ENDBRANCH  24   6
ENDBRANCH   9  18
BRANCH  12  10
ATOM      4  O   UNL     1      -2.289 -11.032  15.097  0.00  0.00    -0.270 OA
ATOM     10  N   UNL     1      -4.451 -11.851  15.270  0.00  0.00    -0.308 N 
ATOM     19  C   UNL     1      -3.402 -11.223  14.616  0.00  0.00    +0.248 C 
ATOM     35  H   UNL     1      -5.351 -11.952  14.815  0.00  0.00    +0.149 HD
BRANCH  19  22
ATOM     22  C   UNL     1      -3.692 -10.739  13.242  0.00  0.00    +0.078 A 
ATOM     26  C   UNL     1      -4.869 -10.044  12.962  0.00  0.00    +0.133 A 
ATOM     27  C   UNL     1      -2.769 -10.988  12.225  0.00  0.00    +0.018 A 
ATOM     28  C   UNL     1      -5.123  -9.598  11.665  0.00  0.00    +0.061 A 
ATOM     29  C   UNL     1      -3.023 -10.541  10.929  0.00  0.00    +0.015 A 
ATOM     30  C   UNL     1      -4.201  -9.846  10.648  0.00  0.00    +0.011 A 
BRANCH  30   1
ATOM      1  S   UNL     1      -4.525  -9.277   8.991  0.00  0.00    -0.128 S 
ATOM     34  C   UNL     1      -6.255  -8.743   9.116  0.00  0.00    +0.090 C 
ENDBRANCH  30   1
BRANCH  26   7
ATOM      7  O   UNL     1      -5.782  -9.792  13.940  0.00  0.00    -0.494 OA
ATOM     33  C   UNL     1      -7.156  -9.980  13.609  0.00  0.00    +0.277 C 
ENDBRANCH  26   7
ENDBRANCH  19  22
ENDBRANCH  12  10
TORSDOF 7
ENDMDL
MODEL 5
REMARK VINA RESULT:      -6.0     22.773     24.365
REMARK  Name = 7050335
REMARK  11 active torsions:
REMARK  status: ('A' for Active; 'I' for Inactive)
REMARK    1  A    between atoms: S_1  and  C_30
REMARK    2  A    between atoms: S_1  and  C_34
REMARK    3  A    between atoms: O_5  and  C_23
REMARK    4  A    between atoms: O_5  and  C_31
REMARK    5  A    between atoms: O_6  and  C_24
REMARK    6  A    between atoms: O_6  and  C_32
REMARK    7  A    between atoms: O_7  and  C_26
REMARK    8  A    between atoms: O_7  and  C_33
REMARK    9  A    between atoms: N_9  and  C_18
REMARK   10  A    between atoms: N_10  and  C_12
REMARK   11  A    between atoms: C_19  and  C_22
REMARK                            x       y       z     vdW  Elec       q    Type
REMARK                         _______ _______ _______ _____ _____    ______ ____
ROOT
ATOM      2  O   UNL     1      -4.569  -9.877   8.838  0.00  0.00    -0.273 OA
ATOM      3  O   UNL     1      -4.359 -14.495   8.399  0.00  0.00    -0.252 OA
ATOM      8  N   UNL     1      -4.231 -13.033  10.196  0.00  0.00    -0.273 N 
ATOM      9  N   UNL     1      -4.574 -12.148   8.167  0.00  0.00    -0.192 N 
ATOM     11  C   UNL     1      -4.264 -11.621  10.457  0.00  0.00    +0.166 C 
ATOM     12  C   UNL     1      -2.560 -12.030  12.290  0.00  0.00    +0.077 C 
ATOM     13  C   UNL     1      -2.957 -11.153  11.090  0.00  0.00    +0.054 C 
ATOM     14  C   UNL     1      -2.582 -13.525  11.926  0.00  0.00    +0.041 C 
ATOM     15  C   UNL     1      -3.902 -13.946  11.276  0.00  0.00    +0.112 C 
ATOM     16  C   UNL     1      -4.475 -11.080   9.053  0.00  0.00    +0.248 C 
ATOM     17  C   UNL     1      -4.408 -13.357   8.849  0.00  0.00    +0.316 C 
ENDROOT
BRANCH   9  18
ATOM     18  C   UNL     1      -4.791 -12.029   6.757  0.00  0.00    +0.052 A 
ATOM     20  C   UNL     1      -6.043 -11.651   6.274  0.00  0.00    +0.069 A 
ATOM     21  C   UNL     1      -3.749 -12.292   5.867  0.00  0.00    +0.069 A 
ATOM     23  C   UNL     1      -3.960 -12.175   4.493  0.00  0.00    +0.125 A 
ATOM     24  C   UNL     1      -6.255 -11.534   4.900  0.00  0.00    +0.125 A 
ATOM     25  C   UNL     1      -5.213 -11.797   4.009  0.00  0.00    +0.091 A 
BRANCH  23   5
ATOM      5  O   UNL     1      -2.945 -12.431   3.624  0.00  0.00    -0.495 OA
ATOM     31  C   UNL     1      -3.303 -12.922   2.333  0.00  0.00    +0.277 C 
ENDBRANCH  23   5
BRANCH  24   6
ATOM      6  O   UNL     1      -7.476 -11.164   4.428  0.00  0.00    -0.495 OA
ATOM     32  C   UNL     1      -7.708  -9.767   4.253  0.00  0.00    +0.277 C 
ENDBRANCH  24   6
ENDBRANCH   9  18
BRANCH  12  10
ATOM      4  O   UNL     1      -1.959 -10.297  14.498  0.00  0.00    -0.270 OA
ATOM     10  N   UNL     1      -3.403 -11.765  13.434  0.00  0.00    -0.308 N 
ATOM     19  C   UNL     1      -3.023 -10.908  14.454  0.00  0.00    +0.248 C 
ATOM     35  H   UNL     1      -4.291 -12.254  13.479  0.00  0.00    +0.149 HD
BRANCH  19  22
ATOM     22  C   UNL     1      -3.991 -10.762  15.572  0.00  0.00    +0.078 A 
ATOM     26  C   UNL     1      -5.278 -10.276  15.344  0.00  0.00    +0.133 A 
ATOM     27  C   UNL     1      -3.597 -11.119  16.862  0.00  0.00    +0.018 A 
ATOM     28  C   UNL     1      -6.172 -10.146  16.408  0.00  0.00    +0.061 A 
ATOM     29  C   UNL     1      -4.491 -10.990  17.924  0.00  0.00    +0.015 A 
ATOM     30  C   UNL     1      -5.779 -10.504  17.697  0.00  0.00    +0.011 A 
BRANCH  30   1
ATOM      1  S   UNL     1      -6.920 -10.338  19.055  0.00  0.00    -0.128 S 
ATOM     34  C   UNL     1      -7.168 -12.069  19.542  0.00  0.00    +0.090 C 
ENDBRANCH  30   1
BRANCH  26   7
ATOM      7  O   UNL     1      -5.682  -9.921  14.092  0.00  0.00    -0.494 OA
ATOM     33  C   UNL     1      -6.883 -10.516  13.606  0.00  0.00    +0.277 C 
ENDBRANCH  26   7
ENDBRANCH  19  22
ENDBRANCH  12  10
TORSDOF 7
ENDMDL
MODEL 6
REMARK VINA RESULT:      -6.0     19.715     22.811
REMARK  Name = 7050335
REMARK  11 active torsions:
REMARK  status: ('A' for Active; 'I' for Inactive)
REMARK    1  A    between atoms: S_1  and  C_30
REMARK    2  A    between atoms: S_1  and  C_34
REMARK    3  A    between atoms: O_5  and  C_23
REMARK    4  A    between atoms: O_5  and  C_31
REMARK    5  A    between atoms: O_6  and  C_24
REMARK    6  A    between atoms: O_6  and  C_32
REMARK    7  A    between atoms: O_7  and  C_26
REMARK    8  A    between atoms: O_7  and  C_33
REMARK    9  A    between atoms: N_9  and  C_18
REMARK   10  A    between atoms: N_10  and  C_12
REMARK   11  A    between atoms: C_19  and  C_22
REMARK                            x       y       z     vdW  Elec       q    Type
REMARK                         _______ _______ _______ _____ _____    ______ ____
ROOT
ATOM      2  O   UNL     1      -8.186 -14.554  17.512  0.00  0.00    -0.273 OA
ATOM      3  O   UNL     1      -7.533 -10.764  20.114  0.00  0.00    -0.252 OA
ATOM      8  N   UNL     1      -6.695 -11.492  18.077  0.00  0.00    -0.273 N 
ATOM      9  N   UNL     1      -8.197 -12.800  19.102  0.00  0.00    -0.192 N 
ATOM     11  C   UNL     1      -6.801 -12.621  17.195  0.00  0.00    +0.166 C 
ATOM     12  C   UNL     1      -4.344 -12.295  16.658  0.00  0.00    +0.077 C 
ATOM     13  C   UNL     1      -5.449 -13.304  17.019  0.00  0.00    +0.054 C 
ATOM     14  C   UNL     1      -4.326 -11.108  17.637  0.00  0.00    +0.041 C 
ATOM     15  C   UNL     1      -5.705 -10.466  17.799  0.00  0.00    +0.112 C 
ATOM     16  C   UNL     1      -7.808 -13.473  17.949  0.00  0.00    +0.248 C 
ATOM     17  C   UNL     1      -7.509 -11.587  19.207  0.00  0.00    +0.316 C 
ENDROOT
BRANCH   9  18
ATOM     18  C   UNL     1      -9.147 -13.285  20.057  0.00  0.00    +0.052 A 
ATOM     20  C   UNL     1     -10.412 -12.705  20.138  0.00  0.00    +0.069 A 
ATOM     21  C   UNL     1      -8.806 -14.339  20.905  0.00  0.00    +0.069 A 
ATOM     23  C   UNL     1      -9.732 -14.813  21.834  0.00  0.00    +0.125 A 
ATOM     24  C   UNL     1     -11.338 -13.178  21.069  0.00  0.00    +0.125 A 
ATOM     25  C   UNL     1     -10.998 -14.232  21.917  0.00  0.00    +0.091 A 
BRANCH  23   5
ATOM      5  O   UNL     1      -9.400 -15.841  22.662  0.00  0.00    -0.495 OA
ATOM     31  C   UNL     1      -8.358 -15.604  23.607  0.00  0.00    +0.277 C 
ENDBRANCH  23   5
BRANCH  24   6
ATOM      6  O   UNL     1     -12.573 -12.613  21.148  0.00  0.00    -0.495 OA
ATOM     32  C   UNL     1     -12.844 -11.519  20.274  0.00  0.00    +0.277 C 
ENDBRANCH  24   6
ENDBRANCH   9  18
BRANCH  12  10
ATOM      4  O   UNL     1      -2.415 -10.789  15.159  0.00  0.00    -0.270 OA
ATOM     10  N   UNL     1      -4.478 -11.837  15.294  0.00  0.00    -0.308 N 
ATOM     19  C   UNL     1      -3.486 -11.112  14.653  0.00  0.00    +0.248 C 
ATOM     35  H   UNL     1      -5.348 -12.048  14.818  0.00  0.00    +0.149 HD
BRANCH  19  22
ATOM     22  C   UNL     1      -3.787 -10.693  13.260  0.00  0.00    +0.078 A 
ATOM     26  C   UNL     1      -5.019 -10.125  12.935  0.00  0.00    +0.133 A 
ATOM     27  C   UNL     1      -2.819 -10.874  12.272  0.00  0.00    +0.018 A 
ATOM     28  C   UNL     1      -5.282  -9.739  11.620  0.00  0.00    +0.061 A 
ATOM     29  C   UNL     1      -3.082 -10.487  10.959  0.00  0.00    +0.015 A 
ATOM     30  C   UNL     1      -4.315  -9.919  10.633  0.00  0.00    +0.011 A 
BRANCH  30   1
ATOM      1  S   UNL     1      -4.651  -9.426   8.954  0.00  0.00    -0.128 S 
ATOM     34  C   UNL     1      -6.179  -8.467   9.150  0.00  0.00    +0.090 C 
ENDBRANCH  30   1
BRANCH  26   7
ATOM      7  O   UNL     1      -5.977  -9.941  13.885  0.00  0.00    -0.494 OA
ATOM     33  C   UNL     1      -7.327  -9.848  13.435  0.00  0.00    +0.277 C 
ENDBRANCH  26   7
ENDBRANCH  19  22
ENDBRANCH  12  10
TORSDOF 7
ENDMDL
MODEL 7
REMARK VINA RESULT:      -5.8     17.120     18.848
REMARK  Name = 7050335
REMARK  11 active torsions:
REMARK  status: ('A' for Active; 'I' for Inactive)
REMARK    1  A    between atoms: S_1  and  C_30
REMARK    2  A    between atoms: S_1  and  C_34
REMARK    3  A    between atoms: O_5  and  C_23
REMARK    4  A    between atoms: O_5  and  C_31
REMARK    5  A    between atoms: O_6  and  C_24
REMARK    6  A    between atoms: O_6  and  C_32
REMARK    7  A    between atoms: O_7  and  C_26
REMARK    8  A    between atoms: O_7  and  C_33
REMARK    9  A    between atoms: N_9  and  C_18
REMARK   10  A    between atoms: N_10  and  C_12
REMARK   11  A    between atoms: C_19  and  C_22
REMARK                            x       y       z     vdW  Elec       q    Type
REMARK                         _______ _______ _______ _____ _____    ______ ____
ROOT
ATOM      2  O   UNL     1     -11.470  -8.694  13.084  0.00  0.00    -0.273 OA
ATOM      3  O   UNL     1     -11.474  -6.020  16.880  0.00  0.00    -0.252 OA
ATOM      8  N   UNL     1     -10.184  -7.810  16.164  0.00  0.00    -0.273 N 
ATOM      9  N   UNL     1     -11.797  -7.084  14.789  0.00  0.00    -0.192 N 
ATOM     11  C   UNL     1     -10.093  -8.711  15.048  0.00  0.00    +0.166 C 
ATOM     12  C   UNL     1      -9.420 -10.515  16.699  0.00  0.00    +0.077 C 
ATOM     13  C   UNL     1     -10.307 -10.154  15.495  0.00  0.00    +0.054 C 
ATOM     14  C   UNL     1      -9.560  -9.480  17.830  0.00  0.00    +0.041 C 
ATOM     15  C   UNL     1      -9.358  -8.046  17.335  0.00  0.00    +0.112 C 
ATOM     16  C   UNL     1     -11.215  -8.185  14.170  0.00  0.00    +0.248 C 
ATOM     17  C   UNL     1     -11.188  -6.849  16.026  0.00  0.00    +0.316 C 
ENDROOT
BRANCH   9  18
ATOM     18  C   UNL     1     -12.877  -6.313  14.252  0.00  0.00    +0.052 A 
ATOM     20  C   UNL     1     -12.618  -5.105  13.606  0.00  0.00    +0.069 A 
ATOM     21  C   UNL     1     -14.189  -6.772  14.375  0.00  0.00    +0.069 A 
ATOM     23  C   UNL     1     -15.242  -6.023  13.851  0.00  0.00    +0.125 A 
ATOM     24  C   UNL     1     -13.671  -4.355  13.082  0.00  0.00    +0.125 A 
ATOM     25  C   UNL     1     -14.984  -4.814  13.205  0.00  0.00    +0.091 A 
BRANCH  23   5
ATOM      5  O   UNL     1     -16.522  -6.470  13.970  0.00  0.00    -0.495 OA
ATOM     31  C   UNL     1     -16.707  -7.761  14.547  0.00  0.00    +0.277 C 
ENDBRANCH  23   5
BRANCH  24   6
ATOM      6  O   UNL     1     -13.420  -3.176  12.450  0.00  0.00    -0.495 OA
ATOM     32  C   UNL     1     -12.375  -3.171  11.478  0.00  0.00    +0.277 C 
ENDBRANCH  24   6
ENDBRANCH   9  18
BRANCH  12  10
ATOM      4  O   UNL     1      -7.386 -11.974  18.104  0.00  0.00    -0.270 OA
ATOM     10  N   UNL     1      -8.037 -10.665  16.305  0.00  0.00    -0.308 N 
ATOM     19  C   UNL     1      -7.126 -11.393  17.054  0.00  0.00    +0.248 C 
ATOM     35  H   UNL     1      -7.743 -10.191  15.458  0.00  0.00    +0.149 HD
BRANCH  19  22
ATOM     22  C   UNL     1      -5.737 -11.430  16.528  0.00  0.00    +0.078 A 
ATOM     26  C   UNL     1      -5.423 -12.174  15.391  0.00  0.00    +0.133 A 
ATOM     27  C   UNL     1      -4.742 -10.706  17.186  0.00  0.00    +0.018 A 
ATOM     28  C   UNL     1      -4.113 -12.196  14.913  0.00  0.00    +0.061 A 
ATOM     29  C   UNL     1      -3.433 -10.728  16.707  0.00  0.00    +0.015 A 
ATOM     30  C   UNL     1      -3.118 -11.473  15.570  0.00  0.00    +0.011 A 
BRANCH  30   1
ATOM      1  S   UNL     1      -1.444 -11.501  14.960  0.00  0.00    -0.128 S 
ATOM     34  C   UNL     1      -0.796  -9.925  15.588  0.00  0.00    +0.090 C 
ENDBRANCH  30   1
BRANCH  26   7
ATOM      7  O   UNL     1      -6.380 -12.888  14.735  0.00  0.00    -0.494 OA
ATOM     33  C   UNL     1      -6.725 -12.454  13.421  0.00  0.00    +0.277 C 
ENDBRANCH  26   7
ENDBRANCH  19  22
ENDBRANCH  12  10
TORSDOF 7
ENDMDL
MODEL 8
REMARK VINA RESULT:      -5.8     21.112     22.985
REMARK  Name = 7050335
REMARK  11 active torsions:
REMARK  status: ('A' for Active; 'I' for Inactive)
REMARK    1  A    between atoms: S_1  and  C_30
REMARK    2  A    between atoms: S_1  and  C_34
REMARK    3  A    between atoms: O_5  and  C_23
REMARK    4  A    between atoms: O_5  and  C_31
REMARK    5  A    between atoms: O_6  and  C_24
REMARK    6  A    between atoms: O_6  and  C_32
REMARK    7  A    between atoms: O_7  and  C_26
REMARK    8  A    between atoms: O_7  and  C_33
REMARK    9  A    between atoms: N_9  and  C_18
REMARK   10  A    between atoms: N_10  and  C_12
REMARK   11  A    between atoms: C_19  and  C_22
REMARK                            x       y       z     vdW  Elec       q    Type
REMARK                         _______ _______ _______ _____ _____    ______ ____
ROOT
ATOM      2  O   UNL     1      -6.328  -7.326   9.203  0.00  0.00    -0.273 OA
ATOM      3  O   UNL     1      -7.122 -11.506   7.342  0.00  0.00    -0.252 OA
ATOM      8  N   UNL     1      -6.021 -10.765   9.245  0.00  0.00    -0.273 N 
ATOM      9  N   UNL     1      -7.001  -9.221   7.951  0.00  0.00    -0.192 N 
ATOM     11  C   UNL     1      -5.698  -9.531   9.907  0.00  0.00    +0.166 C 
ATOM     12  C   UNL     1      -3.495 -10.594  10.577  0.00  0.00    +0.077 C 
ATOM     13  C   UNL     1      -4.187  -9.345  10.004  0.00  0.00    +0.054 C 
ATOM     14  C   UNL     1      -3.923 -11.867   9.827  0.00  0.00    +0.041 C 
ATOM     15  C   UNL     1      -5.444 -12.004   9.735  0.00  0.00    +0.112 C 
ATOM     16  C   UNL     1      -6.365  -8.531   8.979  0.00  0.00    +0.248 C 
ATOM     17  C   UNL     1      -6.784 -10.595   8.088  0.00  0.00    +0.316 C 
ENDROOT
BRANCH   9  18
ATOM     18  C   UNL     1      -7.749  -8.613   6.893  0.00  0.00    +0.052 A 
ATOM     20  C   UNL     1      -8.962  -7.982   7.170  0.00  0.00    +0.069 A 
ATOM     21  C   UNL     1      -7.265  -8.653   5.585  0.00  0.00    +0.069 A 
ATOM     23  C   UNL     1      -7.994  -8.060   4.554  0.00  0.00    +0.125 A 
ATOM     24  C   UNL     1      -9.691  -7.389   6.138  0.00  0.00    +0.125 A 
ATOM     25  C   UNL     1      -9.207  -7.429   4.830  0.00  0.00    +0.091 A 
BRANCH  23   5
ATOM      5  O   UNL     1      -7.522  -8.098   3.278  0.00  0.00    -0.495 OA
ATOM     31  C   UNL     1      -8.398  -7.643   2.248  0.00  0.00    +0.277 C 
ENDBRANCH  23   5
BRANCH  24   6
ATOM      6  O   UNL     1     -10.874  -6.773   6.408  0.00  0.00    -0.495 OA
ATOM     32  C   UNL     1     -10.984  -6.101   7.661  0.00  0.00    +0.277 C 
ENDBRANCH  24   6
ENDBRANCH   9  18
BRANCH  12  10
ATOM      4  O   UNL     1      -1.730 -11.755  12.520  0.00  0.00    -0.270 OA
ATOM     10  N   UNL     1      -3.739 -10.724  11.996  0.00  0.00    -0.308 N 
ATOM     19  C   UNL     1      -2.820 -11.302  12.857  0.00  0.00    +0.248 C 
ATOM     35  H   UNL     1      -4.631 -10.392  12.345  0.00  0.00    +0.149 HD
BRANCH  19  22
ATOM     22  C   UNL     1      -3.232 -11.384  14.283  0.00  0.00    +0.078 A 
ATOM     26  C   UNL     1      -4.402 -12.048  14.652  0.00  0.00    +0.133 A 
ATOM     27  C   UNL     1      -2.430 -10.787  15.256  0.00  0.00    +0.018 A 
ATOM     28  C   UNL     1      -4.770 -12.113  15.996  0.00  0.00    +0.061 A 
ATOM     29  C   UNL     1      -2.799 -10.854  16.599  0.00  0.00    +0.015 A 
ATOM     30  C   UNL     1      -3.970 -11.517  16.969  0.00  0.00    +0.011 A 
BRANCH  30   1
ATOM      1  S   UNL     1      -4.440 -11.600  18.686  0.00  0.00    -0.128 S 
ATOM     34  C   UNL     1      -6.032 -10.727  18.674  0.00  0.00    +0.090 C 
ENDBRANCH  30   1
BRANCH  26   7
ATOM      7  O   UNL     1      -5.198 -12.637  13.717  0.00  0.00    -0.494 OA
ATOM     33  C   UNL     1      -6.594 -12.695  13.998  0.00  0.00    +0.277 C 
ENDBRANCH  26   7
ENDBRANCH  19  22
ENDBRANCH  12  10
TORSDOF 7
ENDMDL
MODEL 9
REMARK VINA RESULT:      -5.8     30.080     36.366
REMARK  Name = 7050335
REMARK  11 active torsions:
REMARK  status: ('A' for Active; 'I' for Inactive)
REMARK    1  A    between atoms: S_1  and  C_30
REMARK    2  A    between atoms: S_1  and  C_34
REMARK    3  A    between atoms: O_5  and  C_23
REMARK    4  A    between atoms: O_5  and  C_31
REMARK    5  A    between atoms: O_6  and  C_24
REMARK    6  A    between atoms: O_6  and  C_32
REMARK    7  A    between atoms: O_7  and  C_26
REMARK    8  A    between atoms: O_7  and  C_33
REMARK    9  A    between atoms: N_9  and  C_18
REMARK   10  A    between atoms: N_10  and  C_12
REMARK   11  A    between atoms: C_19  and  C_22
REMARK                            x       y       z     vdW  Elec       q    Type
REMARK                         _______ _______ _______ _____ _____    ______ ____
ROOT
ATOM      2  O   UNL     1       9.925   4.121   3.482  0.00  0.00    -0.273 OA
ATOM      3  O   UNL     1      12.977   7.447   4.570  0.00  0.00    -0.252 OA
ATOM      8  N   UNL     1      12.687   6.054   2.737  0.00  0.00    -0.273 N 
ATOM      9  N   UNL     1      11.203   5.886   4.407  0.00  0.00    -0.192 N 
ATOM     11  C   UNL     1      11.817   4.999   2.297  0.00  0.00    +0.166 C 
ATOM     12  C   UNL     1      13.838   3.939   1.192  0.00  0.00    +0.077 C 
ATOM     13  C   UNL     1      12.596   3.708   2.070  0.00  0.00    +0.054 C 
ATOM     14  C   UNL     1      14.693   5.104   1.722  0.00  0.00    +0.041 C 
ATOM     15  C   UNL     1      13.868   6.372   1.954  0.00  0.00    +0.112 C 
ATOM     16  C   UNL     1      10.855   4.919   3.470  0.00  0.00    +0.248 C 
ATOM     17  C   UNL     1      12.340   6.582   3.983  0.00  0.00    +0.316 C 
ENDROOT
BRANCH   9  18
ATOM     18  C   UNL     1      10.515   6.122   5.640  0.00  0.00    +0.052 A 
ATOM     20  C   UNL     1      10.390   5.096   6.576  0.00  0.00    +0.069 A 
ATOM     21  C   UNL     1       9.970   7.379   5.905  0.00  0.00    +0.069 A 
ATOM     23  C   UNL     1       9.300   7.609   7.106  0.00  0.00    +0.125 A 
ATOM     24  C   UNL     1       9.720   5.326   7.778  0.00  0.00    +0.125 A 
ATOM     25  C   UNL     1       9.175   6.583   8.043  0.00  0.00    +0.091 A 
BRANCH  23   5
ATOM      5  O   UNL     1       8.769   8.835   7.365  0.00  0.00    -0.495 OA
ATOM     31  C   UNL     1       9.543   9.722   8.171  0.00  0.00    +0.277 C 
ENDBRANCH  23   5
BRANCH  24   6
ATOM      6  O   UNL     1       9.598   4.326   8.692  0.00  0.00    -0.495 OA
ATOM     32  C   UNL     1       9.035   4.668   9.958  0.00  0.00    +0.277 C 
ENDBRANCH  24   6
ENDBRANCH   9  18
BRANCH  12  10
ATOM      4  O   UNL     1      15.608   3.976  -1.067  0.00  0.00    -0.270 OA
ATOM     10  N   UNL     1      13.471   4.156  -0.189  0.00  0.00    -0.308 N 
ATOM     19  C   UNL     1      14.403   4.156  -1.215  0.00  0.00    +0.248 C 
ATOM     35  H   UNL     1      12.492   4.336  -0.385  0.00  0.00    +0.149 HD
BRANCH  19  22
ATOM     22  C   UNL     1      13.868   4.420  -2.576  0.00  0.00    +0.078 A 
ATOM     26  C   UNL     1      12.827   3.652  -3.096  0.00  0.00    +0.133 A 
ATOM     27  C   UNL     1      14.422   5.451  -3.334  0.00  0.00    +0.018 A 
ATOM     28  C   UNL     1      12.339   3.916  -4.376  0.00  0.00    +0.061 A 
ATOM     29  C   UNL     1      13.934   5.715  -4.614  0.00  0.00    +0.015 A 
ATOM     30  C   UNL     1      12.892   4.947  -5.135  0.00  0.00    +0.011 A 
BRANCH  30   1
ATOM      1  S   UNL     1      12.270   5.284  -6.770  0.00  0.00    -0.128 S 
ATOM     34  C   UNL     1      11.129   6.660  -6.455  0.00  0.00    +0.090 C 
ENDBRANCH  30   1
BRANCH  26   7
ATOM      7  O   UNL     1      12.273   2.640  -2.371  0.00  0.00    -0.494 OA
ATOM     33  C   UNL     1      10.962   2.220  -2.741  0.00  0.00    +0.277 C 
ENDBRANCH  26   7
ENDBRANCH  19  22
ENDBRANCH  12  10
TORSDOF 7
ENDMDL
MODEL 10
REMARK VINA RESULT:      -5.7     22.160     25.336
REMARK  Name = 7050335
REMARK  11 active torsions:
REMARK  status: ('A' for Active; 'I' for Inactive)
REMARK    1  A    between atoms: S_1  and  C_30
REMARK    2  A    between atoms: S_1  and  C_34
REMARK    3  A    between atoms: O_5  and  C_23
REMARK    4  A    between atoms: O_5  and  C_31
REMARK    5  A    between atoms: O_6  and  C_24
REMARK    6  A    between atoms: O_6  and  C_32
REMARK    7  A    between atoms: O_7  and  C_26
REMARK    8  A    between atoms: O_7  and  C_33
REMARK    9  A    between atoms: N_9  and  C_18
REMARK   10  A    between atoms: N_10  and  C_12
REMARK   11  A    between atoms: C_19  and  C_22
REMARK                            x       y       z     vdW  Elec       q    Type
REMARK                         _______ _______ _______ _____ _____    ______ ____
ROOT
ATOM      2  O   UNL     1      -3.199  -9.725  10.158  0.00  0.00    -0.273 OA
ATOM      3  O   UNL     1      -6.359 -12.438  12.211  0.00  0.00    -0.252 OA
ATOM      8  N   UNL     1      -6.426 -10.911  10.466  0.00  0.00    -0.273 N 
ATOM      9  N   UNL     1      -4.442 -11.283  11.436  0.00  0.00    -0.192 N 
ATOM     11  C   UNL     1      -5.546 -10.017   9.764  0.00  0.00    +0.166 C 
ATOM     12  C   UNL     1      -7.503  -8.416   9.571  0.00  0.00    +0.077 C 
ATOM     13  C   UNL     1      -6.010  -8.571   9.908  0.00  0.00    +0.054 C 
ATOM     14  C   UNL     1      -8.363  -9.431  10.345  0.00  0.00    +0.041 C 
ATOM     15  C   UNL     1      -7.851 -10.865  10.189  0.00  0.00    +0.112 C 
ATOM     16  C   UNL     1      -4.234 -10.298  10.476  0.00  0.00    +0.248 C 
ATOM     17  C   UNL     1      -5.788 -11.659  11.458  0.00  0.00    +0.316 C 
ENDROOT
BRANCH   9  18
ATOM     18  C   UNL     1      -3.431 -11.819  12.296  0.00  0.00    +0.052 A 
ATOM     20  C   UNL     1      -3.000 -13.135  12.129  0.00  0.00    +0.069 A 
ATOM     21  C   UNL     1      -2.876 -11.025  13.300  0.00  0.00    +0.069 A 
ATOM     23  C   UNL     1      -1.891 -11.548  14.137  0.00  0.00    +0.125 A 
ATOM     24  C   UNL     1      -2.013 -13.658  12.966  0.00  0.00    +0.125 A 
ATOM     25  C   UNL     1      -1.459 -12.864  13.971  0.00  0.00    +0.091 A 
BRANCH  23   5
ATOM      5  O   UNL     1      -1.349 -10.774  15.117  0.00  0.00    -0.495 OA
ATOM     31  C   UNL     1      -2.077 -10.671  16.340  0.00  0.00    +0.277 C 
ENDBRANCH  23   5
BRANCH  24   6
ATOM      6  O   UNL     1      -1.592 -14.941  12.803  0.00  0.00    -0.495 OA
ATOM     32  C   UNL     1      -1.563 -15.768  13.965  0.00  0.00    +0.277 C 
ENDBRANCH  24   6
ENDBRANCH   9  18
BRANCH  12  10
ATOM      4  O   UNL     1      -8.032  -6.259   7.752  0.00  0.00    -0.270 OA
ATOM     10  N   UNL     1      -7.733  -8.524   8.149  0.00  0.00    -0.308 N 
ATOM     19  C   UNL     1      -7.982  -7.418   7.350  0.00  0.00    +0.248 C 
ATOM     35  H   UNL     1      -7.730  -9.455   7.748  0.00  0.00    +0.149 HD
BRANCH  19  22
ATOM     22  C   UNL     1      -8.223  -7.699   5.912  0.00  0.00    +0.078 A 
ATOM     26  C   UNL     1      -7.390  -8.564   5.202  0.00  0.00    +0.133 A 
ATOM     27  C   UNL     1      -9.301  -7.085   5.272  0.00  0.00    +0.018 A 
ATOM     28  C   UNL     1      -7.634  -8.814   3.852  0.00  0.00    +0.061 A 
ATOM     29  C   UNL     1      -9.544  -7.336   3.922  0.00  0.00    +0.015 A 
ATOM     30  C   UNL     1      -8.711  -8.202   3.212  0.00  0.00    +0.011 A 
BRANCH  30   1
ATOM      1  S   UNL     1      -9.023  -8.521   1.487  0.00  0.00    -0.128 S 
ATOM     34  C   UNL     1     -10.397  -7.385   1.144  0.00  0.00    +0.090 C 
ENDBRANCH  30   1
BRANCH  26   7
ATOM      7  O   UNL     1      -6.334  -9.173   5.809  0.00  0.00    -0.494 OA
ATOM     33  C   UNL     1      -6.117 -10.549   5.506  0.00  0.00    +0.277 C 
ENDBRANCH  26   7
ENDBRANCH  19  22
ENDBRANCH  12  10
TORSDOF 7
ENDMDL
