MODEL 1
REMARK VINA RESULT:      -6.5      0.000      0.000
REMARK  Name = 45783371
REMARK  8 active torsions:
REMARK  status: ('A' for Active; 'I' for Inactive)
REMARK    1  A    between atoms: O_2  and  C_27
REMARK    2  A    between atoms: O_2  and  C_28
REMARK    3  A    between atoms: N_3  and  C_12
REMARK    4  A    between atoms: N_6  and  C_24
REMARK    5  A    between atoms: C_8  and  C_13
REMARK    6  A    between atoms: C_12  and  C_14
REMARK    7  A    between atoms: C_15  and  C_18
REMARK    8  A    between atoms: C_24  and  C_27
REMARK                            x       y       z     vdW  Elec       q    Type
REMARK                         _______ _______ _______ _____ _____    ______ ____
ROOT
ATOM      1  O   UNL     1      14.575   9.376  22.816  0.00  0.00    -0.336 OA
ATOM      4  N   UNL     1      15.446   9.758  20.788  0.00  0.00    -0.190 NA
ATOM      5  N   UNL     1      15.055   8.142  22.360  0.00  0.00    -0.056 NA
ATOM     13  C   UNL     1      14.844  10.272  21.830  0.00  0.00    +0.245 A 
ATOM     15  C   UNL     1      15.554   8.449  21.159  0.00  0.00    +0.205 A 
ENDROOT
BRANCH  15  18
ATOM      6  N   UNL     1      14.507   7.831  18.593  0.00  0.00    -0.326 N 
ATOM      7  N   UNL     1      16.221   6.242  18.224  0.00  0.00    -0.240 NA
ATOM     18  C   UNL     1      16.166   7.472  20.305  0.00  0.00    +0.062 A 
ATOM     22  C   UNL     1      15.668   7.158  19.050  0.00  0.00    +0.130 A 
ATOM     23  C   UNL     1      17.305   6.804  20.740  0.00  0.00    +0.016 A 
ATOM     25  C   UNL     1      17.903   5.854  19.918  0.00  0.00    +0.020 A 
ATOM     26  C   UNL     1      17.327   5.613  18.680  0.00  0.00    +0.113 A 
ATOM     29  H   UNL     1      14.321   8.735  19.014  0.00  0.00    +0.148 HD
BRANCH   6  24
ATOM     24  C   UNL     1      13.923   7.575  17.317  0.00  0.00    +0.131 C 
BRANCH  24  27
ATOM     27  C   UNL     1      13.356   8.860  16.737  0.00  0.00    +0.178 C 
BRANCH  27   2
ATOM      2  O   UNL     1      12.334   8.546  15.800  0.00  0.00    -0.381 OA
ATOM     28  C   UNL     1      11.051   8.917  16.286  0.00  0.00    +0.194 C 
ENDBRANCH  27   2
ENDBRANCH  24  27
ENDBRANCH   6  24
ENDBRANCH  15  18
BRANCH  13   8
ATOM      3  N   UNL     1      13.122  11.791  22.789  0.00  0.00    -0.287 NA
ATOM      8  C   UNL     1      14.417  11.703  22.084  0.00  0.00    +0.146 C 
ATOM      9  C   UNL     1      15.404  12.466  22.985  0.00  0.00    +0.030 C 
ATOM     10  C   UNL     1      14.563  12.999  24.137  0.00  0.00    +0.017 C 
ATOM     11  C   UNL     1      13.159  13.029  23.567  0.00  0.00    +0.085 C 
BRANCH   3  12
ATOM     12  C   UNL     1      11.975  11.744  21.890  0.00  0.00    +0.120 C 
BRANCH  12  14
ATOM     14  C   UNL     1      11.530  10.331  21.624  0.00  0.00    -0.033 A 
ATOM     16  C   UNL     1      10.983   9.566  22.655  0.00  0.00    +0.005 A 
ATOM     17  C   UNL     1      11.664   9.785  20.348  0.00  0.00    +0.005 A 
ATOM     19  C   UNL     1      10.570   8.256  22.409  0.00  0.00    +0.000 A 
ATOM     20  C   UNL     1      11.251   8.476  20.101  0.00  0.00    +0.000 A 
ATOM     21  C   UNL     1      10.704   7.712  21.132  0.00  0.00    +0.000 A 
ENDBRANCH  12  14
ENDBRANCH   3  12
ENDBRANCH  13   8
TORSDOF 7
ENDMDL
MODEL 2
REMARK VINA RESULT:      -6.3     25.904     28.856
REMARK  Name = 45783371
REMARK  8 active torsions:
REMARK  status: ('A' for Active; 'I' for Inactive)
REMARK    1  A    between atoms: O_2  and  C_27
REMARK    2  A    between atoms: O_2  and  C_28
REMARK    3  A    between atoms: N_3  and  C_12
REMARK    4  A    between atoms: N_6  and  C_24
REMARK    5  A    between atoms: C_8  and  C_13
REMARK    6  A    between atoms: C_12  and  C_14
REMARK    7  A    between atoms: C_15  and  C_18
REMARK    8  A    between atoms: C_24  and  C_27
REMARK                            x       y       z     vdW  Elec       q    Type
REMARK                         _______ _______ _______ _____ _____    ______ ____
ROOT
ATOM      1  O   UNL     1      -4.955  -9.682  15.967  0.00  0.00    -0.336 OA
ATOM      4  N   UNL     1      -5.187 -11.694  16.926  0.00  0.00    -0.190 NA
ATOM      5  N   UNL     1      -6.156  -9.635  16.686  0.00  0.00    -0.056 NA
ATOM     13  C   UNL     1      -4.450 -10.929  16.162  0.00  0.00    +0.245 A 
ATOM     15  C   UNL     1      -6.223 -10.857  17.223  0.00  0.00    +0.205 A 
ENDROOT
BRANCH  15  18
ATOM      6  N   UNL     1      -8.829  -9.761  16.953  0.00  0.00    -0.326 N 
ATOM      7  N   UNL     1      -9.634 -11.120  18.715  0.00  0.00    -0.240 NA
ATOM     18  C   UNL     1      -7.312 -11.273  18.060  0.00  0.00    +0.062 A 
ATOM     22  C   UNL     1      -8.589 -10.748  17.942  0.00  0.00    +0.130 A 
ATOM     23  C   UNL     1      -7.092 -12.241  19.034  0.00  0.00    +0.016 A 
ATOM     25  C   UNL     1      -8.142 -12.648  19.850  0.00  0.00    +0.020 A 
ATOM     26  C   UNL     1      -9.383 -12.063  19.651  0.00  0.00    +0.113 A 
ATOM     29  H   UNL     1      -8.191  -9.756  16.164  0.00  0.00    +0.148 HD
BRANCH   6  24
ATOM     24  C   UNL     1     -10.110  -9.165  16.757  0.00  0.00    +0.131 C 
BRANCH  24  27
ATOM     27  C   UNL     1     -10.070  -7.702  17.169  0.00  0.00    +0.178 C 
BRANCH  27   2
ATOM      2  O   UNL     1     -10.100  -6.883  16.007  0.00  0.00    -0.381 OA
ATOM     28  C   UNL     1     -11.276  -6.085  15.963  0.00  0.00    +0.194 C 
ENDBRANCH  27   2
ENDBRANCH  24  27
ENDBRANCH   6  24
ENDBRANCH  15  18
BRANCH  13   8
ATOM      3  N   UNL     1      -2.978 -10.520  14.197  0.00  0.00    -0.287 NA
ATOM      8  C   UNL     1      -3.133 -11.237  15.479  0.00  0.00    +0.146 C 
ATOM      9  C   UNL     1      -1.915 -10.807  16.316  0.00  0.00    +0.030 C 
ATOM     10  C   UNL     1      -1.103  -9.900  15.402  0.00  0.00    +0.017 C 
ATOM     11  C   UNL     1      -1.542 -10.312  14.011  0.00  0.00    +0.085 C 
BRANCH   3  12
ATOM     12  C   UNL     1      -3.580 -11.223  13.070  0.00  0.00    +0.120 C 
BRANCH  12  14
ATOM     14  C   UNL     1      -4.019 -10.273  11.987  0.00  0.00    -0.033 A 
ATOM     16  C   UNL     1      -3.186 -10.028  10.895  0.00  0.00    +0.005 A 
ATOM     17  C   UNL     1      -5.257  -9.638  12.077  0.00  0.00    +0.005 A 
ATOM     19  C   UNL     1      -3.593  -9.148   9.891  0.00  0.00    +0.000 A 
ATOM     20  C   UNL     1      -5.664  -8.759  11.074  0.00  0.00    +0.000 A 
ATOM     21  C   UNL     1      -4.832  -8.514   9.981  0.00  0.00    +0.000 A 
ENDBRANCH  12  14
ENDBRANCH   3  12
ENDBRANCH  13   8
TORSDOF 7
ENDMDL
MODEL 3
REMARK VINA RESULT:      -6.2     15.638     20.362
REMARK  Name = 45783371
REMARK  8 active torsions:
REMARK  status: ('A' for Active; 'I' for Inactive)
REMARK    1  A    between atoms: O_2  and  C_27
REMARK    2  A    between atoms: O_2  and  C_28
REMARK    3  A    between atoms: N_3  and  C_12
REMARK    4  A    between atoms: N_6  and  C_24
REMARK    5  A    between atoms: C_8  and  C_13
REMARK    6  A    between atoms: C_12  and  C_14
REMARK    7  A    between atoms: C_15  and  C_18
REMARK    8  A    between atoms: C_24  and  C_27
REMARK                            x       y       z     vdW  Elec       q    Type
REMARK                         _______ _______ _______ _____ _____    ______ ____
ROOT
ATOM      1  O   UNL     1      11.563   3.332   2.650  0.00  0.00    -0.336 OA
ATOM      4  N   UNL     1      11.797   5.503   2.152  0.00  0.00    -0.190 NA
ATOM      5  N   UNL     1      10.486   3.990   3.258  0.00  0.00    -0.056 NA
ATOM     13  C   UNL     1      12.285   4.296   2.021  0.00  0.00    +0.245 A 
ATOM     15  C   UNL     1      10.694   5.266   2.919  0.00  0.00    +0.205 A 
ENDROOT
BRANCH  15  18
ATOM      6  N   UNL     1       9.837   5.544   5.611  0.00  0.00    -0.326 N 
ATOM      7  N   UNL     1       8.569   7.464   5.058  0.00  0.00    -0.240 NA
ATOM     18  C   UNL     1       9.820   6.326   3.331  0.00  0.00    +0.062 A 
ATOM     22  C   UNL     1       9.392   6.476   4.640  0.00  0.00    +0.130 A 
ATOM     23  C   UNL     1       9.376   7.248   2.390  0.00  0.00    +0.016 A 
ATOM     25  C   UNL     1       8.527   8.278   2.781  0.00  0.00    +0.020 A 
ATOM     26  C   UNL     1       8.157   8.341   4.116  0.00  0.00    +0.113 A 
ATOM     29  H   UNL     1      10.704   5.061   5.401  0.00  0.00    +0.148 HD
BRANCH   6  24
ATOM     24  C   UNL     1       9.449   5.619   6.982  0.00  0.00    +0.131 C 
BRANCH  24  27
ATOM     27  C   UNL     1      10.644   6.001   7.839  0.00  0.00    +0.178 C 
BRANCH  27   2
ATOM      2  O   UNL     1      10.737   5.112   8.945  0.00  0.00    -0.381 OA
ATOM     28  C   UNL     1       9.479   4.524   9.247  0.00  0.00    +0.194 C 
ENDBRANCH  27   2
ENDBRANCH  24  27
ENDBRANCH   6  24
ENDBRANCH  15  18
BRANCH  13   8
ATOM      3  N   UNL     1      13.392   3.993  -0.188  0.00  0.00    -0.287 NA
ATOM      8  C   UNL     1      13.520   3.834   1.275  0.00  0.00    +0.146 C 
ATOM      9  C   UNL     1      14.776   4.644   1.648  0.00  0.00    +0.030 C 
ATOM     10  C   UNL     1      15.319   5.168   0.325  0.00  0.00    +0.017 C 
ATOM     11  C   UNL     1      14.746   4.209  -0.699  0.00  0.00    +0.085 C 
BRANCH   3  12
ATOM     12  C   UNL     1      12.737   2.862  -0.832  0.00  0.00    +0.120 C 
BRANCH  12  14
ATOM     14  C   UNL     1      11.590   3.301  -1.703  0.00  0.00    -0.033 A 
ATOM     16  C   UNL     1      11.191   2.511  -2.782  0.00  0.00    +0.005 A 
ATOM     17  C   UNL     1      10.927   4.497  -1.433  0.00  0.00    +0.005 A 
ATOM     19  C   UNL     1      10.129   2.917  -3.589  0.00  0.00    +0.000 A 
ATOM     20  C   UNL     1       9.864   4.903  -2.239  0.00  0.00    +0.000 A 
ATOM     21  C   UNL     1       9.465   4.114  -3.318  0.00  0.00    +0.000 A 
ENDBRANCH  12  14
ENDBRANCH   3  12
ENDBRANCH  13   8
TORSDOF 7
ENDMDL
MODEL 4
REMARK VINA RESULT:      -6.2      2.599      6.542
REMARK  Name = 45783371
REMARK  8 active torsions:
REMARK  status: ('A' for Active; 'I' for Inactive)
REMARK    1  A    between atoms: O_2  and  C_27
REMARK    2  A    between atoms: O_2  and  C_28
REMARK    3  A    between atoms: N_3  and  C_12
REMARK    4  A    between atoms: N_6  and  C_24
REMARK    5  A    between atoms: C_8  and  C_13
REMARK    6  A    between atoms: C_12  and  C_14
REMARK    7  A    between atoms: C_15  and  C_18
REMARK    8  A    between atoms: C_24  and  C_27
REMARK                            x       y       z     vdW  Elec       q    Type
REMARK                         _______ _______ _______ _____ _____    ______ ____
ROOT
ATOM      1  O   UNL     1      15.277  10.158  19.727  0.00  0.00    -0.336 OA
ATOM      4  N   UNL     1      14.762   9.531  21.814  0.00  0.00    -0.190 NA
ATOM      5  N   UNL     1      14.072   9.450  19.635  0.00  0.00    -0.056 NA
ATOM     13  C   UNL     1      15.614  10.158  21.043  0.00  0.00    +0.245 A 
ATOM     15  C   UNL     1      13.834   9.114  20.906  0.00  0.00    +0.205 A 
ENDROOT
BRANCH  15  18
ATOM      6  N   UNL     1      11.824  10.214  22.583  0.00  0.00    -0.326 N 
ATOM      7  N   UNL     1      10.590   8.197  22.507  0.00  0.00    -0.240 NA
ATOM     18  C   UNL     1      12.678   8.360  21.301  0.00  0.00    +0.062 A 
ATOM     22  C   UNL     1      11.689   8.882  22.118  0.00  0.00    +0.130 A 
ATOM     23  C   UNL     1      12.532   7.052  20.852  0.00  0.00    +0.016 A 
ATOM     25  C   UNL     1      11.415   6.315  21.232  0.00  0.00    +0.020 A 
ATOM     26  C   UNL     1      10.481   6.928  22.052  0.00  0.00    +0.113 A 
ATOM     29  H   UNL     1      12.408  10.825  22.022  0.00  0.00    +0.148 HD
BRANCH   6  24
ATOM     24  C   UNL     1      10.856  10.835  23.428  0.00  0.00    +0.131 C 
BRANCH  24  27
ATOM     27  C   UNL     1      11.530  11.376  24.678  0.00  0.00    +0.178 C 
BRANCH  27   2
ATOM      2  O   UNL     1      10.584  12.109  25.445  0.00  0.00    -0.381 OA
ATOM     28  C   UNL     1      10.428  13.433  24.952  0.00  0.00    +0.194 C 
ENDBRANCH  27   2
ENDBRANCH  24  27
ENDBRANCH   6  24
ENDBRANCH  15  18
BRANCH  13   8
ATOM      3  N   UNL     1      18.100  10.159  20.935  0.00  0.00    -0.287 NA
ATOM      8  C   UNL     1      16.898  10.872  21.411  0.00  0.00    +0.146 C 
ATOM      9  C   UNL     1      17.000  12.273  20.781  0.00  0.00    +0.030 C 
ATOM     10  C   UNL     1      18.319  12.272  20.021  0.00  0.00    +0.017 C 
ATOM     11  C   UNL     1      19.120  11.180  20.700  0.00  0.00    +0.085 C 
BRANCH   3  12
ATOM     12  C   UNL     1      18.559   9.129  21.859  0.00  0.00    +0.120 C 
BRANCH  12  14
ATOM     14  C   UNL     1      18.703   7.792  21.181  0.00  0.00    -0.033 A 
ATOM     16  C   UNL     1      19.897   7.079  21.289  0.00  0.00    +0.005 A 
ATOM     17  C   UNL     1      17.642   7.266  20.444  0.00  0.00    +0.005 A 
ATOM     19  C   UNL     1      20.030   5.841  20.662  0.00  0.00    +0.000 A 
ATOM     20  C   UNL     1      17.774   6.028  19.818  0.00  0.00    +0.000 A 
ATOM     21  C   UNL     1      18.968   5.315  19.926  0.00  0.00    +0.000 A 
ENDBRANCH  12  14
ENDBRANCH   3  12
ENDBRANCH  13   8
TORSDOF 7
ENDMDL
MODEL 5
REMARK VINA RESULT:      -6.0      2.558      5.832
REMARK  Name = 45783371
REMARK  8 active torsions:
REMARK  status: ('A' for Active; 'I' for Inactive)
REMARK    1  A    between atoms: O_2  and  C_27
REMARK    2  A    between atoms: O_2  and  C_28
REMARK    3  A    between atoms: N_3  and  C_12
REMARK    4  A    between atoms: N_6  and  C_24
REMARK    5  A    between atoms: C_8  and  C_13
REMARK    6  A    between atoms: C_12  and  C_14
REMARK    7  A    between atoms: C_15  and  C_18
REMARK    8  A    between atoms: C_24  and  C_27
REMARK                            x       y       z     vdW  Elec       q    Type
REMARK                         _______ _______ _______ _____ _____    ______ ____
ROOT
ATOM      1  O   UNL     1      14.764  11.802  21.301  0.00  0.00    -0.336 OA
ATOM      4  N   UNL     1      15.357  10.326  19.723  0.00  0.00    -0.190 NA
ATOM      5  N   UNL     1      13.577  11.409  20.670  0.00  0.00    -0.056 NA
ATOM     13  C   UNL     1      15.763  11.118  20.682  0.00  0.00    +0.245 A 
ATOM     15  C   UNL     1      14.009  10.538  19.753  0.00  0.00    +0.205 A 
ENDROOT
BRANCH  15  18
ATOM      6  N   UNL     1      11.750   9.085  20.674  0.00  0.00    -0.326 N 
ATOM      7  N   UNL     1      11.159   8.507  18.457  0.00  0.00    -0.240 NA
ATOM     18  C   UNL     1      13.120   9.864  18.850  0.00  0.00    +0.062 A 
ATOM     22  C   UNL     1      12.014   9.151  19.282  0.00  0.00    +0.130 A 
ATOM     23  C   UNL     1      13.366   9.920  17.482  0.00  0.00    +0.016 A 
ATOM     25  C   UNL     1      12.510   9.269  16.601  0.00  0.00    +0.020 A 
ATOM     26  C   UNL     1      11.430   8.583  17.134  0.00  0.00    +0.113 A 
ATOM     29  H   UNL     1      12.136   9.836  21.237  0.00  0.00    +0.148 HD
BRANCH   6  24
ATOM     24  C   UNL     1      10.635   8.375  21.212  0.00  0.00    +0.131 C 
BRANCH  24  27
ATOM     27  C   UNL     1      11.112   7.113  21.910  0.00  0.00    +0.178 C 
BRANCH  27   2
ATOM      2  O   UNL     1      11.147   6.041  20.977  0.00  0.00    -0.381 OA
ATOM     28  C   UNL     1      10.795   4.807  21.589  0.00  0.00    +0.194 C 
ENDBRANCH  27   2
ENDBRANCH  24  27
ENDBRANCH   6  24
ENDBRANCH  15  18
BRANCH  13   8
ATOM      3  N   UNL     1      18.107  10.294  20.818  0.00  0.00    -0.287 NA
ATOM      8  C   UNL     1      17.168  11.371  21.190  0.00  0.00    +0.146 C 
ATOM      9  C   UNL     1      17.790  12.651  20.603  0.00  0.00    +0.030 C 
ATOM     10  C   UNL     1      19.103  12.205  19.976  0.00  0.00    +0.017 C 
ATOM     11  C   UNL     1      19.426  10.917  20.706  0.00  0.00    +0.085 C 
BRANCH   3  12
ATOM     12  C   UNL     1      18.106   9.181  21.759  0.00  0.00    +0.120 C 
BRANCH  12  14
ATOM     14  C   UNL     1      18.282   7.858  21.062  0.00  0.00    -0.033 A 
ATOM     16  C   UNL     1      17.250   7.338  20.280  0.00  0.00    +0.005 A 
ATOM     17  C   UNL     1      19.477   7.151  21.199  0.00  0.00    +0.005 A 
ATOM     19  C   UNL     1      17.413   6.112  19.634  0.00  0.00    +0.000 A 
ATOM     20  C   UNL     1      19.640   5.926  20.553  0.00  0.00    +0.000 A 
ATOM     21  C   UNL     1      18.609   5.406  19.771  0.00  0.00    +0.000 A 
ENDBRANCH  12  14
ENDBRANCH   3  12
ENDBRANCH  13   8
TORSDOF 7
ENDMDL
MODEL 6
REMARK VINA RESULT:      -5.9     26.320     29.291
REMARK  Name = 45783371
REMARK  8 active torsions:
REMARK  status: ('A' for Active; 'I' for Inactive)
REMARK    1  A    between atoms: O_2  and  C_27
REMARK    2  A    between atoms: O_2  and  C_28
REMARK    3  A    between atoms: N_3  and  C_12
REMARK    4  A    between atoms: N_6  and  C_24
REMARK    5  A    between atoms: C_8  and  C_13
REMARK    6  A    between atoms: C_12  and  C_14
REMARK    7  A    between atoms: C_15  and  C_18
REMARK    8  A    between atoms: C_24  and  C_27
REMARK                            x       y       z     vdW  Elec       q    Type
REMARK                         _______ _______ _______ _____ _____    ______ ____
ROOT
ATOM      1  O   UNL     1      -4.115 -11.354  17.797  0.00  0.00    -0.336 OA
ATOM      4  N   UNL     1      -5.430 -10.674  16.116  0.00  0.00    -0.190 NA
ATOM      5  N   UNL     1      -5.368 -11.092  18.364  0.00  0.00    -0.056 NA
ATOM     13  C   UNL     1      -4.238 -11.081  16.471  0.00  0.00    +0.245 A 
ATOM     15  C   UNL     1      -6.089 -10.696  17.310  0.00  0.00    +0.205 A 
ENDROOT
BRANCH  15  18
ATOM      6  N   UNL     1      -8.086 -12.514  18.188  0.00  0.00    -0.326 N 
ATOM      7  N   UNL     1      -9.761 -10.860  17.956  0.00  0.00    -0.240 NA
ATOM     18  C   UNL     1      -7.468 -10.315  17.418  0.00  0.00    +0.062 A 
ATOM     22  C   UNL     1      -8.455 -11.189  17.844  0.00  0.00    +0.130 A 
ATOM     23  C   UNL     1      -7.845  -9.018  17.085  0.00  0.00    +0.016 A 
ATOM     25  C   UNL     1      -9.180  -8.642  17.186  0.00  0.00    +0.020 A 
ATOM     26  C   UNL     1     -10.090  -9.591  17.623  0.00  0.00    +0.113 A 
ATOM     29  H   UNL     1      -7.118 -12.651  18.461  0.00  0.00    +0.148 HD
BRANCH   6  24
ATOM     24  C   UNL     1      -9.031 -13.484  18.636  0.00  0.00    +0.131 C 
BRANCH  24  27
ATOM     27  C   UNL     1      -8.986 -13.591  20.151  0.00  0.00    +0.178 C 
BRANCH  27   2
ATOM      2  O   UNL     1     -10.167 -13.024  20.702  0.00  0.00    -0.381 OA
ATOM     28  C   UNL     1     -10.836 -13.941  21.557  0.00  0.00    +0.194 C 
ENDBRANCH  27   2
ENDBRANCH  24  27
ENDBRANCH   6  24
ENDBRANCH  15  18
BRANCH  13   8
ATOM      3  N   UNL     1      -3.044 -10.522  14.361  0.00  0.00    -0.287 NA
ATOM      8  C   UNL     1      -3.001 -11.289  15.622  0.00  0.00    +0.146 C 
ATOM      9  C   UNL     1      -1.714 -10.818  16.323  0.00  0.00    +0.030 C 
ATOM     10  C   UNL     1      -1.070  -9.836  15.354  0.00  0.00    +0.017 C 
ATOM     11  C   UNL     1      -1.654 -10.225  14.012  0.00  0.00    +0.085 C 
BRANCH   3  12
ATOM     12  C   UNL     1      -3.741 -11.220  13.288  0.00  0.00    +0.120 C 
BRANCH  12  14
ATOM     14  C   UNL     1      -4.189 -10.276  12.204  0.00  0.00    -0.033 A 
ATOM     16  C   UNL     1      -3.373 -10.048  11.096  0.00  0.00    +0.005 A 
ATOM     17  C   UNL     1      -5.420  -9.628  12.308  0.00  0.00    +0.005 A 
ATOM     19  C   UNL     1      -3.788  -9.174  10.091  0.00  0.00    +0.000 A 
ATOM     20  C   UNL     1      -5.836  -8.755  11.304  0.00  0.00    +0.000 A 
ATOM     21  C   UNL     1      -5.020  -8.527  10.196  0.00  0.00    +0.000 A 
ENDBRANCH  12  14
ENDBRANCH   3  12
ENDBRANCH  13   8
TORSDOF 7
ENDMDL
MODEL 7
REMARK VINA RESULT:      -5.9      2.126      4.462
REMARK  Name = 45783371
REMARK  8 active torsions:
REMARK  status: ('A' for Active; 'I' for Inactive)
REMARK    1  A    between atoms: O_2  and  C_27
REMARK    2  A    between atoms: O_2  and  C_28
REMARK    3  A    between atoms: N_3  and  C_12
REMARK    4  A    between atoms: N_6  and  C_24
REMARK    5  A    between atoms: C_8  and  C_13
REMARK    6  A    between atoms: C_12  and  C_14
REMARK    7  A    between atoms: C_15  and  C_18
REMARK    8  A    between atoms: C_24  and  C_27
REMARK                            x       y       z     vdW  Elec       q    Type
REMARK                         _______ _______ _______ _____ _____    ______ ____
ROOT
ATOM      1  O   UNL     1      14.473   9.247  22.711  0.00  0.00    -0.336 OA
ATOM      4  N   UNL     1      15.929   9.697  21.069  0.00  0.00    -0.190 NA
ATOM      5  N   UNL     1      15.032   8.018  22.338  0.00  0.00    -0.056 NA
ATOM     13  C   UNL     1      15.056  10.182  21.915  0.00  0.00    +0.245 A 
ATOM     15  C   UNL     1      15.880   8.366  21.366  0.00  0.00    +0.205 A 
ENDROOT
BRANCH  15  18
ATOM      6  N   UNL     1      18.521   7.744  22.204  0.00  0.00    -0.326 N 
ATOM      7  N   UNL     1      18.769   6.196  20.432  0.00  0.00    -0.240 NA
ATOM     18  C   UNL     1      16.691   7.408  20.670  0.00  0.00    +0.062 A 
ATOM     22  C   UNL     1      17.981   7.093  21.066  0.00  0.00    +0.130 A 
ATOM     23  C   UNL     1      16.176   6.761  19.553  0.00  0.00    +0.016 A 
ATOM     25  C   UNL     1      16.956   5.832  18.873  0.00  0.00    +0.020 A 
ATOM     26  C   UNL     1      18.235   5.588  19.349  0.00  0.00    +0.113 A 
ATOM     29  H   UNL     1      17.848   8.106  22.871  0.00  0.00    +0.148 HD
BRANCH   6  24
ATOM     24  C   UNL     1      19.838   7.484  22.685  0.00  0.00    +0.131 C 
BRANCH  24  27
ATOM     27  C   UNL     1      20.379   8.708  23.405  0.00  0.00    +0.178 C 
BRANCH  27   2
ATOM      2  O   UNL     1      20.355   8.481  24.809  0.00  0.00    -0.381 OA
ATOM     28  C   UNL     1      20.669   7.130  25.122  0.00  0.00    +0.194 C 
ENDBRANCH  27   2
ENDBRANCH  24  27
ENDBRANCH   6  24
ENDBRANCH  15  18
BRANCH  13   8
ATOM      3  N   UNL     1      13.258  11.714  22.699  0.00  0.00    -0.287 NA
ATOM      8  C   UNL     1      14.615  11.615  22.125  0.00  0.00    +0.146 C 
ATOM      9  C   UNL     1      15.515  12.373  23.118  0.00  0.00    +0.030 C 
ATOM     10  C   UNL     1      14.568  12.913  24.181  0.00  0.00    +0.017 C 
ATOM     11  C   UNL     1      13.227  12.952  23.477  0.00  0.00    +0.085 C 
BRANCH   3  12
ATOM     12  C   UNL     1      12.205  11.673  21.691  0.00  0.00    +0.120 C 
BRANCH  12  14
ATOM     14  C   UNL     1      11.646  10.286  21.520  0.00  0.00    -0.033 A 
ATOM     16  C   UNL     1      11.713   9.655  20.278  0.00  0.00    +0.005 A 
ATOM     17  C   UNL     1      11.061   9.631  22.604  0.00  0.00    +0.005 A 
ATOM     19  C   UNL     1      11.195   8.369  20.119  0.00  0.00    +0.000 A 
ATOM     20  C   UNL     1      10.544   8.346  22.446  0.00  0.00    +0.000 A 
ATOM     21  C   UNL     1      10.610   7.715  21.203  0.00  0.00    +0.000 A 
ENDBRANCH  12  14
ENDBRANCH   3  12
ENDBRANCH  13   8
TORSDOF 7
ENDMDL
MODEL 8
REMARK VINA RESULT:      -5.8     26.095     29.019
REMARK  Name = 45783371
REMARK  8 active torsions:
REMARK  status: ('A' for Active; 'I' for Inactive)
REMARK    1  A    between atoms: O_2  and  C_27
REMARK    2  A    between atoms: O_2  and  C_28
REMARK    3  A    between atoms: N_3  and  C_12
REMARK    4  A    between atoms: N_6  and  C_24
REMARK    5  A    between atoms: C_8  and  C_13
REMARK    6  A    between atoms: C_12  and  C_14
REMARK    7  A    between atoms: C_15  and  C_18
REMARK    8  A    between atoms: C_24  and  C_27
REMARK                            x       y       z     vdW  Elec       q    Type
REMARK                         _______ _______ _______ _____ _____    ______ ____
ROOT
ATOM      1  O   UNL     1      -5.235 -12.050  16.439  0.00  0.00    -0.336 OA
ATOM      4  N   UNL     1      -5.531 -10.092  15.392  0.00  0.00    -0.190 NA
ATOM      5  N   UNL     1      -6.543 -11.645  16.734  0.00  0.00    -0.056 NA
ATOM     13  C   UNL     1      -4.710 -11.080  15.646  0.00  0.00    +0.245 A 
ATOM     15  C   UNL     1      -6.642 -10.482  16.081  0.00  0.00    +0.205 A 
ENDROOT
BRANCH  15  18
ATOM      6  N   UNL     1      -8.202 -10.066  13.745  0.00  0.00    -0.326 N 
ATOM      7  N   UNL     1      -9.738  -8.730  14.952  0.00  0.00    -0.240 NA
ATOM     18  C   UNL     1      -7.837  -9.687  16.097  0.00  0.00    +0.062 A 
ATOM     22  C   UNL     1      -8.609  -9.474  14.967  0.00  0.00    +0.130 A 
ATOM     23  C   UNL     1      -8.248  -9.101  17.289  0.00  0.00    +0.016 A 
ATOM     25  C   UNL     1      -9.405  -8.328  17.313  0.00  0.00    +0.020 A 
ATOM     26  C   UNL     1     -10.107  -8.176  16.128  0.00  0.00    +0.113 A 
ATOM     29  H   UNL     1      -7.611 -10.887  13.822  0.00  0.00    +0.148 HD
BRANCH   6  24
ATOM     24  C   UNL     1      -8.933  -9.902  12.531  0.00  0.00    +0.131 C 
BRANCH  24  27
ATOM     27  C   UNL     1      -9.473 -11.243  12.064  0.00  0.00    +0.178 C 
BRANCH  27   2
ATOM      2  O   UNL     1      -8.470 -11.923  11.319  0.00  0.00    -0.381 OA
ATOM     28  C   UNL     1      -8.217 -11.277  10.079  0.00  0.00    +0.194 C 
ENDBRANCH  27   2
ENDBRANCH  24  27
ENDBRANCH   6  24
ENDBRANCH  15  18
BRANCH  13   8
ATOM      3  N   UNL     1      -2.959 -10.499  13.976  0.00  0.00    -0.287 NA
ATOM      8  C   UNL     1      -3.283 -11.286  15.183  0.00  0.00    +0.146 C 
ATOM      9  C   UNL     1      -2.248 -10.838  16.230  0.00  0.00    +0.030 C 
ATOM     10  C   UNL     1      -1.349  -9.847  15.503  0.00  0.00    +0.017 C 
ATOM     11  C   UNL     1      -1.527 -10.210  14.044  0.00  0.00    +0.085 C 
BRANCH   3  12
ATOM     12  C   UNL     1      -3.323 -11.175  12.736  0.00  0.00    +0.120 C 
BRANCH  12  14
ATOM     14  C   UNL     1      -3.869 -10.213  11.714  0.00  0.00    -0.033 A 
ATOM     16  C   UNL     1      -3.113  -9.889  10.587  0.00  0.00    +0.005 A 
ATOM     17  C   UNL     1      -5.130  -9.645  11.894  0.00  0.00    +0.005 A 
ATOM     19  C   UNL     1      -3.618  -8.999   9.640  0.00  0.00    +0.000 A 
ATOM     20  C   UNL     1      -5.636  -8.756  10.947  0.00  0.00    +0.000 A 
ATOM     21  C   UNL     1      -4.880  -8.432   9.820  0.00  0.00    +0.000 A 
ENDBRANCH  12  14
ENDBRANCH   3  12
ENDBRANCH  13   8
TORSDOF 7
ENDMDL
MODEL 9
REMARK VINA RESULT:      -5.7     26.283     28.836
REMARK  Name = 45783371
REMARK  8 active torsions:
REMARK  status: ('A' for Active; 'I' for Inactive)
REMARK    1  A    between atoms: O_2  and  C_27
REMARK    2  A    between atoms: O_2  and  C_28
REMARK    3  A    between atoms: N_3  and  C_12
REMARK    4  A    between atoms: N_6  and  C_24
REMARK    5  A    between atoms: C_8  and  C_13
REMARK    6  A    between atoms: C_12  and  C_14
REMARK    7  A    between atoms: C_15  and  C_18
REMARK    8  A    between atoms: C_24  and  C_27
REMARK                            x       y       z     vdW  Elec       q    Type
REMARK                         _______ _______ _______ _____ _____    ______ ____
ROOT
ATOM      1  O   UNL     1      -6.879 -12.071  17.294  0.00  0.00    -0.336 OA
ATOM      4  N   UNL     1      -5.889 -10.082  17.008  0.00  0.00    -0.190 NA
ATOM      5  N   UNL     1      -5.743 -12.310  16.509  0.00  0.00    -0.056 NA
ATOM     13  C   UNL     1      -6.890 -10.735  17.541  0.00  0.00    +0.245 A 
ATOM     15  C   UNL     1      -5.213 -11.090  16.385  0.00  0.00    +0.205 A 
ENDROOT
BRANCH  15  18
ATOM      6  N   UNL     1      -5.242 -10.636  13.581  0.00  0.00    -0.326 N 
ATOM      7  N   UNL     1      -2.889 -10.388  13.550  0.00  0.00    -0.240 NA
ATOM     18  C   UNL     1      -4.009 -10.844  15.643  0.00  0.00    +0.062 A 
ATOM     22  C   UNL     1      -4.006 -10.621  14.275  0.00  0.00    +0.130 A 
ATOM     23  C   UNL     1      -2.789 -10.826  16.310  0.00  0.00    +0.016 A 
ATOM     25  C   UNL     1      -1.618 -10.589  15.597  0.00  0.00    +0.020 A 
ATOM     26  C   UNL     1      -1.722 -10.378  14.231  0.00  0.00    +0.113 A 
ATOM     29  H   UNL     1      -6.067 -10.439  14.137  0.00  0.00    +0.148 HD
BRANCH   6  24
ATOM     24  C   UNL     1      -5.337 -10.417  12.175  0.00  0.00    +0.131 C 
BRANCH  24  27
ATOM     27  C   UNL     1      -6.030  -9.093  11.902  0.00  0.00    +0.178 C 
BRANCH  27   2
ATOM      2  O   UNL     1      -5.218  -8.303  11.042  0.00  0.00    -0.381 OA
ATOM     28  C   UNL     1      -4.211  -9.085  10.413  0.00  0.00    +0.194 C 
ENDBRANCH  27   2
ENDBRANCH  24  27
ENDBRANCH   6  24
ENDBRANCH  15  18
BRANCH  13   8
ATOM      3  N   UNL     1      -9.168  -9.733  17.567  0.00  0.00    -0.287 NA
ATOM      8  C   UNL     1      -8.036 -10.215  18.384  0.00  0.00    +0.146 C 
ATOM      9  C   UNL     1      -8.645 -11.299  19.293  0.00  0.00    +0.030 C 
ATOM     10  C   UNL     1     -10.130 -11.311  18.958  0.00  0.00    +0.017 C 
ATOM     11  C   UNL     1     -10.373  -9.936  18.370  0.00  0.00    +0.085 C 
BRANCH   3  12
ATOM     12  C   UNL     1      -9.019  -8.346  17.143  0.00  0.00    +0.120 C 
BRANCH  12  14
ATOM     14  C   UNL     1     -10.162  -7.902  16.269  0.00  0.00    -0.033 A 
ATOM     16  C   UNL     1     -10.410  -8.552  15.060  0.00  0.00    +0.005 A 
ATOM     17  C   UNL     1     -10.972  -6.838  16.668  0.00  0.00    +0.005 A 
ATOM     19  C   UNL     1     -11.468  -8.141  14.250  0.00  0.00    +0.000 A 
ATOM     20  C   UNL     1     -12.031  -6.427  15.859  0.00  0.00    +0.000 A 
ATOM     21  C   UNL     1     -12.279  -7.078  14.650  0.00  0.00    +0.000 A 
ENDBRANCH  12  14
ENDBRANCH   3  12
ENDBRANCH  13   8
TORSDOF 7
ENDMDL
MODEL 10
REMARK VINA RESULT:      -5.6      2.996      5.449
REMARK  Name = 45783371
REMARK  8 active torsions:
REMARK  status: ('A' for Active; 'I' for Inactive)
REMARK    1  A    between atoms: O_2  and  C_27
REMARK    2  A    between atoms: O_2  and  C_28
REMARK    3  A    between atoms: N_3  and  C_12
REMARK    4  A    between atoms: N_6  and  C_24
REMARK    5  A    between atoms: C_8  and  C_13
REMARK    6  A    between atoms: C_12  and  C_14
REMARK    7  A    between atoms: C_15  and  C_18
REMARK    8  A    between atoms: C_24  and  C_27
REMARK                            x       y       z     vdW  Elec       q    Type
REMARK                         _______ _______ _______ _____ _____    ______ ____
ROOT
ATOM      1  O   UNL     1      13.616  10.726  21.021  0.00  0.00    -0.336 OA
ATOM      4  N   UNL     1      14.433  10.156  19.015  0.00  0.00    -0.190 NA
ATOM      5  N   UNL     1      14.566  11.702  20.696  0.00  0.00    -0.056 NA
ATOM     13  C   UNL     1      13.601   9.854  19.979  0.00  0.00    +0.245 A 
ATOM     15  C   UNL     1      15.002  11.297  19.499  0.00  0.00    +0.205 A 
ENDROOT
BRANCH  15  18
ATOM      6  N   UNL     1      14.533  12.273  16.874  0.00  0.00    -0.326 N 
ATOM      7  N   UNL     1      16.722  13.165  16.764  0.00  0.00    -0.240 NA
ATOM     18  C   UNL     1      16.008  12.009  18.763  0.00  0.00    +0.062 A 
ATOM     22  C   UNL     1      15.795  12.492  17.482  0.00  0.00    +0.130 A 
ATOM     23  C   UNL     1      17.250  12.232  19.347  0.00  0.00    +0.016 A 
ATOM     25  C   UNL     1      18.230  12.921  18.640  0.00  0.00    +0.020 A 
ATOM     26  C   UNL     1      17.918  13.363  17.363  0.00  0.00    +0.113 A 
ATOM     29  H   UNL     1      13.755  12.119  17.506  0.00  0.00    +0.148 HD
BRANCH   6  24
ATOM     24  C   UNL     1      14.224  12.732  15.559  0.00  0.00    +0.131 C 
BRANCH  24  27
ATOM     27  C   UNL     1      13.898  11.552  14.660  0.00  0.00    +0.178 C 
BRANCH  27   2
ATOM      2  O   UNL     1      13.902  10.356  15.429  0.00  0.00    -0.381 OA
ATOM     28  C   UNL     1      12.598   9.797  15.528  0.00  0.00    +0.194 C 
ENDBRANCH  27   2
ENDBRANCH  24  27
ENDBRANCH   6  24
ENDBRANCH  15  18
BRANCH  13   8
ATOM      3  N   UNL     1      13.259   7.499  20.707  0.00  0.00    -0.287 NA
ATOM      8  C   UNL     1      12.640   8.688  20.088  0.00  0.00    +0.146 C 
ATOM      9  C   UNL     1      11.424   9.003  20.979  0.00  0.00    +0.030 C 
ATOM     10  C   UNL     1      11.406   7.903  22.031  0.00  0.00    +0.017 C 
ATOM     11  C   UNL     1      12.181   6.775  21.381  0.00  0.00    +0.085 C 
BRANCH   3  12
ATOM     12  C   UNL     1      13.968   6.658  19.750  0.00  0.00    +0.120 C 
BRANCH  12  14
ATOM     14  C   UNL     1      15.444   6.602  20.039  0.00  0.00    -0.033 A 
ATOM     16  C   UNL     1      16.327   6.124  19.071  0.00  0.00    +0.005 A 
ATOM     17  C   UNL     1      15.929   7.026  21.276  0.00  0.00    +0.005 A 
ATOM     19  C   UNL     1      17.695   6.071  19.338  0.00  0.00    +0.000 A 
ATOM     20  C   UNL     1      17.296   6.974  21.544  0.00  0.00    +0.000 A 
ATOM     21  C   UNL     1      18.179   6.496  20.576  0.00  0.00    +0.000 A 
ENDBRANCH  12  14
ENDBRANCH   3  12
ENDBRANCH  13   8
TORSDOF 7
ENDMDL
