MODEL 1
REMARK VINA RESULT:      -7.4      0.000      0.000
REMARK  Name = 45361515
REMARK  10 active torsions:
REMARK  status: ('A' for Active; 'I' for Inactive)
REMARK    1  A    between atoms: O_1  and  C_9
REMARK    2  A    between atoms: N_4  and  C_13
REMARK    3  A    between atoms: N_5  and  C_22
REMARK    4  A    between atoms: C_6  and  C_16
REMARK    5  A    between atoms: C_8  and  C_18
REMARK    6  A    between atoms: C_11  and  C_17
REMARK    7  A    between atoms: C_17  and  C_19
REMARK    8  A    between atoms: C_17  and  C_20
REMARK    9  A    between atoms: C_21  and  C_23
REMARK   10  A    between atoms: C_23  and  C_29
REMARK                            x       y       z     vdW  Elec       q    Type
REMARK                         _______ _______ _______ _____ _____    ______ ____
ROOT
ATOM      6  C   UNL     1      -4.020 -10.468  10.048  0.00  0.00    -0.027 C 
ATOM      7  C   UNL     1      -5.365 -10.194  10.800  0.00  0.00    +0.028 C 
ATOM      8  C   UNL     1      -6.185  -9.060  10.084  0.00  0.00    +0.012 C 
ATOM      9  C   UNL     1      -5.126  -9.985  12.323  0.00  0.00    +0.122 C 
ATOM     10  C   UNL     1      -3.292 -11.662  10.711  0.00  0.00    +0.007 C 
ATOM     11  C   UNL     1      -4.307 -11.132  12.960  0.00  0.00    +0.029 C 
ATOM     12  C   UNL     1      -4.331 -10.861   8.585  0.00  0.00    +0.009 C 
ATOM     13  C   UNL     1      -6.427  -9.433   8.593  0.00  0.00    +0.076 C 
ATOM     14  C   UNL     1      -3.023 -11.444  12.194  0.00  0.00    +0.007 C 
ATOM     15  C   UNL     1      -5.148  -9.811   7.846  0.00  0.00    +0.023 C 
ATOM     16  C   UNL     1      -3.073  -9.241  10.057  0.00  0.00    +0.011 C 
ATOM     18  C   UNL     1      -7.535  -8.759  10.756  0.00  0.00    +0.010 C 
ENDROOT
BRANCH  13   4
ATOM      3  O   UNL     1      -8.696  -9.665   6.838  0.00  0.00    -0.275 OA
ATOM      4  N   UNL     1      -7.079  -8.360   7.873  0.00  0.00    -0.312 N 
ATOM     21  C   UNL     1      -8.172  -8.573   7.048  0.00  0.00    +0.218 C 
ATOM     35  H   UNL     1      -6.669  -7.432   7.937  0.00  0.00    +0.149 HD
BRANCH  21  23
ATOM     23  C   UNL     1      -8.657  -7.279   6.425  0.00  0.00    +0.130 C 
BRANCH  23  29
ATOM     29  C   UNL     1      -9.686  -6.564   7.260  0.00  0.00    -0.039 A 
ATOM     30  C   UNL     1     -11.038  -6.872   7.113  0.00  0.00    +0.004 A 
ATOM     31  C   UNL     1      -9.287  -5.594   8.179  0.00  0.00    +0.004 A 
ATOM     32  C   UNL     1     -11.992  -6.210   7.887  0.00  0.00    +0.000 A 
ATOM     33  C   UNL     1     -10.241  -4.932   8.953  0.00  0.00    +0.000 A 
ATOM     34  C   UNL     1     -11.593  -5.241   8.807  0.00  0.00    +0.000 A 
ENDBRANCH  23  29
ENDBRANCH  21  23
ENDBRANCH  13   4
BRANCH   9   1
ATOM      1  O   UNL     1      -6.383  -9.953  13.002  0.00  0.00    -0.391 OA
ATOM     36  H   UNL     1      -7.086  -9.904  12.334  0.00  0.00    +0.210 HD
ENDBRANCH   9   1
BRANCH  11  17
ATOM     17  C   UNL     1      -3.973 -10.844  14.429  0.00  0.00    +0.077 C 
ATOM     19  C   UNL     1      -2.473 -10.624  14.592  0.00  0.00    +0.017 C 
BRANCH  17  20
ATOM      2  O   UNL     1      -4.124 -13.158  15.129  0.00  0.00    -0.276 OA
ATOM      5  N   UNL     1      -5.323 -11.562  16.309  0.00  0.00    -0.312 N 
ATOM     20  C   UNL     1      -4.464 -11.990  15.307  0.00  0.00    +0.216 C 
ATOM     37  H   UNL     1      -5.534 -10.573  16.396  0.00  0.00    +0.149 HD
BRANCH   5  22
ATOM     22  C   UNL     1      -5.921 -12.465  17.268  0.00  0.00    +0.073 C 
ATOM     24  C   UNL     1      -7.162 -11.840  17.913  0.00  0.00    +0.022 C 
ATOM     25  C   UNL     1      -4.901 -12.898  18.326  0.00  0.00    +0.022 C 
ATOM     26  C   UNL     1      -6.811 -10.715  18.887  0.00  0.00    +0.002 C 
ATOM     27  C   UNL     1      -4.555 -11.771  19.300  0.00  0.00    +0.002 C 
ATOM     28  C   UNL     1      -5.804 -11.173  19.938  0.00  0.00    +0.000 C 
ENDBRANCH   5  22
ENDBRANCH  17  20
ENDBRANCH  11  17
TORSDOF 7
ENDMDL
MODEL 2
REMARK VINA RESULT:      -7.2     19.633     21.184
REMARK  Name = 45361515
REMARK  10 active torsions:
REMARK  status: ('A' for Active; 'I' for Inactive)
REMARK    1  A    between atoms: O_1  and  C_9
REMARK    2  A    between atoms: N_4  and  C_13
REMARK    3  A    between atoms: N_5  and  C_22
REMARK    4  A    between atoms: C_6  and  C_16
REMARK    5  A    between atoms: C_8  and  C_18
REMARK    6  A    between atoms: C_11  and  C_17
REMARK    7  A    between atoms: C_17  and  C_19
REMARK    8  A    between atoms: C_17  and  C_20
REMARK    9  A    between atoms: C_21  and  C_23
REMARK   10  A    between atoms: C_23  and  C_29
REMARK                            x       y       z     vdW  Elec       q    Type
REMARK                         _______ _______ _______ _____ _____    ______ ____
ROOT
ATOM      6  C   UNL     1     -15.961   6.493  21.560  0.00  0.00    -0.027 C 
ATOM      7  C   UNL     1     -14.560   6.164  22.173  0.00  0.00    +0.028 C 
ATOM      8  C   UNL     1     -13.453   6.144  21.059  0.00  0.00    +0.012 C 
ATOM      9  C   UNL     1     -14.624   4.897  23.075  0.00  0.00    +0.122 C 
ATOM     10  C   UNL     1     -17.006   6.616  22.696  0.00  0.00    +0.007 C 
ATOM     11  C   UNL     1     -15.739   4.982  24.142  0.00  0.00    +0.029 C 
ATOM     12  C   UNL     1     -15.888   7.859  20.839  0.00  0.00    +0.009 C 
ATOM     13  C   UNL     1     -13.439   7.496  20.291  0.00  0.00    +0.076 C 
ATOM     14  C   UNL     1     -17.098   5.363  23.556  0.00  0.00    +0.007 C 
ATOM     15  C   UNL     1     -14.812   7.909  19.764  0.00  0.00    +0.023 C 
ATOM     16  C   UNL     1     -16.441   5.413  20.558  0.00  0.00    +0.011 C 
ATOM     18  C   UNL     1     -12.042   5.853  21.598  0.00  0.00    +0.010 C 
ENDROOT
BRANCH  13   4
ATOM      3  O   UNL     1     -11.038   9.060  20.018  0.00  0.00    -0.275 OA
ATOM      4  N   UNL     1     -12.510   7.472  19.181  0.00  0.00    -0.312 N 
ATOM     21  C   UNL     1     -11.375   8.267  19.143  0.00  0.00    +0.218 C 
ATOM     35  H   UNL     1     -12.745   6.891  18.381  0.00  0.00    +0.149 HD
BRANCH  21  23
ATOM     23  C   UNL     1     -10.580   8.036  17.872  0.00  0.00    +0.130 C 
BRANCH  23  29
ATOM     29  C   UNL     1     -10.824   9.083  16.817  0.00  0.00    -0.039 A 
ATOM     30  C   UNL     1     -10.182  10.318  16.900  0.00  0.00    +0.004 A 
ATOM     31  C   UNL     1     -11.691   8.817  15.758  0.00  0.00    +0.004 A 
ATOM     32  C   UNL     1     -10.408  11.288  15.923  0.00  0.00    +0.000 A 
ATOM     33  C   UNL     1     -11.916   9.786  14.781  0.00  0.00    +0.000 A 
ATOM     34  C   UNL     1     -11.274  11.022  14.864  0.00  0.00    +0.000 A 
ENDBRANCH  23  29
ENDBRANCH  21  23
ENDBRANCH  13   4
BRANCH   9   1
ATOM      1  O   UNL     1     -13.390   4.754  23.783  0.00  0.00    -0.391 OA
ATOM     36  H   UNL     1     -13.307   5.501  24.399  0.00  0.00    +0.210 HD
ENDBRANCH   9   1
BRANCH  11  17
ATOM     17  C   UNL     1     -15.870   3.675  24.934  0.00  0.00    +0.077 C 
ATOM     19  C   UNL     1     -16.743   2.685  24.171  0.00  0.00    +0.017 C 
BRANCH  17  20
ATOM      2  O   UNL     1     -17.424   4.672  26.501  0.00  0.00    -0.276 OA
ATOM      5  N   UNL     1     -15.718   3.337  27.329  0.00  0.00    -0.312 N 
ATOM     20  C   UNL     1     -16.437   3.962  26.320  0.00  0.00    +0.216 C 
ATOM     37  H   UNL     1     -14.926   2.751  27.087  0.00  0.00    +0.149 HD
BRANCH   5  22
ATOM     22  C   UNL     1     -16.063   3.460  28.728  0.00  0.00    +0.073 C 
ATOM     24  C   UNL     1     -14.823   3.307  29.616  0.00  0.00    +0.022 C 
ATOM     25  C   UNL     1     -17.153   2.457  29.117  0.00  0.00    +0.022 C 
ATOM     26  C   UNL     1     -14.310   1.868  29.660  0.00  0.00    +0.002 C 
ATOM     27  C   UNL     1     -16.636   1.019  29.163  0.00  0.00    +0.002 C 
ATOM     28  C   UNL     1     -15.410   0.889  30.061  0.00  0.00    +0.000 C 
ENDBRANCH   5  22
ENDBRANCH  17  20
ENDBRANCH  11  17
TORSDOF 7
ENDMDL
MODEL 3
REMARK VINA RESULT:      -7.1     23.761     26.569
REMARK  Name = 45361515
REMARK  10 active torsions:
REMARK  status: ('A' for Active; 'I' for Inactive)
REMARK    1  A    between atoms: O_1  and  C_9
REMARK    2  A    between atoms: N_4  and  C_13
REMARK    3  A    between atoms: N_5  and  C_22
REMARK    4  A    between atoms: C_6  and  C_16
REMARK    5  A    between atoms: C_8  and  C_18
REMARK    6  A    between atoms: C_11  and  C_17
REMARK    7  A    between atoms: C_17  and  C_19
REMARK    8  A    between atoms: C_17  and  C_20
REMARK    9  A    between atoms: C_21  and  C_23
REMARK   10  A    between atoms: C_23  and  C_29
REMARK                            x       y       z     vdW  Elec       q    Type
REMARK                         _______ _______ _______ _____ _____    ______ ____
ROOT
ATOM      6  C   UNL     1       9.676   6.906   6.632  0.00  0.00    -0.027 C 
ATOM      7  C   UNL     1      10.422   7.606   5.449  0.00  0.00    +0.028 C 
ATOM      8  C   UNL     1      11.349   6.587   4.692  0.00  0.00    +0.012 C 
ATOM      9  C   UNL     1      11.115   8.918   5.917  0.00  0.00    +0.122 C 
ATOM     10  C   UNL     1       8.690   7.905   7.284  0.00  0.00    +0.007 C 
ATOM     11  C   UNL     1      10.148   9.869   6.660  0.00  0.00    +0.029 C 
ATOM     12  C   UNL     1       8.848   5.723   6.078  0.00  0.00    +0.009 C 
ATOM     13  C   UNL     1      10.519   5.366   4.204  0.00  0.00    +0.076 C 
ATOM     14  C   UNL     1       9.372   9.175   7.778  0.00  0.00    +0.007 C 
ATOM     15  C   UNL     1       9.690   4.714   5.310  0.00  0.00    +0.023 C 
ATOM     16  C   UNL     1      10.647   6.383   7.722  0.00  0.00    +0.011 C 
ATOM     18  C   UNL     1      12.093   7.204   3.496  0.00  0.00    +0.010 C 
ENDROOT
BRANCH  13   4
ATOM      3  O   UNL     1      10.321   4.325   1.529  0.00  0.00    -0.275 OA
ATOM      4  N   UNL     1      11.360   4.352   3.604  0.00  0.00    -0.312 N 
ATOM     21  C   UNL     1      11.185   3.915   2.300  0.00  0.00    +0.218 C 
ATOM     35  H   UNL     1      12.061   3.911   4.193  0.00  0.00    +0.149 HD
BRANCH  21  23
ATOM     23  C   UNL     1      12.205   2.857   1.929  0.00  0.00    +0.130 C 
BRANCH  23  29
ATOM     29  C   UNL     1      13.273   3.359   0.994  0.00  0.00    -0.039 A 
ATOM     30  C   UNL     1      12.996   3.510  -0.364  0.00  0.00    +0.004 A 
ATOM     31  C   UNL     1      14.539   3.673   1.487  0.00  0.00    +0.004 A 
ATOM     32  C   UNL     1      13.985   3.976  -1.230  0.00  0.00    +0.000 A 
ATOM     33  C   UNL     1      15.529   4.140   0.621  0.00  0.00    +0.000 A 
ATOM     34  C   UNL     1      15.251   4.291  -0.738  0.00  0.00    +0.000 A 
ENDBRANCH  23  29
ENDBRANCH  21  23
ENDBRANCH  13   4
BRANCH   9   1
ATOM      1  O   UNL     1      11.598   9.634   4.778  0.00  0.00    -0.391 OA
ATOM     36  H   UNL     1      11.004   9.450   4.032  0.00  0.00    +0.210 HD
ENDBRANCH   9   1
BRANCH  11  17
ATOM     17  C   UNL     1      10.877  11.094   7.225  0.00  0.00    +0.077 C 
ATOM     19  C   UNL     1      11.750  10.687   8.407  0.00  0.00    +0.017 C 
BRANCH  17  20
ATOM      2  O   UNL     1       9.021  12.603   6.847  0.00  0.00    -0.276 OA
ATOM      5  N   UNL     1      10.008  12.564   8.945  0.00  0.00    -0.312 N 
ATOM     20  C   UNL     1       9.864  12.162   7.625  0.00  0.00    +0.216 C 
ATOM     37  H   UNL     1      10.720  12.131   9.523  0.00  0.00    +0.149 HD
BRANCH   5  22
ATOM     22  C   UNL     1       9.163  13.567   9.554  0.00  0.00    +0.073 C 
ATOM     24  C   UNL     1       9.980  14.506  10.449  0.00  0.00    +0.022 C 
ATOM     25  C   UNL     1       8.012  12.920  10.331  0.00  0.00    +0.022 C 
ATOM     26  C   UNL     1      10.448  13.826  11.736  0.00  0.00    +0.002 C 
ATOM     27  C   UNL     1       8.484  12.243  11.619  0.00  0.00    +0.002 C 
ATOM     28  C   UNL     1       9.284  13.199  12.498  0.00  0.00    +0.000 C 
ENDBRANCH   5  22
ENDBRANCH  17  20
ENDBRANCH  11  17
TORSDOF 7
ENDMDL
MODEL 4
REMARK VINA RESULT:      -7.0     23.700     27.366
REMARK  Name = 45361515
REMARK  10 active torsions:
REMARK  status: ('A' for Active; 'I' for Inactive)
REMARK    1  A    between atoms: O_1  and  C_9
REMARK    2  A    between atoms: N_4  and  C_13
REMARK    3  A    between atoms: N_5  and  C_22
REMARK    4  A    between atoms: C_6  and  C_16
REMARK    5  A    between atoms: C_8  and  C_18
REMARK    6  A    between atoms: C_11  and  C_17
REMARK    7  A    between atoms: C_17  and  C_19
REMARK    8  A    between atoms: C_17  and  C_20
REMARK    9  A    between atoms: C_21  and  C_23
REMARK   10  A    between atoms: C_23  and  C_29
REMARK                            x       y       z     vdW  Elec       q    Type
REMARK                         _______ _______ _______ _____ _____    ______ ____
ROOT
ATOM      6  C   UNL     1      -7.045 -10.772  39.540  0.00  0.00    -0.027 C 
ATOM      7  C   UNL     1      -8.196  -9.893  38.948  0.00  0.00    +0.028 C 
ATOM      8  C   UNL     1      -8.748 -10.518  37.616  0.00  0.00    +0.012 C 
ATOM      9  C   UNL     1      -7.775  -8.398  38.861  0.00  0.00    +0.122 C 
ATOM     10  C   UNL     1      -6.602 -10.192  40.905  0.00  0.00    +0.007 C 
ATOM     11  C   UNL     1      -7.235  -7.852  40.203  0.00  0.00    +0.029 C 
ATOM     12  C   UNL     1      -7.579 -12.202  39.788  0.00  0.00    +0.009 C 
ATOM     13  C   UNL     1      -9.213 -11.982  37.862  0.00  0.00    +0.076 C 
ATOM     14  C   UNL     1      -6.152  -8.740  40.815  0.00  0.00    +0.007 C 
ATOM     15  C   UNL     1      -8.152 -12.851  38.536  0.00  0.00    +0.023 C 
ATOM     16  C   UNL     1      -5.811 -10.843  38.605  0.00  0.00    +0.011 C 
ATOM     18  C   UNL     1      -9.905  -9.717  36.994  0.00  0.00    +0.010 C 
ENDROOT
BRANCH  13   4
ATOM      3  O   UNL     1     -11.375 -13.851  37.530  0.00  0.00    -0.275 OA
ATOM      4  N   UNL     1      -9.620 -12.627  36.632  0.00  0.00    -0.312 N 
ATOM     21  C   UNL     1     -10.681 -13.517  36.574  0.00  0.00    +0.218 C 
ATOM     35  H   UNL     1      -9.058 -12.458  35.802  0.00  0.00    +0.149 HD
BRANCH  21  23
ATOM     23  C   UNL     1     -10.891 -14.038  35.165  0.00  0.00    +0.130 C 
BRANCH  23  29
ATOM     29  C   UNL     1     -12.103 -13.454  34.488  0.00  0.00    -0.039 A 
ATOM     30  C   UNL     1     -12.673 -14.108  33.396  0.00  0.00    +0.004 A 
ATOM     31  C   UNL     1     -12.655 -12.261  34.953  0.00  0.00    +0.004 A 
ATOM     32  C   UNL     1     -13.796 -13.568  32.768  0.00  0.00    +0.000 A 
ATOM     33  C   UNL     1     -13.779 -11.721  34.326  0.00  0.00    +0.000 A 
ATOM     34  C   UNL     1     -14.349 -12.375  33.233  0.00  0.00    +0.000 A 
ENDBRANCH  23  29
ENDBRANCH  21  23
ENDBRANCH  13   4
BRANCH   9   1
ATOM      1  O   UNL     1      -8.913  -7.602  38.523  0.00  0.00    -0.391 OA
ATOM     36  H   UNL     1      -8.880  -6.788  39.054  0.00  0.00    +0.210 HD
ENDBRANCH   9   1
BRANCH  11  17
ATOM     17  C   UNL     1      -6.706  -6.419  40.062  0.00  0.00    +0.077 C 
ATOM     19  C   UNL     1      -5.220  -6.373  40.401  0.00  0.00    +0.017 C 
BRANCH  17  20
ATOM      2  O   UNL     1      -7.185  -5.225  42.115  0.00  0.00    -0.276 OA
ATOM      5  N   UNL     1      -8.624  -4.959  40.315  0.00  0.00    -0.312 N 
ATOM     20  C   UNL     1      -7.509  -5.480  40.956  0.00  0.00    +0.216 C 
ATOM     37  H   UNL     1      -8.805  -5.209  39.349  0.00  0.00    +0.149 HD
BRANCH   5  22
ATOM     22  C   UNL     1      -9.541  -4.045  40.958  0.00  0.00    +0.073 C 
ATOM     24  C   UNL     1     -10.923  -4.095  40.297  0.00  0.00    +0.022 C 
ATOM     25  C   UNL     1      -8.981  -2.619  40.969  0.00  0.00    +0.022 C 
ATOM     26  C   UNL     1     -10.931  -3.450  38.911  0.00  0.00    +0.002 C 
ATOM     27  C   UNL     1      -8.994  -1.976  39.582  0.00  0.00    +0.002 C 
ATOM     28  C   UNL     1     -10.381  -2.027  38.949  0.00  0.00    +0.000 C 
ENDBRANCH   5  22
ENDBRANCH  17  20
ENDBRANCH  11  17
TORSDOF 7
ENDMDL
MODEL 5
REMARK VINA RESULT:      -7.0      4.195      8.887
REMARK  Name = 45361515
REMARK  10 active torsions:
REMARK  status: ('A' for Active; 'I' for Inactive)
REMARK    1  A    between atoms: O_1  and  C_9
REMARK    2  A    between atoms: N_4  and  C_13
REMARK    3  A    between atoms: N_5  and  C_22
REMARK    4  A    between atoms: C_6  and  C_16
REMARK    5  A    between atoms: C_8  and  C_18
REMARK    6  A    between atoms: C_11  and  C_17
REMARK    7  A    between atoms: C_17  and  C_19
REMARK    8  A    between atoms: C_17  and  C_20
REMARK    9  A    between atoms: C_21  and  C_23
REMARK   10  A    between atoms: C_23  and  C_29
REMARK                            x       y       z     vdW  Elec       q    Type
REMARK                         _______ _______ _______ _____ _____    ______ ____
ROOT
ATOM      6  C   UNL     1      -6.735 -11.587  18.774  0.00  0.00    -0.027 C 
ATOM      7  C   UNL     1      -7.301 -11.045  17.420  0.00  0.00    +0.028 C 
ATOM      8  C   UNL     1      -6.149 -10.449  16.531  0.00  0.00    +0.012 C 
ATOM      9  C   UNL     1      -8.518 -10.104  17.654  0.00  0.00    +0.122 C 
ATOM     10  C   UNL     1      -7.873 -12.266  19.574  0.00  0.00    +0.007 C 
ATOM     11  C   UNL     1      -9.607 -10.751  18.542  0.00  0.00    +0.029 C 
ATOM     12  C   UNL     1      -5.662 -12.661  18.479  0.00  0.00    +0.009 C 
ATOM     13  C   UNL     1      -5.041 -11.516  16.303  0.00  0.00    +0.076 C 
ATOM     14  C   UNL     1      -9.049 -11.336  19.838  0.00  0.00    +0.007 C 
ATOM     15  C   UNL     1      -4.532 -12.149  17.598  0.00  0.00    +0.023 C 
ATOM     16  C   UNL     1      -6.111 -10.470  19.648  0.00  0.00    +0.011 C 
ATOM     18  C   UNL     1      -6.633  -9.923  15.170  0.00  0.00    +0.010 C 
ENDROOT
BRANCH  13   4
ATOM      3  O   UNL     1      -3.356 -12.898  14.423  0.00  0.00    -0.275 OA
ATOM      4  N   UNL     1      -3.909 -10.967  15.586  0.00  0.00    -0.312 N 
ATOM     21  C   UNL     1      -3.157 -11.717  14.696  0.00  0.00    +0.218 C 
ATOM     35  H   UNL     1      -3.632 -10.013  15.801  0.00  0.00    +0.149 HD
BRANCH  21  23
ATOM     23  C   UNL     1      -2.040 -10.894  14.084  0.00  0.00    +0.130 C 
BRANCH  23  29
ATOM     29  C   UNL     1      -2.403 -10.293  12.752  0.00  0.00    -0.039 A 
ATOM     30  C   UNL     1      -3.731 -10.298  12.324  0.00  0.00    +0.004 A 
ATOM     31  C   UNL     1      -1.413  -9.731  11.947  0.00  0.00    +0.004 A 
ATOM     32  C   UNL     1      -4.068  -9.741  11.091  0.00  0.00    +0.000 A 
ATOM     33  C   UNL     1      -1.750  -9.173  10.714  0.00  0.00    +0.000 A 
ATOM     34  C   UNL     1      -3.078  -9.178  10.285  0.00  0.00    +0.000 A 
ENDBRANCH  23  29
ENDBRANCH  21  23
ENDBRANCH  13   4
BRANCH   9   1
ATOM      1  O   UNL     1      -9.136  -9.805  16.401  0.00  0.00    -0.391 OA
ATOM     36  H   UNL     1      -9.935  -9.280  16.576  0.00  0.00    +0.210 HD
ENDBRANCH   9   1
BRANCH  11  17
ATOM     17  C   UNL     1     -10.736  -9.764  18.867  0.00  0.00    +0.077 C 
ATOM     19  C   UNL     1     -11.167  -9.922  20.321  0.00  0.00    +0.017 C 
BRANCH  17  20
ATOM      2  O   UNL     1     -12.709 -10.902  18.045  0.00  0.00    -0.276 OA
ATOM      5  N   UNL     1     -11.950  -9.033  16.901  0.00  0.00    -0.312 N 
ATOM     20  C   UNL     1     -11.905  -9.981  17.913  0.00  0.00    +0.216 C 
ATOM     37  H   UNL     1     -11.255  -8.294  16.880  0.00  0.00    +0.149 HD
BRANCH   5  22
ATOM     22  C   UNL     1     -12.968  -9.031  15.874  0.00  0.00    +0.073 C 
ATOM     24  C   UNL     1     -12.346  -9.191  14.482  0.00  0.00    +0.022 C 
ATOM     25  C   UNL     1     -13.831  -7.768  15.956  0.00  0.00    +0.022 C 
ATOM     26  C   UNL     1     -11.599  -7.937  14.029  0.00  0.00    +0.002 C 
ATOM     27  C   UNL     1     -13.080  -6.516  15.500  0.00  0.00    +0.002 C 
ATOM     28  C   UNL     1     -12.481  -6.695  14.108  0.00  0.00    +0.000 C 
ENDBRANCH   5  22
ENDBRANCH  17  20
ENDBRANCH  11  17
TORSDOF 7
ENDMDL
MODEL 6
REMARK VINA RESULT:      -6.8     23.227     26.422
REMARK  Name = 45361515
REMARK  10 active torsions:
REMARK  status: ('A' for Active; 'I' for Inactive)
REMARK    1  A    between atoms: O_1  and  C_9
REMARK    2  A    between atoms: N_4  and  C_13
REMARK    3  A    between atoms: N_5  and  C_22
REMARK    4  A    between atoms: C_6  and  C_16
REMARK    5  A    between atoms: C_8  and  C_18
REMARK    6  A    between atoms: C_11  and  C_17
REMARK    7  A    between atoms: C_17  and  C_19
REMARK    8  A    between atoms: C_17  and  C_20
REMARK    9  A    between atoms: C_21  and  C_23
REMARK   10  A    between atoms: C_23  and  C_29
REMARK                            x       y       z     vdW  Elec       q    Type
REMARK                         _______ _______ _______ _____ _____    ______ ____
ROOT
ATOM      6  C   UNL     1       9.784   6.428   6.477  0.00  0.00    -0.027 C 
ATOM      7  C   UNL     1      10.152   7.327   5.250  0.00  0.00    +0.028 C 
ATOM      8  C   UNL     1      11.224   6.623   4.343  0.00  0.00    +0.012 C 
ATOM      9  C   UNL     1      10.502   8.775   5.698  0.00  0.00    +0.122 C 
ATOM     10  C   UNL     1       8.648   7.098   7.286  0.00  0.00    +0.007 C 
ATOM     11  C   UNL     1       9.409   9.403   6.593  0.00  0.00    +0.029 C 
ATOM     12  C   UNL     1       9.258   5.067   5.966  0.00  0.00    +0.009 C 
ATOM     13  C   UNL     1      10.715   5.223   3.896  0.00  0.00    +0.076 C 
ATOM     14  C   UNL     1       9.003   8.502   7.759  0.00  0.00    +0.007 C 
ATOM     15  C   UNL     1      10.245   4.348   5.058  0.00  0.00    +0.023 C 
ATOM     16  C   UNL     1      10.990   6.187   7.420  0.00  0.00    +0.011 C 
ATOM     18  C   UNL     1      11.611   7.441   3.100  0.00  0.00    +0.010 C 
ENDROOT
BRANCH  13   4
ATOM      3  O   UNL     1      10.412   4.016   1.302  0.00  0.00    -0.275 OA
ATOM      4  N   UNL     1      11.724   4.498   3.155  0.00  0.00    -0.312 N 
ATOM     21  C   UNL     1      11.480   3.951   1.904  0.00  0.00    +0.218 C 
ATOM     35  H   UNL     1      12.620   4.339   3.608  0.00  0.00    +0.149 HD
BRANCH  21  23
ATOM     23  C   UNL     1      12.710   3.253   1.356  0.00  0.00    +0.130 C 
BRANCH  23  29
ATOM     29  C   UNL     1      13.053   3.668  -0.051  0.00  0.00    -0.039 A 
ATOM     30  C   UNL     1      13.829   4.806  -0.272  0.00  0.00    +0.004 A 
ATOM     31  C   UNL     1      12.595   2.914  -1.131  0.00  0.00    +0.004 A 
ATOM     32  C   UNL     1      14.148   5.190  -1.574  0.00  0.00    +0.000 A 
ATOM     33  C   UNL     1      12.915   3.298  -2.434  0.00  0.00    +0.000 A 
ATOM     34  C   UNL     1      13.691   4.436  -2.655  0.00  0.00    +0.000 A 
ENDBRANCH  23  29
ENDBRANCH  21  23
ENDBRANCH  13   4
BRANCH   9   1
ATOM      1  O   UNL     1      10.620   9.614   4.547  0.00  0.00    -0.391 OA
ATOM     36  H   UNL     1      11.323   9.254   3.982  0.00  0.00    +0.210 HD
ENDBRANCH   9   1
BRANCH  11  17
ATOM     17  C   UNL     1       9.830  10.777   7.128  0.00  0.00    +0.077 C 
ATOM     19  C   UNL     1       9.700  10.811   8.647  0.00  0.00    +0.017 C 
BRANCH  17  20
ATOM      2  O   UNL     1       9.018  13.041   6.844  0.00  0.00    -0.276 OA
ATOM      5  N   UNL     1       8.209  11.387   5.434  0.00  0.00    -0.312 N 
ATOM     20  C   UNL     1       8.990  11.869   6.474  0.00  0.00    +0.216 C 
ATOM     37  H   UNL     1       8.264  10.405   5.183  0.00  0.00    +0.149 HD
BRANCH   5  22
ATOM     22  C   UNL     1       7.326  12.232   4.661  0.00  0.00    +0.073 C 
ATOM     24  C   UNL     1       5.889  11.702   4.692  0.00  0.00    +0.022 C 
ATOM     25  C   UNL     1       7.831  12.386   3.223  0.00  0.00    +0.022 C 
ATOM     26  C   UNL     1       5.719  10.425   3.869  0.00  0.00    +0.002 C 
ATOM     27  C   UNL     1       7.656  11.108   2.402  0.00  0.00    +0.002 C 
ATOM     28  C   UNL     1       6.217  10.606   2.439  0.00  0.00    +0.000 C 
ENDBRANCH   5  22
ENDBRANCH  17  20
ENDBRANCH  11  17
TORSDOF 7
ENDMDL
MODEL 7
REMARK VINA RESULT:      -6.8     25.469     28.855
REMARK  Name = 45361515
REMARK  10 active torsions:
REMARK  status: ('A' for Active; 'I' for Inactive)
REMARK    1  A    between atoms: O_1  and  C_9
REMARK    2  A    between atoms: N_4  and  C_13
REMARK    3  A    between atoms: N_5  and  C_22
REMARK    4  A    between atoms: C_6  and  C_16
REMARK    5  A    between atoms: C_8  and  C_18
REMARK    6  A    between atoms: C_11  and  C_17
REMARK    7  A    between atoms: C_17  and  C_19
REMARK    8  A    between atoms: C_17  and  C_20
REMARK    9  A    between atoms: C_21  and  C_23
REMARK   10  A    between atoms: C_23  and  C_29
REMARK                            x       y       z     vdW  Elec       q    Type
REMARK                         _______ _______ _______ _____ _____    ______ ____
ROOT
ATOM      6  C   UNL     1      16.071  -4.601  31.032  0.00  0.00    -0.027 C 
ATOM      7  C   UNL     1      15.088  -5.399  30.112  0.00  0.00    +0.028 C 
ATOM      8  C   UNL     1      14.034  -6.186  30.970  0.00  0.00    +0.012 C 
ATOM      9  C   UNL     1      15.864  -6.247  29.062  0.00  0.00    +0.122 C 
ATOM     10  C   UNL     1      17.023  -3.750  30.157  0.00  0.00    +0.007 C 
ATOM     11  C   UNL     1      16.889  -5.411  28.261  0.00  0.00    +0.029 C 
ATOM     12  C   UNL     1      15.256  -3.631  31.919  0.00  0.00    +0.009 C 
ATOM     13  C   UNL     1      13.272  -5.211  31.912  0.00  0.00    +0.076 C 
ATOM     14  C   UNL     1      17.811  -4.583  29.155  0.00  0.00    +0.007 C 
ATOM     15  C   UNL     1      14.197  -4.335  32.756  0.00  0.00    +0.023 C 
ATOM     16  C   UNL     1      16.922  -5.527  31.937  0.00  0.00    +0.011 C 
ATOM     18  C   UNL     1      13.017  -6.972  30.125  0.00  0.00    +0.010 C 
ENDROOT
BRANCH  13   4
ATOM      3  O   UNL     1      10.700  -4.309  32.836  0.00  0.00    -0.275 OA
ATOM      4  N   UNL     1      12.374  -5.918  32.800  0.00  0.00    -0.312 N 
ATOM     21  C   UNL     1      11.149  -5.397  33.189  0.00  0.00    +0.218 C 
ATOM     35  H   UNL     1      12.694  -6.798  33.193  0.00  0.00    +0.149 HD
BRANCH  21  23
ATOM     23  C   UNL     1      10.412  -6.346  34.114  0.00  0.00    +0.130 C 
BRANCH  23  29
ATOM     29  C   UNL     1       9.198  -6.973  33.482  0.00  0.00    -0.039 A 
ATOM     30  C   UNL     1       9.339  -8.093  32.663  0.00  0.00    +0.004 A 
ATOM     31  C   UNL     1       7.933  -6.434  33.716  0.00  0.00    +0.004 A 
ATOM     32  C   UNL     1       8.214  -8.675  32.078  0.00  0.00    +0.000 A 
ATOM     33  C   UNL     1       6.808  -7.016  33.130  0.00  0.00    +0.000 A 
ATOM     34  C   UNL     1       6.949  -8.137  32.311  0.00  0.00    +0.000 A 
ENDBRANCH  23  29
ENDBRANCH  21  23
ENDBRANCH  13   4
BRANCH   9   1
ATOM      1  O   UNL     1      14.943  -6.785  28.112  0.00  0.00    -0.391 OA
ATOM     36  H   UNL     1      15.335  -6.696  27.227  0.00  0.00    +0.210 HD
ENDBRANCH   9   1
BRANCH  11  17
ATOM     17  C   UNL     1      17.731  -6.288  27.326  0.00  0.00    +0.077 C 
ATOM     19  C   UNL     1      19.215  -6.089  27.615  0.00  0.00    +0.017 C 
BRANCH  17  20
ATOM      2  O   UNL     1      17.128  -6.828  25.043  0.00  0.00    -0.276 OA
ATOM      5  N   UNL     1      17.442  -4.602  25.609  0.00  0.00    -0.312 N 
ATOM     20  C   UNL     1      17.400  -5.963  25.873  0.00  0.00    +0.216 C 
ATOM     37  H   UNL     1      17.657  -3.955  26.361  0.00  0.00    +0.149 HD
BRANCH   5  22
ATOM     22  C   UNL     1      17.166  -4.048  24.302  0.00  0.00    +0.073 C 
ATOM     24  C   UNL     1      18.455  -3.577  23.620  0.00  0.00    +0.022 C 
ATOM     25  C   UNL     1      16.137  -2.915  24.390  0.00  0.00    +0.022 C 
ATOM     26  C   UNL     1      19.026  -2.311  24.260  0.00  0.00    +0.002 C 
ATOM     27  C   UNL     1      16.713  -1.650  25.028  0.00  0.00    +0.002 C 
ATOM     28  C   UNL     1      17.988  -1.195  24.325  0.00  0.00    +0.000 C 
ENDBRANCH   5  22
ENDBRANCH  17  20
ENDBRANCH  11  17
TORSDOF 7
ENDMDL
MODEL 8
REMARK VINA RESULT:      -6.8      3.653      8.558
REMARK  Name = 45361515
REMARK  10 active torsions:
REMARK  status: ('A' for Active; 'I' for Inactive)
REMARK    1  A    between atoms: O_1  and  C_9
REMARK    2  A    between atoms: N_4  and  C_13
REMARK    3  A    between atoms: N_5  and  C_22
REMARK    4  A    between atoms: C_6  and  C_16
REMARK    5  A    between atoms: C_8  and  C_18
REMARK    6  A    between atoms: C_11  and  C_17
REMARK    7  A    between atoms: C_17  and  C_19
REMARK    8  A    between atoms: C_17  and  C_20
REMARK    9  A    between atoms: C_21  and  C_23
REMARK   10  A    between atoms: C_23  and  C_29
REMARK                            x       y       z     vdW  Elec       q    Type
REMARK                         _______ _______ _______ _____ _____    ______ ____
ROOT
ATOM      6  C   UNL     1      -5.408 -10.779  16.551  0.00  0.00    -0.027 C 
ATOM      7  C   UNL     1      -6.006 -10.285  15.193  0.00  0.00    +0.028 C 
ATOM      8  C   UNL     1      -7.575 -10.379  15.205  0.00  0.00    +0.012 C 
ATOM      9  C   UNL     1      -5.305 -10.973  13.986  0.00  0.00    +0.122 C 
ATOM     10  C   UNL     1      -3.875 -10.569  16.548  0.00  0.00    +0.007 C 
ATOM     11  C   UNL     1      -3.765 -10.849  14.042  0.00  0.00    +0.029 C 
ATOM     12  C   UNL     1      -5.997  -9.928  17.701  0.00  0.00    +0.009 C 
ATOM     13  C   UNL     1      -8.151  -9.581  16.409  0.00  0.00    +0.076 C 
ATOM     14  C   UNL     1      -3.182 -11.273  15.389  0.00  0.00    +0.007 C 
ATOM     15  C   UNL     1      -7.518  -9.959  17.748  0.00  0.00    +0.023 C 
ATOM     16  C   UNL     1      -5.704 -12.276  16.822  0.00  0.00    +0.011 C 
ATOM     18  C   UNL     1      -8.231  -9.881  13.907  0.00  0.00    +0.010 C 
ENDROOT
BRANCH  13   4
ATOM      3  O   UNL     1     -10.067  -7.537  17.068  0.00  0.00    -0.275 OA
ATOM      4  N   UNL     1      -9.586  -9.741  16.520  0.00  0.00    -0.312 N 
ATOM     21  C   UNL     1     -10.429  -8.689  16.843  0.00  0.00    +0.218 C 
ATOM     35  H   UNL     1      -9.966 -10.677  16.414  0.00  0.00    +0.149 HD
BRANCH  21  23
ATOM     23  C   UNL     1     -11.878  -9.134  16.885  0.00  0.00    +0.130 C 
BRANCH  23  29
ATOM     29  C   UNL     1     -12.357  -9.479  18.270  0.00  0.00    -0.039 A 
ATOM     30  C   UNL     1     -13.721  -9.457  18.560  0.00  0.00    +0.004 A 
ATOM     31  C   UNL     1     -11.438  -9.820  19.261  0.00  0.00    +0.004 A 
ATOM     32  C   UNL     1     -14.166  -9.777  19.843  0.00  0.00    +0.000 A 
ATOM     33  C   UNL     1     -11.882 -10.141  20.544  0.00  0.00    +0.000 A 
ATOM     34  C   UNL     1     -13.247 -10.119  20.835  0.00  0.00    +0.000 A 
ENDBRANCH  23  29
ENDBRANCH  21  23
ENDBRANCH  13   4
BRANCH   9   1
ATOM      1  O   UNL     1      -5.722 -10.345  12.772  0.00  0.00    -0.391 OA
ATOM     36  H   UNL     1      -5.533 -10.952  12.037  0.00  0.00    +0.210 HD
ENDBRANCH   9   1
BRANCH  11  17
ATOM     17  C   UNL     1      -3.089 -11.642  12.917  0.00  0.00    +0.077 C 
ATOM     19  C   UNL     1      -1.813 -12.299  13.432  0.00  0.00    +0.017 C 
BRANCH  17  20
ATOM      2  O   UNL     1      -1.788 -10.031  11.659  0.00  0.00    -0.276 OA
ATOM      5  N   UNL     1      -3.803 -10.762  10.775  0.00  0.00    -0.312 N 
ATOM     20  C   UNL     1      -2.802 -10.722  11.734  0.00  0.00    +0.216 C 
ATOM     37  H   UNL     1      -4.598 -11.378  10.909  0.00  0.00    +0.149 HD
BRANCH   5  22
ATOM     22  C   UNL     1      -3.757  -9.975   9.562  0.00  0.00    +0.073 C 
ATOM     24  C   UNL     1      -4.324  -8.570   9.795  0.00  0.00    +0.022 C 
ATOM     25  C   UNL     1      -4.487 -10.686   8.417  0.00  0.00    +0.022 C 
ATOM     26  C   UNL     1      -5.841  -8.574   9.977  0.00  0.00    +0.002 C 
ATOM     27  C   UNL     1      -6.005 -10.685   8.601  0.00  0.00    +0.002 C 
ATOM     28  C   UNL     1      -6.545  -9.276   8.819  0.00  0.00    +0.000 C 
ENDBRANCH   5  22
ENDBRANCH  17  20
ENDBRANCH  11  17
TORSDOF 7
ENDMDL
MODEL 9
REMARK VINA RESULT:      -6.7     23.556     27.172
REMARK  Name = 45361515
REMARK  10 active torsions:
REMARK  status: ('A' for Active; 'I' for Inactive)
REMARK    1  A    between atoms: O_1  and  C_9
REMARK    2  A    between atoms: N_4  and  C_13
REMARK    3  A    between atoms: N_5  and  C_22
REMARK    4  A    between atoms: C_6  and  C_16
REMARK    5  A    between atoms: C_8  and  C_18
REMARK    6  A    between atoms: C_11  and  C_17
REMARK    7  A    between atoms: C_17  and  C_19
REMARK    8  A    between atoms: C_17  and  C_20
REMARK    9  A    between atoms: C_21  and  C_23
REMARK   10  A    between atoms: C_23  and  C_29
REMARK                            x       y       z     vdW  Elec       q    Type
REMARK                         _______ _______ _______ _____ _____    ______ ____
ROOT
ATOM      6  C   UNL     1      13.909   5.102   0.596  0.00  0.00    -0.027 C 
ATOM      7  C   UNL     1      12.384   5.247   0.916  0.00  0.00    +0.028 C 
ATOM      8  C   UNL     1      12.145   5.349   2.465  0.00  0.00    +0.012 C 
ATOM      9  C   UNL     1      11.550   4.158   0.181  0.00  0.00    +0.122 C 
ATOM     10  C   UNL     1      14.120   5.117  -0.937  0.00  0.00    +0.007 C 
ATOM     11  C   UNL     1      11.841   4.108  -1.337  0.00  0.00    +0.029 C 
ATOM     12  C   UNL     1      14.665   6.315   1.186  0.00  0.00    +0.009 C 
ATOM     13  C   UNL     1      12.969   6.526   3.060  0.00  0.00    +0.076 C 
ATOM     14  C   UNL     1      13.334   4.028  -1.655  0.00  0.00    +0.007 C 
ATOM     15  C   UNL     1      14.450   6.482   2.684  0.00  0.00    +0.023 C 
ATOM     16  C   UNL     1      14.516   3.796   1.168  0.00  0.00    +0.011 C 
ATOM     18  C   UNL     1      10.666   5.522   2.849  0.00  0.00    +0.010 C 
ENDROOT
BRANCH  13   4
ATOM      3  O   UNL     1      12.911   8.891   4.699  0.00  0.00    -0.275 OA
ATOM      4  N   UNL     1      12.864   6.578   4.502  0.00  0.00    -0.312 N 
ATOM     21  C   UNL     1      12.843   7.774   5.204  0.00  0.00    +0.218 C 
ATOM     35  H   UNL     1      12.868   5.697   5.008  0.00  0.00    +0.149 HD
BRANCH  21  23
ATOM     23  C   UNL     1      12.720   7.537   6.697  0.00  0.00    +0.130 C 
BRANCH  23  29
ATOM     29  C   UNL     1      11.300   7.332   7.154  0.00  0.00    -0.039 A 
ATOM     30  C   UNL     1      10.370   8.363   7.022  0.00  0.00    +0.004 A 
ATOM     31  C   UNL     1      10.915   6.112   7.708  0.00  0.00    +0.004 A 
ATOM     32  C   UNL     1       9.055   8.174   7.445  0.00  0.00    +0.000 A 
ATOM     33  C   UNL     1       9.598   5.922   8.131  0.00  0.00    +0.000 A 
ATOM     34  C   UNL     1       8.668   6.954   7.999  0.00  0.00    +0.000 A 
ENDBRANCH  23  29
ENDBRANCH  21  23
ENDBRANCH  13   4
BRANCH   9   1
ATOM      1  O   UNL     1      10.158   4.451   0.320  0.00  0.00    -0.391 OA
ATOM     36  H   UNL     1       9.972   4.592   1.264  0.00  0.00    +0.210 HD
ENDBRANCH   9   1
BRANCH  11  17
ATOM     17  C   UNL     1      11.108   2.947  -2.019  0.00  0.00    +0.077 C 
ATOM     19  C   UNL     1      12.099   2.079  -2.787  0.00  0.00    +0.017 C 
BRANCH  17  20
ATOM      2  O   UNL     1       9.249   2.761  -3.562  0.00  0.00    -0.276 OA
ATOM      5  N   UNL     1      10.001   4.876  -2.981  0.00  0.00    -0.312 N 
ATOM     20  C   UNL     1      10.018   3.490  -2.938  0.00  0.00    +0.216 C 
ATOM     37  H   UNL     1      10.661   5.401  -2.417  0.00  0.00    +0.149 HD
BRANCH   5  22
ATOM     22  C   UNL     1       9.058   5.624  -3.784  0.00  0.00    +0.073 C 
ATOM     24  C   UNL     1       9.765   6.721  -4.585  0.00  0.00    +0.022 C 
ATOM     25  C   UNL     1       7.936   6.204  -2.917  0.00  0.00    +0.022 C 
ATOM     26  C   UNL     1      10.240   7.876  -3.703  0.00  0.00    +0.002 C 
ATOM     27  C   UNL     1       8.414   7.360  -2.038  0.00  0.00    +0.002 C 
ATOM     28  C   UNL     1       9.103   8.444  -2.859  0.00  0.00    +0.000 C 
ENDBRANCH   5  22
ENDBRANCH  17  20
ENDBRANCH  11  17
TORSDOF 7
ENDMDL
MODEL 10
REMARK VINA RESULT:      -6.7     18.146     22.068
REMARK  Name = 45361515
REMARK  10 active torsions:
REMARK  status: ('A' for Active; 'I' for Inactive)
REMARK    1  A    between atoms: O_1  and  C_9
REMARK    2  A    between atoms: N_4  and  C_13
REMARK    3  A    between atoms: N_5  and  C_22
REMARK    4  A    between atoms: C_6  and  C_16
REMARK    5  A    between atoms: C_8  and  C_18
REMARK    6  A    between atoms: C_11  and  C_17
REMARK    7  A    between atoms: C_17  and  C_19
REMARK    8  A    between atoms: C_17  and  C_20
REMARK    9  A    between atoms: C_21  and  C_23
REMARK   10  A    between atoms: C_23  and  C_29
REMARK                            x       y       z     vdW  Elec       q    Type
REMARK                         _______ _______ _______ _____ _____    ______ ____
ROOT
ATOM      6  C   UNL     1      -2.664  10.040   5.082  0.00  0.00    -0.027 C 
ATOM      7  C   UNL     1      -3.844   9.940   4.059  0.00  0.00    +0.028 C 
ATOM      8  C   UNL     1      -3.415  10.500   2.655  0.00  0.00    +0.012 C 
ATOM      9  C   UNL     1      -5.152  10.542   4.648  0.00  0.00    +0.122 C 
ATOM     10  C   UNL     1      -3.081   9.380   6.418  0.00  0.00    +0.007 C 
ATOM     11  C   UNL     1      -5.508   9.953   6.032  0.00  0.00    +0.029 C 
ATOM     12  C   UNL     1      -1.450   9.258   4.530  0.00  0.00    +0.009 C 
ATOM     13  C   UNL     1      -2.149   9.755   2.144  0.00  0.00    +0.076 C 
ATOM     14  C   UNL     1      -4.340   9.993   7.016  0.00  0.00    +0.007 C 
ATOM     15  C   UNL     1      -1.004   9.738   3.156  0.00  0.00    +0.023 C 
ATOM     16  C   UNL     1      -2.242  11.505   5.362  0.00  0.00    +0.011 C 
ATOM     18  C   UNL     1      -4.522  10.405   1.591  0.00  0.00    +0.010 C 
ENDROOT
BRANCH  13   4
ATOM      3  O   UNL     1      -1.556   8.336  -0.289  0.00  0.00    -0.275 OA
ATOM      4  N   UNL     1      -1.657  10.324   0.906  0.00  0.00    -0.312 N 
ATOM     21  C   UNL     1      -1.402   9.553  -0.217  0.00  0.00    +0.218 C 
ATOM     35  H   UNL     1      -1.439  11.316   0.897  0.00  0.00    +0.149 HD
BRANCH  21  23
ATOM     23  C   UNL     1      -0.903  10.402  -1.370  0.00  0.00    +0.130 C 
BRANCH  23  29
ATOM     29  C   UNL     1      -1.961  10.686  -2.403  0.00  0.00    -0.039 A 
ATOM     30  C   UNL     1      -1.601  11.219  -3.641  0.00  0.00    +0.004 A 
ATOM     31  C   UNL     1      -3.300  10.415  -2.123  0.00  0.00    +0.004 A 
ATOM     32  C   UNL     1      -2.580  11.482  -4.598  0.00  0.00    +0.000 A 
ATOM     33  C   UNL     1      -4.280  10.678  -3.081  0.00  0.00    +0.000 A 
ATOM     34  C   UNL     1      -3.919  11.211  -4.319  0.00  0.00    +0.000 A 
ENDBRANCH  23  29
ENDBRANCH  21  23
ENDBRANCH  13   4
BRANCH   9   1
ATOM      1  O   UNL     1      -6.247  10.241   3.781  0.00  0.00    -0.391 OA
ATOM     36  H   UNL     1      -5.997  10.498   2.878  0.00  0.00    +0.210 HD
ENDBRANCH   9   1
BRANCH  11  17
ATOM     17  C   UNL     1      -6.726  10.651   6.652  0.00  0.00    +0.077 C 
ATOM     19  C   UNL     1      -6.315  11.398   7.916  0.00  0.00    +0.017 C 
BRANCH  17  20
ATOM      2  O   UNL     1      -8.354   9.520   8.043  0.00  0.00    -0.276 OA
ATOM      5  N   UNL     1      -8.127   8.850   5.834  0.00  0.00    -0.312 N 
ATOM     20  C   UNL     1      -7.819   9.627   6.942  0.00  0.00    +0.216 C 
ATOM     37  H   UNL     1      -7.648   9.021   4.956  0.00  0.00    +0.149 HD
BRANCH   5  22
ATOM     22  C   UNL     1      -9.132   7.810   5.862  0.00  0.00    +0.073 C 
ATOM     24  C   UNL     1      -8.539   6.486   6.356  0.00  0.00    +0.022 C 
ATOM     25  C   UNL     1      -9.793   7.646   4.490  0.00  0.00    +0.022 C 
ATOM     26  C   UNL     1      -7.610   5.842   5.327  0.00  0.00    +0.002 C 
ATOM     27  C   UNL     1      -8.861   7.000   3.465  0.00  0.00    +0.002 C 
ATOM     28  C   UNL     1      -8.294   5.678   3.974  0.00  0.00    +0.000 C 
ENDBRANCH   5  22
ENDBRANCH  17  20
ENDBRANCH  11  17
TORSDOF 7
ENDMDL
