MODEL 1
REMARK VINA RESULT:      -6.5      0.000      0.000
REMARK  Name = 11882070
REMARK  10 active torsions:
REMARK  status: ('A' for Active; 'I' for Inactive)
REMARK    1  A    between atoms: S_2  and  C_35
REMARK    2  A    between atoms: S_2  and  C_38
REMARK    3  A    between atoms: N_8  and  C_14
REMARK    4  A    between atoms: N_9  and  C_20
REMARK    5  A    between atoms: N_10  and  C_27
REMARK    6  A    between atoms: C_15  and  C_18
REMARK    7  A    between atoms: C_19  and  C_22
REMARK    8  A    between atoms: C_20  and  C_23
REMARK    9  A    between atoms: C_20  and  C_24
REMARK   10  A    between atoms: C_23  and  C_26
REMARK                            x       y       z     vdW  Elec       q    Type
REMARK                         _______ _______ _______ _____ _____    ______ ____
ROOT
ATOM      4  O   UNL     1      15.466  -5.697  -3.602  0.00  0.00    -0.268 OA
ATOM      7  N   UNL     1      16.724  -7.625  -3.956  0.00  0.00    -0.283 N 
ATOM     14  C   UNL     1      18.010  -9.022  -2.536  0.00  0.00    +0.105 C 
ATOM     15  C   UNL     1      17.413  -7.621  -2.670  0.00  0.00    +0.182 C 
ATOM     16  C   UNL     1      18.223  -9.459  -3.987  0.00  0.00    +0.043 C 
ATOM     17  C   UNL     1      17.060  -8.818  -4.734  0.00  0.00    +0.111 C 
ATOM     19  C   UNL     1      15.740  -6.695  -4.264  0.00  0.00    +0.267 C 
ENDROOT
BRANCH  14   8
ATOM      5  O   UNL     1      18.678 -10.927  -0.504  0.00  0.00    -0.252 OA
ATOM      8  N   UNL     1      17.100  -9.914  -1.856  0.00  0.00    -0.294 N 
ATOM     10  N   UNL     1      16.417 -11.547  -0.395  0.00  0.00    -0.269 N 
ATOM     21  C   UNL     1      17.511 -10.819  -0.870  0.00  0.00    +0.304 C 
ATOM     39  H   UNL     1      16.108  -9.839  -2.055  0.00  0.00    +0.151 HD
ATOM     41  H   UNL     1      15.512 -11.334  -0.808  0.00  0.00    +0.156 HD
BRANCH  10  27
ATOM     27  C   UNL     1      16.410 -12.553   0.600  0.00  0.00    +0.036 A 
ATOM     30  C   UNL     1      15.840 -12.299   1.847  0.00  0.00    +0.038 A 
ATOM     32  C   UNL     1      16.973 -13.801   0.332  0.00  0.00    +0.023 A 
ATOM     35  C   UNL     1      15.833 -13.292   2.827  0.00  0.00    +0.009 A 
ATOM     36  C   UNL     1      16.967 -14.794   1.312  0.00  0.00    +0.003 A 
ATOM     37  C   UNL     1      16.397 -14.540   2.558  0.00  0.00    +0.015 A 
BRANCH  35   2
ATOM      2  S   UNL     1      15.103 -12.968   4.420  0.00  0.00    -0.129 S 
ATOM     38  C   UNL     1      16.247 -13.831   5.533  0.00  0.00    +0.090 C 
ENDBRANCH  35   2
ENDBRANCH  10  27
ENDBRANCH  14   8
BRANCH  19  22
ATOM     11  N   UNL     1      15.343  -6.261  -6.588  0.00  0.00    -0.247 NA
ATOM     13  N   UNL     1      13.149  -8.008  -6.603  0.00  0.00    -0.259 NA
ATOM     22  C   UNL     1      14.955  -6.928  -5.484  0.00  0.00    +0.144 A 
ATOM     25  C   UNL     1      13.877  -7.786  -5.491  0.00  0.00    +0.143 A 
ATOM     29  C   UNL     1      14.615  -6.482  -7.701  0.00  0.00    +0.131 A 
ATOM     31  C   UNL     1      13.537  -7.341  -7.709  0.00  0.00    +0.130 A 
ENDBRANCH  19  22
BRANCH  15  18
ATOM      3  O   UNL     1      19.407  -6.660  -3.564  0.00  0.00    -0.274 OA
ATOM      9  N   UNL     1      18.290  -5.549  -1.851  0.00  0.00    -0.302 N 
ATOM     18  C   UNL     1      18.479  -6.571  -2.765  0.00  0.00    +0.236 C 
ATOM     40  H   UNL     1      17.528  -5.622  -1.183  0.00  0.00    +0.150 HD
BRANCH   9  20
ATOM     20  C   UNL     1      19.192  -4.426  -1.723  0.00  0.00    +0.163 C 
BRANCH  20  24
ATOM      6  O   UNL     1      19.449  -4.878   0.651  0.00  0.00    -0.274 OA
ATOM     12  N   UNL     1      21.337  -4.539  -0.614  0.00  0.00    -0.328 N 
ATOM     24  C   UNL     1      19.972  -4.624  -0.433  0.00  0.00    +0.231 C 
ATOM     42  H   UNL     1      21.974  -4.667   0.165  0.00  0.00    +0.145 HD
ATOM     43  H   UNL     1      21.756  -4.333  -1.516  0.00  0.00    +0.145 HD
ENDBRANCH  20  24
BRANCH  20  23
ATOM     23  C   UNL     1      18.450  -3.084  -1.700  0.00  0.00    +0.074 C 
BRANCH  23  26
ATOM      1  S   UNL     1      19.579  -1.865  -3.936  0.00  0.00    -0.102 S 
ATOM     26  C   UNL     1      18.244  -2.517  -3.085  0.00  0.00    -0.008 A 
ATOM     28  C   UNL     1      17.078  -2.439  -3.815  0.00  0.00    +0.011 A 
ATOM     33  C   UNL     1      17.284  -1.836  -5.089  0.00  0.00    +0.008 A 
ATOM     34  C   UNL     1      18.600  -1.476  -5.284  0.00  0.00    +0.045 A 
ENDBRANCH  23  26
ENDBRANCH  20  23
ENDBRANCH   9  20
ENDBRANCH  15  18
TORSDOF 9
ENDMDL
MODEL 2
REMARK VINA RESULT:      -6.5     24.355     27.080
REMARK  Name = 11882070
REMARK  10 active torsions:
REMARK  status: ('A' for Active; 'I' for Inactive)
REMARK    1  A    between atoms: S_2  and  C_35
REMARK    2  A    between atoms: S_2  and  C_38
REMARK    3  A    between atoms: N_8  and  C_14
REMARK    4  A    between atoms: N_9  and  C_20
REMARK    5  A    between atoms: N_10  and  C_27
REMARK    6  A    between atoms: C_15  and  C_18
REMARK    7  A    between atoms: C_19  and  C_22
REMARK    8  A    between atoms: C_20  and  C_23
REMARK    9  A    between atoms: C_20  and  C_24
REMARK   10  A    between atoms: C_23  and  C_26
REMARK                            x       y       z     vdW  Elec       q    Type
REMARK                         _______ _______ _______ _____ _____    ______ ____
ROOT
ATOM      4  O   UNL     1      -7.160 -11.988   8.362  0.00  0.00    -0.268 OA
ATOM      7  N   UNL     1      -5.699 -10.273   8.955  0.00  0.00    -0.283 N 
ATOM     14  C   UNL     1      -5.458  -8.929  10.894  0.00  0.00    +0.105 C 
ATOM     15  C   UNL     1      -6.441  -9.811  10.124  0.00  0.00    +0.182 C 
ATOM     16  C   UNL     1      -4.525  -8.398   9.803  0.00  0.00    +0.043 C 
ATOM     17  C   UNL     1      -4.436  -9.550   8.810  0.00  0.00    +0.111 C 
ATOM     19  C   UNL     1      -6.095 -11.389   8.230  0.00  0.00    +0.267 C 
ENDROOT
BRANCH  14   8
ATOM      5  O   UNL     1      -6.387  -9.741  13.479  0.00  0.00    -0.252 OA
ATOM      8  N   UNL     1      -4.725  -9.697  11.872  0.00  0.00    -0.294 N 
ATOM     10  N   UNL     1      -4.321 -10.790  13.850  0.00  0.00    -0.269 N 
ATOM     21  C   UNL     1      -5.255 -10.053  13.118  0.00  0.00    +0.304 C 
ATOM     39  H   UNL     1      -3.807 -10.050  11.623  0.00  0.00    +0.151 HD
ATOM     41  H   UNL     1      -3.423 -10.961  13.404  0.00  0.00    +0.156 HD
BRANCH  10  27
ATOM     27  C   UNL     1      -4.468 -11.334  15.147  0.00  0.00    +0.036 A 
ATOM     30  C   UNL     1      -4.663 -12.705  15.312  0.00  0.00    +0.038 A 
ATOM     32  C   UNL     1      -4.416 -10.498  16.263  0.00  0.00    +0.023 A 
ATOM     35  C   UNL     1      -4.808 -13.241  16.592  0.00  0.00    +0.009 A 
ATOM     36  C   UNL     1      -4.560 -11.034  17.543  0.00  0.00    +0.003 A 
ATOM     37  C   UNL     1      -4.756 -12.404  17.707  0.00  0.00    +0.015 A 
BRANCH  35   2
ATOM      2  S   UNL     1      -5.056 -14.993  16.803  0.00  0.00    -0.129 S 
ATOM     38  C   UNL     1      -4.040 -15.674  15.462  0.00  0.00    +0.090 C 
ENDBRANCH  35   2
ENDBRANCH  10  27
ENDBRANCH  14   8
BRANCH  19  22
ATOM     11  N   UNL     1      -5.205 -11.321   6.005  0.00  0.00    -0.247 NA
ATOM     13  N   UNL     1      -3.412 -13.396   6.593  0.00  0.00    -0.259 NA
ATOM     22  C   UNL     1      -5.157 -11.900   7.221  0.00  0.00    +0.144 A 
ATOM     25  C   UNL     1      -4.277 -12.919   7.510  0.00  0.00    +0.143 A 
ATOM     29  C   UNL     1      -4.340 -11.798   5.087  0.00  0.00    +0.131 A 
ATOM     31  C   UNL     1      -3.459 -12.818   5.376  0.00  0.00    +0.130 A 
ENDBRANCH  19  22
BRANCH  15  18
ATOM      3  O   UNL     1      -8.668  -8.954  10.209  0.00  0.00    -0.274 OA
ATOM      9  N   UNL     1      -7.325  -8.423   8.383  0.00  0.00    -0.302 N 
ATOM     18  C   UNL     1      -7.603  -9.020   9.601  0.00  0.00    +0.236 C 
ATOM     40  H   UNL     1      -6.433  -8.613   7.936  0.00  0.00    +0.150 HD
BRANCH   9  20
ATOM     20  C   UNL     1      -8.285  -7.623   7.657  0.00  0.00    +0.163 C 
BRANCH  20  24
ATOM      6  O   UNL     1      -8.693  -7.346   5.278  0.00  0.00    -0.274 OA
ATOM     12  N   UNL     1      -6.845  -8.537   5.944  0.00  0.00    -0.328 N 
ATOM     24  C   UNL     1      -7.998  -7.817   6.176  0.00  0.00    +0.231 C 
ATOM     42  H   UNL     1      -6.530  -8.725   4.998  0.00  0.00    +0.145 HD
ATOM     43  H   UNL     1      -6.278  -8.917   6.696  0.00  0.00    +0.145 HD
ENDBRANCH  20  24
BRANCH  20  23
ATOM     23  C   UNL     1      -8.206  -6.138   8.028  0.00  0.00    +0.074 C 
BRANCH  23  26
ATOM      1  S   UNL     1     -10.911  -6.607   8.494  0.00  0.00    -0.102 S 
ATOM     26  C   UNL     1      -9.544  -5.578   8.450  0.00  0.00    -0.008 A 
ATOM     28  C   UNL     1      -9.855  -4.290   8.828  0.00  0.00    +0.011 A 
ATOM     33  C   UNL     1     -11.232  -4.147   9.158  0.00  0.00    +0.008 A 
ATOM     34  C   UNL     1     -11.924  -5.331   9.020  0.00  0.00    +0.045 A 
ENDBRANCH  23  26
ENDBRANCH  20  23
ENDBRANCH   9  20
ENDBRANCH  15  18
TORSDOF 9
ENDMDL
MODEL 3
REMARK VINA RESULT:      -6.5      1.219      1.610
REMARK  Name = 11882070
REMARK  10 active torsions:
REMARK  status: ('A' for Active; 'I' for Inactive)
REMARK    1  A    between atoms: S_2  and  C_35
REMARK    2  A    between atoms: S_2  and  C_38
REMARK    3  A    between atoms: N_8  and  C_14
REMARK    4  A    between atoms: N_9  and  C_20
REMARK    5  A    between atoms: N_10  and  C_27
REMARK    6  A    between atoms: C_15  and  C_18
REMARK    7  A    between atoms: C_19  and  C_22
REMARK    8  A    between atoms: C_20  and  C_23
REMARK    9  A    between atoms: C_20  and  C_24
REMARK   10  A    between atoms: C_23  and  C_26
REMARK                            x       y       z     vdW  Elec       q    Type
REMARK                         _______ _______ _______ _____ _____    ______ ____
ROOT
ATOM      4  O   UNL     1      15.801  -6.052  -3.214  0.00  0.00    -0.268 OA
ATOM      7  N   UNL     1      16.997  -8.001  -3.653  0.00  0.00    -0.283 N 
ATOM     14  C   UNL     1      18.225  -9.507  -2.293  0.00  0.00    +0.105 C 
ATOM     15  C   UNL     1      17.676  -8.082  -2.363  0.00  0.00    +0.182 C 
ATOM     16  C   UNL     1      18.435  -9.881  -3.762  0.00  0.00    +0.043 C 
ATOM     17  C   UNL     1      17.301  -9.166  -4.485  0.00  0.00    +0.111 C 
ATOM     19  C   UNL     1      16.047  -7.025  -3.921  0.00  0.00    +0.267 C 
ENDROOT
BRANCH  14   8
ATOM      5  O   UNL     1      18.467 -10.703   0.299  0.00  0.00    -0.252 OA
ATOM      8  N   UNL     1      17.281 -10.400  -1.663  0.00  0.00    -0.294 N 
ATOM     10  N   UNL     1      16.403 -11.767  -0.042  0.00  0.00    -0.269 N 
ATOM     21  C   UNL     1      17.477 -10.943  -0.387  0.00  0.00    +0.304 C 
ATOM     39  H   UNL     1      16.405 -10.593  -2.137  0.00  0.00    +0.151 HD
ATOM     41  H   UNL     1      15.658 -11.860  -0.728  0.00  0.00    +0.156 HD
BRANCH  10  27
ATOM     27  C   UNL     1      16.219 -12.496   1.156  0.00  0.00    +0.036 A 
ATOM     30  C   UNL     1      16.760 -13.775   1.285  0.00  0.00    +0.038 A 
ATOM     32  C   UNL     1      15.498 -11.935   2.210  0.00  0.00    +0.023 A 
ATOM     35  C   UNL     1      16.578 -14.494   2.468  0.00  0.00    +0.009 A 
ATOM     36  C   UNL     1      15.316 -12.653   3.392  0.00  0.00    +0.003 A 
ATOM     37  C   UNL     1      15.856 -13.932   3.521  0.00  0.00    +0.015 A 
BRANCH  35   2
ATOM      2  S   UNL     1      17.270 -16.128   2.633  0.00  0.00    -0.129 S 
ATOM     38  C   UNL     1      18.999 -15.847   2.159  0.00  0.00    +0.090 C 
ENDBRANCH  35   2
ENDBRANCH  10  27
ENDBRANCH  14   8
BRANCH  19  22
ATOM     11  N   UNL     1      15.730  -6.533  -6.246  0.00  0.00    -0.247 NA
ATOM     13  N   UNL     1      13.387  -8.072  -6.316  0.00  0.00    -0.259 NA
ATOM     22  C   UNL     1      15.264  -7.174  -5.156  0.00  0.00    +0.144 A 
ATOM     25  C   UNL     1      14.114  -7.929  -5.190  0.00  0.00    +0.143 A 
ATOM     29  C   UNL     1      15.004  -6.676  -7.373  0.00  0.00    +0.131 A 
ATOM     31  C   UNL     1      13.853  -7.433  -7.407  0.00  0.00    +0.130 A 
ENDBRANCH  19  22
BRANCH  15  18
ATOM      3  O   UNL     1      19.770  -7.211  -3.107  0.00  0.00    -0.274 OA
ATOM      9  N   UNL     1      18.536  -6.001  -1.548  0.00  0.00    -0.302 N 
ATOM     18  C   UNL     1      18.777  -7.065  -2.400  0.00  0.00    +0.236 C 
ATOM     40  H   UNL     1      17.715  -6.027  -0.950  0.00  0.00    +0.150 HD
BRANCH   9  20
ATOM     20  C   UNL     1      19.455  -4.898  -1.382  0.00  0.00    +0.163 C 
BRANCH  20  24
ATOM      6  O   UNL     1      21.168  -4.953   0.341  0.00  0.00    -0.274 OA
ATOM     12  N   UNL     1      18.962  -4.976   0.984  0.00  0.00    -0.328 N 
ATOM     24  C   UNL     1      19.974  -4.960   0.047  0.00  0.00    +0.231 C 
ATOM     42  H   UNL     1      19.172  -5.002   1.976  0.00  0.00    +0.145 HD
ATOM     43  H   UNL     1      17.980  -4.979   0.726  0.00  0.00    +0.145 HD
ENDBRANCH  20  24
BRANCH  20  23
ATOM     23  C   UNL     1      18.792  -3.542  -1.652  0.00  0.00    +0.074 C 
BRANCH  23  26
ATOM      1  S   UNL     1      19.429  -3.785  -4.352  0.00  0.00    -0.102 S 
ATOM     26  C   UNL     1      18.343  -3.397  -3.087  0.00  0.00    -0.008 A 
ATOM     28  C   UNL     1      17.121  -2.976  -3.565  0.00  0.00    +0.011 A 
ATOM     33  C   UNL     1      17.076  -2.973  -4.988  0.00  0.00    +0.008 A 
ATOM     34  C   UNL     1      18.266  -3.391  -5.545  0.00  0.00    +0.045 A 
ENDBRANCH  23  26
ENDBRANCH  20  23
ENDBRANCH   9  20
ENDBRANCH  15  18
TORSDOF 9
ENDMDL
MODEL 4
REMARK VINA RESULT:      -6.3     26.806     30.783
REMARK  Name = 11882070
REMARK  10 active torsions:
REMARK  status: ('A' for Active; 'I' for Inactive)
REMARK    1  A    between atoms: S_2  and  C_35
REMARK    2  A    between atoms: S_2  and  C_38
REMARK    3  A    between atoms: N_8  and  C_14
REMARK    4  A    between atoms: N_9  and  C_20
REMARK    5  A    between atoms: N_10  and  C_27
REMARK    6  A    between atoms: C_15  and  C_18
REMARK    7  A    between atoms: C_19  and  C_22
REMARK    8  A    between atoms: C_20  and  C_23
REMARK    9  A    between atoms: C_20  and  C_24
REMARK   10  A    between atoms: C_23  and  C_26
REMARK                            x       y       z     vdW  Elec       q    Type
REMARK                         _______ _______ _______ _____ _____    ______ ____
ROOT
ATOM      4  O   UNL     1      20.107   6.344  26.619  0.00  0.00    -0.268 OA
ATOM      7  N   UNL     1      20.478   7.953  24.977  0.00  0.00    -0.283 N 
ATOM     14  C   UNL     1      20.051   8.038  22.646  0.00  0.00    +0.105 C 
ATOM     15  C   UNL     1      20.235   7.087  23.828  0.00  0.00    +0.182 C 
ATOM     16  C   UNL     1      20.872   9.266  23.045  0.00  0.00    +0.043 C 
ATOM     17  C   UNL     1      20.710   9.335  24.558  0.00  0.00    +0.111 C 
ATOM     19  C   UNL     1      20.302   7.508  26.280  0.00  0.00    +0.267 C 
ENDROOT
BRANCH  14   8
ATOM      5  O   UNL     1      18.201   6.806  20.839  0.00  0.00    -0.252 OA
ATOM      8  N   UNL     1      18.660   8.383  22.466  0.00  0.00    -0.294 N 
ATOM     10  N   UNL     1      16.537   8.275  21.602  0.00  0.00    -0.269 N 
ATOM     21  C   UNL     1      17.821   7.728  21.557  0.00  0.00    +0.304 C 
ATOM     39  H   UNL     1      18.253   9.090  23.071  0.00  0.00    +0.151 HD
ATOM     41  H   UNL     1      16.388   9.040  22.256  0.00  0.00    +0.156 HD
BRANCH  10  27
ATOM     27  C   UNL     1      15.404   7.895  20.844  0.00  0.00    +0.036 A 
ATOM     30  C   UNL     1      14.241   7.474  21.488  0.00  0.00    +0.038 A 
ATOM     32  C   UNL     1      15.451   7.943  19.450  0.00  0.00    +0.023 A 
ATOM     35  C   UNL     1      13.125   7.099  20.739  0.00  0.00    +0.009 A 
ATOM     36  C   UNL     1      14.335   7.568  18.701  0.00  0.00    +0.003 A 
ATOM     37  C   UNL     1      13.173   7.147  19.346  0.00  0.00    +0.015 A 
BRANCH  35   2
ATOM      2  S   UNL     1      11.639   6.562  21.563  0.00  0.00    -0.129 S 
ATOM     38  C   UNL     1      10.977   8.131  22.191  0.00  0.00    +0.090 C 
ENDBRANCH  35   2
ENDBRANCH  10  27
ENDBRANCH  14   8
BRANCH  19  22
ATOM     11  N   UNL     1      19.188   9.139  27.639  0.00  0.00    -0.247 NA
ATOM     13  N   UNL     1      21.575   9.741  28.983  0.00  0.00    -0.259 NA
ATOM     22  C   UNL     1      20.348   8.519  27.345  0.00  0.00    +0.144 A 
ATOM     25  C   UNL     1      21.520   8.815  28.005  0.00  0.00    +0.143 A 
ATOM     29  C   UNL     1      19.242  10.065  28.618  0.00  0.00    +0.131 A 
ATOM     31  C   UNL     1      20.415  10.360  29.278  0.00  0.00    +0.130 A 
ENDBRANCH  19  22
BRANCH  15  18
ATOM      3  O   UNL     1      22.363   6.242  24.506  0.00  0.00    -0.274 OA
ATOM      9  N   UNL     1      21.448   5.509  22.495  0.00  0.00    -0.302 N 
ATOM     18  C   UNL     1      21.463   6.240  23.671  0.00  0.00    +0.236 C 
ATOM     40  H   UNL     1      20.685   5.649  21.839  0.00  0.00    +0.150 HD
BRANCH   9  20
ATOM     20  C   UNL     1      22.526   4.632  22.096  0.00  0.00    +0.163 C 
BRANCH  20  24
ATOM      6  O   UNL     1      23.897   5.177  20.166  0.00  0.00    -0.274 OA
ATOM     12  N   UNL     1      21.668   4.726  19.838  0.00  0.00    -0.328 N 
ATOM     24  C   UNL     1      22.791   4.892  20.621  0.00  0.00    +0.231 C 
ATOM     42  H   UNL     1      21.711   4.856  18.833  0.00  0.00    +0.145 HD
ATOM     43  H   UNL     1      20.761   4.488  20.228  0.00  0.00    +0.145 HD
ENDBRANCH  20  24
BRANCH  20  23
ATOM     23  C   UNL     1      22.188   3.154  22.327  0.00  0.00    +0.074 C 
BRANCH  23  26
ATOM      1  S   UNL     1      24.208   1.269  22.681  0.00  0.00    -0.102 S 
ATOM     26  C   UNL     1      23.157   2.484  23.273  0.00  0.00    -0.008 A 
ATOM     28  C   UNL     1      23.337   2.712  24.619  0.00  0.00    +0.011 A 
ATOM     33  C   UNL     1      24.352   1.880  25.172  0.00  0.00    +0.008 A 
ATOM     34  C   UNL     1      24.908   1.046  24.227  0.00  0.00    +0.045 A 
ENDBRANCH  23  26
ENDBRANCH  20  23
ENDBRANCH   9  20
ENDBRANCH  15  18
TORSDOF 9
ENDMDL
MODEL 5
REMARK VINA RESULT:      -6.1     13.892     17.749
REMARK  Name = 11882070
REMARK  10 active torsions:
REMARK  status: ('A' for Active; 'I' for Inactive)
REMARK    1  A    between atoms: S_2  and  C_35
REMARK    2  A    between atoms: S_2  and  C_38
REMARK    3  A    between atoms: N_8  and  C_14
REMARK    4  A    between atoms: N_9  and  C_20
REMARK    5  A    between atoms: N_10  and  C_27
REMARK    6  A    between atoms: C_15  and  C_18
REMARK    7  A    between atoms: C_19  and  C_22
REMARK    8  A    between atoms: C_20  and  C_23
REMARK    9  A    between atoms: C_20  and  C_24
REMARK   10  A    between atoms: C_23  and  C_26
REMARK                            x       y       z     vdW  Elec       q    Type
REMARK                         _______ _______ _______ _____ _____    ______ ____
ROOT
ATOM      4  O   UNL     1      12.832   4.576   2.268  0.00  0.00    -0.268 OA
ATOM      7  N   UNL     1      13.927   6.602   1.918  0.00  0.00    -0.283 N 
ATOM     14  C   UNL     1      15.149   8.065   3.328  0.00  0.00    +0.105 C 
ATOM     15  C   UNL     1      14.106   6.947   3.324  0.00  0.00    +0.182 C 
ATOM     16  C   UNL     1      14.961   8.732   1.964  0.00  0.00    +0.043 C 
ATOM     17  C   UNL     1      14.577   7.580   1.045  0.00  0.00    +0.111 C 
ATOM     19  C   UNL     1      13.375   5.390   1.525  0.00  0.00    +0.267 C 
ENDROOT
BRANCH  14   8
ATOM      5  O   UNL     1      17.433   9.420   4.401  0.00  0.00    -0.252 OA
ATOM      8  N   UNL     1      16.484   7.531   3.463  0.00  0.00    -0.294 N 
ATOM     10  N   UNL     1      18.714   7.493   4.004  0.00  0.00    -0.269 N 
ATOM     21  C   UNL     1      17.549   8.264   4.000  0.00  0.00    +0.304 C 
ATOM     39  H   UNL     1      16.646   6.560   3.217  0.00  0.00    +0.151 HD
ATOM     41  H   UNL     1      18.639   6.549   3.633  0.00  0.00    +0.156 HD
BRANCH  10  27
ATOM     27  C   UNL     1      19.999   7.865   4.463  0.00  0.00    +0.036 A 
ATOM     30  C   UNL     1      21.029   8.091   3.551  0.00  0.00    +0.038 A 
ATOM     32  C   UNL     1      20.236   8.007   5.831  0.00  0.00    +0.023 A 
ATOM     35  C   UNL     1      22.296   8.458   4.005  0.00  0.00    +0.009 A 
ATOM     36  C   UNL     1      21.503   8.375   6.285  0.00  0.00    +0.003 A 
ATOM     37  C   UNL     1      22.532   8.600   5.373  0.00  0.00    +0.015 A 
BRANCH  35   2
ATOM      2  S   UNL     1      23.612   8.748   2.839  0.00  0.00    -0.129 S 
ATOM     38  C   UNL     1      22.777   8.443   1.256  0.00  0.00    +0.090 C 
ENDBRANCH  35   2
ENDBRANCH  10  27
ENDBRANCH  14   8
BRANCH  19  22
ATOM     11  N   UNL     1      12.403   5.409  -0.667  0.00  0.00    -0.247 NA
ATOM     13  N   UNL     1      14.628   4.075  -1.732  0.00  0.00    -0.259 NA
ATOM     22  C   UNL     1      13.453   5.049   0.098  0.00  0.00    +0.144 A 
ATOM     25  C   UNL     1      14.545   4.393  -0.425  0.00  0.00    +0.143 A 
ATOM     29  C   UNL     1      12.485   5.091  -1.974  0.00  0.00    +0.131 A 
ATOM     31  C   UNL     1      13.579   4.436  -2.498  0.00  0.00    +0.130 A 
ENDBRANCH  19  22
BRANCH  15  18
ATOM      3  O   UNL     1      12.333   8.536   3.507  0.00  0.00    -0.274 OA
ATOM      9  N   UNL     1      12.151   6.509   4.637  0.00  0.00    -0.302 N 
ATOM     18  C   UNL     1      12.773   7.431   3.813  0.00  0.00    +0.236 C 
ATOM     40  H   UNL     1      12.648   5.658   4.885  0.00  0.00    +0.150 HD
BRANCH   9  20
ATOM     20  C   UNL     1      10.867   6.743   5.257  0.00  0.00    +0.163 C 
BRANCH  20  24
ATOM      6  O   UNL     1       9.910   5.392   7.036  0.00  0.00    -0.274 OA
ATOM     12  N   UNL     1      12.097   6.071   7.227  0.00  0.00    -0.328 N 
ATOM     24  C   UNL     1      10.874   6.011   6.590  0.00  0.00    +0.231 C 
ATOM     42  H   UNL     1      12.241   5.610   8.119  0.00  0.00    +0.145 HD
ATOM     43  H   UNL     1      12.886   6.583   6.846  0.00  0.00    +0.145 HD
ENDBRANCH  20  24
BRANCH  20  23
ATOM     23  C   UNL     1       9.702   6.258   4.386  0.00  0.00    +0.074 C 
BRANCH  23  26
ATOM      1  S   UNL     1       9.053   7.870   2.209  0.00  0.00    -0.102 S 
ATOM     26  C   UNL     1       8.874   7.399   3.846  0.00  0.00    -0.008 A 
ATOM     28  C   UNL     1       7.939   8.167   4.505  0.00  0.00    +0.011 A 
ATOM     33  C   UNL     1       7.362   9.154   3.655  0.00  0.00    +0.008 A 
ATOM     34  C   UNL     1       7.879   9.104   2.378  0.00  0.00    +0.045 A 
ENDBRANCH  23  26
ENDBRANCH  20  23
ENDBRANCH   9  20
ENDBRANCH  15  18
TORSDOF 9
ENDMDL
MODEL 6
REMARK VINA RESULT:      -6.1     17.974     21.871
REMARK  Name = 11882070
REMARK  10 active torsions:
REMARK  status: ('A' for Active; 'I' for Inactive)
REMARK    1  A    between atoms: S_2  and  C_35
REMARK    2  A    between atoms: S_2  and  C_38
REMARK    3  A    between atoms: N_8  and  C_14
REMARK    4  A    between atoms: N_9  and  C_20
REMARK    5  A    between atoms: N_10  and  C_27
REMARK    6  A    between atoms: C_15  and  C_18
REMARK    7  A    between atoms: C_19  and  C_22
REMARK    8  A    between atoms: C_20  and  C_23
REMARK    9  A    between atoms: C_20  and  C_24
REMARK   10  A    between atoms: C_23  and  C_26
REMARK                            x       y       z     vdW  Elec       q    Type
REMARK                         _______ _______ _______ _____ _____    ______ ____
ROOT
ATOM      4  O   UNL     1      13.254   6.670   7.142  0.00  0.00    -0.268 OA
ATOM      7  N   UNL     1      12.571   8.851   6.691  0.00  0.00    -0.283 N 
ATOM     14  C   UNL     1      11.460  10.513   7.967  0.00  0.00    +0.105 C 
ATOM     15  C   UNL     1      11.713   9.009   7.861  0.00  0.00    +0.182 C 
ATOM     16  C   UNL     1      11.585  10.998   6.521  0.00  0.00    +0.043 C 
ATOM     17  C   UNL     1      12.658  10.095   5.926  0.00  0.00    +0.111 C 
ATOM     19  C   UNL     1      13.336   7.709   6.491  0.00  0.00    +0.267 C 
ENDROOT
BRANCH  14   8
ATOM      5  O   UNL     1      10.987  11.772  10.496  0.00  0.00    -0.252 OA
ATOM      8  N   UNL     1      12.443  11.148   8.812  0.00  0.00    -0.294 N 
ATOM     10  N   UNL     1      13.275  12.275  10.630  0.00  0.00    -0.269 N 
ATOM     21  C   UNL     1      12.127  11.743  10.039  0.00  0.00    +0.304 C 
ATOM     39  H   UNL     1      13.420  11.108   8.536  0.00  0.00    +0.151 HD
ATOM     41  H   UNL     1      14.146  12.167  10.116  0.00  0.00    +0.156 HD
BRANCH  10  27
ATOM     27  C   UNL     1      13.380  12.954  11.867  0.00  0.00    +0.036 A 
ATOM     30  C   UNL     1      13.812  12.271  13.004  0.00  0.00    +0.038 A 
ATOM     32  C   UNL     1      13.053  14.307  11.949  0.00  0.00    +0.023 A 
ATOM     35  C   UNL     1      13.915  12.941  14.224  0.00  0.00    +0.009 A 
ATOM     36  C   UNL     1      13.156  14.977  13.169  0.00  0.00    +0.003 A 
ATOM     37  C   UNL     1      13.587  14.294  14.305  0.00  0.00    +0.015 A 
BRANCH  35   2
ATOM      2  S   UNL     1      14.467  12.069  15.676  0.00  0.00    -0.129 S 
ATOM     38  C   UNL     1      16.249  11.921  15.363  0.00  0.00    +0.090 C 
ENDBRANCH  35   2
ENDBRANCH  10  27
ENDBRANCH  14   8
BRANCH  19  22
ATOM     11  N   UNL     1      15.570   8.162   5.750  0.00  0.00    -0.247 NA
ATOM     13  N   UNL     1      14.916   7.419   3.126  0.00  0.00    -0.259 NA
ATOM     22  C   UNL     1      14.332   7.750   5.412  0.00  0.00    +0.144 A 
ATOM     25  C   UNL     1      14.011   7.386   4.124  0.00  0.00    +0.143 A 
ATOM     29  C   UNL     1      16.476   8.195   4.752  0.00  0.00    +0.131 A 
ATOM     31  C   UNL     1      16.155   7.830   3.463  0.00  0.00    +0.130 A 
ENDBRANCH  19  22
BRANCH  15  18
ATOM      3  O   UNL     1       9.410   8.829   7.256  0.00  0.00    -0.274 OA
ATOM      9  N   UNL     1      10.614   6.887   7.701  0.00  0.00    -0.302 N 
ATOM     18  C   UNL     1      10.451   8.255   7.563  0.00  0.00    +0.236 C 
ATOM     40  H   UNL     1      11.503   6.530   8.039  0.00  0.00    +0.150 HD
BRANCH   9  20
ATOM     20  C   UNL     1       9.543   5.939   7.492  0.00  0.00    +0.163 C 
BRANCH  20  24
ATOM      6  O   UNL     1       8.850   5.200   9.701  0.00  0.00    -0.274 OA
ATOM     12  N   UNL     1      10.327   3.895   8.519  0.00  0.00    -0.328 N 
ATOM     24  C   UNL     1       9.530   5.008   8.695  0.00  0.00    +0.231 C 
ATOM     42  H   UNL     1      10.396   3.186   9.241  0.00  0.00    +0.145 HD
ATOM     43  H   UNL     1      10.881   3.748   7.681  0.00  0.00    +0.145 HD
ENDBRANCH  20  24
BRANCH  20  23
ATOM     23  C   UNL     1       9.719   5.137   6.197  0.00  0.00    +0.074 C 
BRANCH  23  26
ATOM      1  S   UNL     1       8.209   6.986   4.761  0.00  0.00    -0.102 S 
ATOM     26  C   UNL     1       9.596   6.003   4.965  0.00  0.00    -0.008 A 
ATOM     28  C   UNL     1      10.480   6.132   3.916  0.00  0.00    +0.011 A 
ATOM     33  C   UNL     1      10.013   7.050   2.933  0.00  0.00    +0.008 A 
ATOM     34  C   UNL     1       8.788   7.588   3.267  0.00  0.00    +0.045 A 
ENDBRANCH  23  26
ENDBRANCH  20  23
ENDBRANCH   9  20
ENDBRANCH  15  18
TORSDOF 9
ENDMDL
MODEL 7
REMARK VINA RESULT:      -6.1     25.276     29.168
REMARK  Name = 11882070
REMARK  10 active torsions:
REMARK  status: ('A' for Active; 'I' for Inactive)
REMARK    1  A    between atoms: S_2  and  C_35
REMARK    2  A    between atoms: S_2  and  C_38
REMARK    3  A    between atoms: N_8  and  C_14
REMARK    4  A    between atoms: N_9  and  C_20
REMARK    5  A    between atoms: N_10  and  C_27
REMARK    6  A    between atoms: C_15  and  C_18
REMARK    7  A    between atoms: C_19  and  C_22
REMARK    8  A    between atoms: C_20  and  C_23
REMARK    9  A    between atoms: C_20  and  C_24
REMARK   10  A    between atoms: C_23  and  C_26
REMARK                            x       y       z     vdW  Elec       q    Type
REMARK                         _______ _______ _______ _____ _____    ______ ____
ROOT
ATOM      4  O   UNL     1      15.141  10.022  21.558  0.00  0.00    -0.268 OA
ATOM      7  N   UNL     1      14.788   8.813  19.598  0.00  0.00    -0.283 N 
ATOM     14  C   UNL     1      13.509   9.209  17.641  0.00  0.00    +0.105 C 
ATOM     15  C   UNL     1      13.658   9.598  19.112  0.00  0.00    +0.182 C 
ATOM     16  C   UNL     1      14.063   7.784  17.591  0.00  0.00    +0.043 C 
ATOM     17  C   UNL     1      15.181   7.792  18.627  0.00  0.00    +0.111 C 
ATOM     19  C   UNL     1      15.482   9.162  20.749  0.00  0.00    +0.267 C 
ENDROOT
BRANCH  14   8
ATOM      5  O   UNL     1      12.795  10.087  15.010  0.00  0.00    -0.252 OA
ATOM      8  N   UNL     1      14.272  10.090  16.789  0.00  0.00    -0.294 N 
ATOM     10  N   UNL     1      14.787  11.325  14.924  0.00  0.00    -0.269 N 
ATOM     21  C   UNL     1      13.849  10.472  15.510  0.00  0.00    +0.304 C 
ATOM     39  H   UNL     1      15.122  10.505  17.156  0.00  0.00    +0.151 HD
ATOM     41  H   UNL     1      15.613  11.545  15.476  0.00  0.00    +0.156 HD
BRANCH  10  27
ATOM     27  C   UNL     1      14.733  11.928  13.646  0.00  0.00    +0.036 A 
ATOM     30  C   UNL     1      13.598  12.641  13.258  0.00  0.00    +0.038 A 
ATOM     32  C   UNL     1      15.815  11.811  12.774  0.00  0.00    +0.023 A 
ATOM     35  C   UNL     1      13.546  13.236  11.996  0.00  0.00    +0.009 A 
ATOM     36  C   UNL     1      15.762  12.406  11.512  0.00  0.00    +0.003 A 
ATOM     37  C   UNL     1      14.628  13.118  11.125  0.00  0.00    +0.015 A 
BRANCH  35   2
ATOM      2  S   UNL     1      12.098  14.148  11.501  0.00  0.00    -0.129 S 
ATOM     38  C   UNL     1      11.447  13.110  10.162  0.00  0.00    +0.090 C 
ENDBRANCH  35   2
ENDBRANCH  10  27
ENDBRANCH  14   8
BRANCH  19  22
ATOM     11  N   UNL     1      16.638   7.116  21.226  0.00  0.00    -0.247 NA
ATOM     13  N   UNL     1      19.101   8.454  21.306  0.00  0.00    -0.259 NA
ATOM     22  C   UNL     1      16.735   8.444  21.019  0.00  0.00    +0.144 A 
ATOM     25  C   UNL     1      17.945   9.101  21.059  0.00  0.00    +0.143 A 
ATOM     29  C   UNL     1      17.794   6.468  21.473  0.00  0.00    +0.131 A 
ATOM     31  C   UNL     1      19.004   7.126  21.512  0.00  0.00    +0.130 A 
ENDBRANCH  19  22
BRANCH  15  18
ATOM      3  O   UNL     1      11.338   9.143  19.444  0.00  0.00    -0.274 OA
ATOM      9  N   UNL     1      12.808   8.857  21.225  0.00  0.00    -0.302 N 
ATOM     18  C   UNL     1      12.469   9.173  19.921  0.00  0.00    +0.236 C 
ATOM     40  H   UNL     1      13.767   8.996  21.530  0.00  0.00    +0.150 HD
BRANCH   9  20
ATOM     20  C   UNL     1      11.841   8.439  22.215  0.00  0.00    +0.163 C 
BRANCH  20  24
ATOM      6  O   UNL     1      10.195   6.704  21.786  0.00  0.00    -0.274 OA
ATOM     12  N   UNL     1      12.417   6.214  21.468  0.00  0.00    -0.328 N 
ATOM     24  C   UNL     1      11.375   7.045  21.824  0.00  0.00    +0.231 C 
ATOM     42  H   UNL     1      12.243   5.259  21.171  0.00  0.00    +0.145 HD
ATOM     43  H   UNL     1      13.388   6.510  21.501  0.00  0.00    +0.145 HD
ENDBRANCH  20  24
BRANCH  20  23
ATOM     23  C   UNL     1      10.646   9.398  22.301  0.00  0.00    +0.074 C 
BRANCH  23  26
ATOM      1  S   UNL     1      11.285  12.105  22.153  0.00  0.00    -0.102 S 
ATOM     26  C   UNL     1      10.984  10.672  23.040  0.00  0.00    -0.008 A 
ATOM     28  C   UNL     1      11.094  10.872  24.398  0.00  0.00    +0.011 A 
ATOM     33  C   UNL     1      11.429  12.220  24.715  0.00  0.00    +0.008 A 
ATOM     34  C   UNL     1      11.563  12.998  23.586  0.00  0.00    +0.045 A 
ENDBRANCH  23  26
ENDBRANCH  20  23
ENDBRANCH   9  20
ENDBRANCH  15  18
TORSDOF 9
ENDMDL
MODEL 8
REMARK VINA RESULT:      -6.1     27.320     30.279
REMARK  Name = 11882070
REMARK  10 active torsions:
REMARK  status: ('A' for Active; 'I' for Inactive)
REMARK    1  A    between atoms: S_2  and  C_35
REMARK    2  A    between atoms: S_2  and  C_38
REMARK    3  A    between atoms: N_8  and  C_14
REMARK    4  A    between atoms: N_9  and  C_20
REMARK    5  A    between atoms: N_10  and  C_27
REMARK    6  A    between atoms: C_15  and  C_18
REMARK    7  A    between atoms: C_19  and  C_22
REMARK    8  A    between atoms: C_20  and  C_23
REMARK    9  A    between atoms: C_20  and  C_24
REMARK   10  A    between atoms: C_23  and  C_26
REMARK                            x       y       z     vdW  Elec       q    Type
REMARK                         _______ _______ _______ _____ _____    ______ ____
ROOT
ATOM      4  O   UNL     1      12.837   8.990  21.832  0.00  0.00    -0.268 OA
ATOM      7  N   UNL     1      14.921   9.610  20.998  0.00  0.00    -0.283 N 
ATOM     14  C   UNL     1      17.088   9.748  21.952  0.00  0.00    +0.105 C 
ATOM     15  C   UNL     1      15.597   9.721  22.287  0.00  0.00    +0.182 C 
ATOM     16  C   UNL     1      17.126  10.347  20.544  0.00  0.00    +0.043 C 
ATOM     17  C   UNL     1      15.853   9.822  19.891  0.00  0.00    +0.111 C 
ATOM     19  C   UNL     1      13.610   9.165  20.894  0.00  0.00    +0.267 C 
ENDROOT
BRANCH  14   8
ATOM      5  O   UNL     1      19.857   9.055  21.716  0.00  0.00    -0.252 OA
ATOM      8  N   UNL     1      17.649   8.417  21.962  0.00  0.00    -0.294 N 
ATOM     10  N   UNL     1      19.265   6.790  21.884  0.00  0.00    -0.269 N 
ATOM     21  C   UNL     1      19.020   8.165  21.841  0.00  0.00    +0.304 C 
ATOM     39  H   UNL     1      17.029   7.631  22.129  0.00  0.00    +0.151 HD
ATOM     41  H   UNL     1      18.456   6.184  21.991  0.00  0.00    +0.156 HD
BRANCH  10  27
ATOM     27  C   UNL     1      20.512   6.127  21.795  0.00  0.00    +0.036 A 
ATOM     30  C   UNL     1      21.245   5.860  22.952  0.00  0.00    +0.038 A 
ATOM     32  C   UNL     1      21.009   5.740  20.551  0.00  0.00    +0.023 A 
ATOM     35  C   UNL     1      22.474   5.207  22.864  0.00  0.00    +0.009 A 
ATOM     36  C   UNL     1      22.238   5.086  20.463  0.00  0.00    +0.003 A 
ATOM     37  C   UNL     1      22.970   4.820  21.619  0.00  0.00    +0.015 A 
BRANCH  35   2
ATOM      2  S   UNL     1      23.410   4.864  24.341  0.00  0.00    -0.129 S 
ATOM     38  C   UNL     1      25.031   4.421  23.658  0.00  0.00    +0.090 C 
ENDBRANCH  35   2
ENDBRANCH  10  27
ENDBRANCH  14   8
BRANCH  19  22
ATOM     11  N   UNL     1      12.992   7.571  19.213  0.00  0.00    -0.247 NA
ATOM     13  N   UNL     1      12.312   9.624  17.428  0.00  0.00    -0.259 NA
ATOM     22  C   UNL     1      13.107   8.872  19.545  0.00  0.00    +0.144 A 
ATOM     25  C   UNL     1      12.774   9.880  18.668  0.00  0.00    +0.143 A 
ATOM     29  C   UNL     1      12.531   7.313  17.973  0.00  0.00    +0.131 A 
ATOM     31  C   UNL     1      12.196   8.322  17.096  0.00  0.00    +0.130 A 
ENDBRANCH  19  22
BRANCH  15  18
ATOM      3  O   UNL     1      15.298  12.090  22.318  0.00  0.00    -0.274 OA
ATOM      9  N   UNL     1      14.570  10.838  24.141  0.00  0.00    -0.302 N 
ATOM     18  C   UNL     1      15.142  11.016  22.892  0.00  0.00    +0.236 C 
ATOM     40  H   UNL     1      14.566   9.909  24.551  0.00  0.00    +0.150 HD
BRANCH   9  20
ATOM     20  C   UNL     1      14.071  11.931  24.944  0.00  0.00    +0.163 C 
BRANCH  20  24
ATOM      6  O   UNL     1      14.287  12.146  27.355  0.00  0.00    -0.274 OA
ATOM     12  N   UNL     1      16.114  11.453  26.146  0.00  0.00    -0.328 N 
ATOM     24  C   UNL     1      14.808  11.880  26.274  0.00  0.00    +0.231 C 
ATOM     42  H   UNL     1      16.713  11.360  26.959  0.00  0.00    +0.145 HD
ATOM     43  H   UNL     1      16.530  11.233  25.246  0.00  0.00    +0.145 HD
ENDBRANCH  20  24
BRANCH  20  23
ATOM     23  C   UNL     1      12.556  11.845  25.168  0.00  0.00    +0.074 C 
BRANCH  23  26
ATOM      1  S   UNL     1      11.287  12.098  22.701  0.00  0.00    -0.102 S 
ATOM     26  C   UNL     1      11.784  12.726  24.214  0.00  0.00    -0.008 A 
ATOM     28  C   UNL     1      11.393  14.036  24.384  0.00  0.00    +0.011 A 
ATOM     33  C   UNL     1      10.676  14.531  23.257  0.00  0.00    +0.008 A 
ATOM     34  C   UNL     1      10.546  13.579  22.268  0.00  0.00    +0.045 A 
ENDBRANCH  23  26
ENDBRANCH  20  23
ENDBRANCH   9  20
ENDBRANCH  15  18
TORSDOF 9
ENDMDL
MODEL 9
REMARK VINA RESULT:      -5.9     18.032     20.942
REMARK  Name = 11882070
REMARK  10 active torsions:
REMARK  status: ('A' for Active; 'I' for Inactive)
REMARK    1  A    between atoms: S_2  and  C_35
REMARK    2  A    between atoms: S_2  and  C_38
REMARK    3  A    between atoms: N_8  and  C_14
REMARK    4  A    between atoms: N_9  and  C_20
REMARK    5  A    between atoms: N_10  and  C_27
REMARK    6  A    between atoms: C_15  and  C_18
REMARK    7  A    between atoms: C_19  and  C_22
REMARK    8  A    between atoms: C_20  and  C_23
REMARK    9  A    between atoms: C_20  and  C_24
REMARK   10  A    between atoms: C_23  and  C_26
REMARK                            x       y       z     vdW  Elec       q    Type
REMARK                         _______ _______ _______ _____ _____    ______ ____
ROOT
ATOM      4  O   UNL     1      10.883  12.065   5.929  0.00  0.00    -0.268 OA
ATOM      7  N   UNL     1      11.788   9.955   6.317  0.00  0.00    -0.283 N 
ATOM     14  C   UNL     1      13.339   8.600   5.141  0.00  0.00    +0.105 C 
ATOM     15  C   UNL     1      12.362   9.766   4.989  0.00  0.00    +0.182 C 
ATOM     16  C   UNL     1      12.750   7.790   6.297  0.00  0.00    +0.043 C 
ATOM     17  C   UNL     1      12.137   8.847   7.207  0.00  0.00    +0.111 C 
ATOM     19  C   UNL     1      11.170  11.142   6.686  0.00  0.00    +0.267 C 
ENDROOT
BRANCH  14   8
ATOM      5  O   UNL     1      15.803   7.206   4.702  0.00  0.00    -0.252 OA
ATOM      8  N   UNL     1      14.666   9.070   5.463  0.00  0.00    -0.294 N 
ATOM     10  N   UNL     1      16.955   9.029   5.630  0.00  0.00    -0.269 N 
ATOM     21  C   UNL     1      15.823   8.323   5.215  0.00  0.00    +0.304 C 
ATOM     39  H   UNL     1      14.772  10.011   5.828  0.00  0.00    +0.151 HD
ATOM     41  H   UNL     1      16.797   9.946   6.039  0.00  0.00    +0.156 HD
BRANCH  10  27
ATOM     27  C   UNL     1      18.308   8.623   5.553  0.00  0.00    +0.036 A 
ATOM     30  C   UNL     1      18.869   8.294   4.319  0.00  0.00    +0.038 A 
ATOM     32  C   UNL     1      19.081   8.554   6.711  0.00  0.00    +0.023 A 
ATOM     35  C   UNL     1      20.204   7.895   4.244  0.00  0.00    +0.009 A 
ATOM     36  C   UNL     1      20.416   8.154   6.636  0.00  0.00    +0.003 A 
ATOM     37  C   UNL     1      20.977   7.825   5.403  0.00  0.00    +0.015 A 
BRANCH  35   2
ATOM      2  S   UNL     1      20.921   7.476   2.668  0.00  0.00    -0.129 S 
ATOM     38  C   UNL     1      22.629   8.055   2.873  0.00  0.00    +0.090 C 
ENDBRANCH  35   2
ENDBRANCH  10  27
ENDBRANCH  14   8
BRANCH  19  22
ATOM     11  N   UNL     1      11.828  11.737   8.913  0.00  0.00    -0.247 NA
ATOM     13  N   UNL     1       9.254  11.190   9.886  0.00  0.00    -0.259 NA
ATOM     22  C   UNL     1      10.836  11.310   8.107  0.00  0.00    +0.144 A 
ATOM     25  C   UNL     1       9.573  11.041   8.585  0.00  0.00    +0.143 A 
ATOM     29  C   UNL     1      11.510  11.887  10.215  0.00  0.00    +0.131 A 
ATOM     31  C   UNL     1      10.246  11.619  10.693  0.00  0.00    +0.130 A 
ENDBRANCH  19  22
BRANCH  15  18
ATOM      3  O   UNL     1      11.366   9.321   2.865  0.00  0.00    -0.274 OA
ATOM      9  N   UNL     1      10.033   9.250   4.773  0.00  0.00    -0.302 N 
ATOM     18  C   UNL     1      11.221   9.417   4.081  0.00  0.00    +0.236 C 
ATOM     40  H   UNL     1      10.018   9.433   5.772  0.00  0.00    +0.150 HD
BRANCH   9  20
ATOM     20  C   UNL     1       8.780   8.931   4.127  0.00  0.00    +0.163 C 
BRANCH  20  24
ATOM      6  O   UNL     1       8.054  10.970   5.231  0.00  0.00    -0.274 OA
ATOM     12  N   UNL     1       6.475   9.656   4.200  0.00  0.00    -0.328 N 
ATOM     24  C   UNL     1       7.761   9.957   4.599  0.00  0.00    +0.231 C 
ATOM     42  H   UNL     1       5.701  10.268   4.436  0.00  0.00    +0.145 HD
ATOM     43  H   UNL     1       6.249   8.817   3.675  0.00  0.00    +0.145 HD
ENDBRANCH  20  24
BRANCH  20  23
ATOM     23  C   UNL     1       8.302   7.511   4.453  0.00  0.00    +0.074 C 
BRANCH  23  26
ATOM      1  S   UNL     1       9.765   5.679   5.956  0.00  0.00    -0.102 S 
ATOM     26  C   UNL     1       8.752   7.052   5.820  0.00  0.00    -0.008 A 
ATOM     28  C   UNL     1       8.457   7.601   7.049  0.00  0.00    +0.011 A 
ATOM     33  C   UNL     1       9.071   6.884   8.115  0.00  0.00    +0.008 A 
ATOM     34  C   UNL     1       9.812   5.814   7.661  0.00  0.00    +0.045 A 
ENDBRANCH  23  26
ENDBRANCH  20  23
ENDBRANCH   9  20
ENDBRANCH  15  18
TORSDOF 9
ENDMDL
MODEL 10
REMARK VINA RESULT:      -5.9     14.502     18.397
REMARK  Name = 11882070
REMARK  10 active torsions:
REMARK  status: ('A' for Active; 'I' for Inactive)
REMARK    1  A    between atoms: S_2  and  C_35
REMARK    2  A    between atoms: S_2  and  C_38
REMARK    3  A    between atoms: N_8  and  C_14
REMARK    4  A    between atoms: N_9  and  C_20
REMARK    5  A    between atoms: N_10  and  C_27
REMARK    6  A    between atoms: C_15  and  C_18
REMARK    7  A    between atoms: C_19  and  C_22
REMARK    8  A    between atoms: C_20  and  C_23
REMARK    9  A    between atoms: C_20  and  C_24
REMARK   10  A    between atoms: C_23  and  C_26
REMARK                            x       y       z     vdW  Elec       q    Type
REMARK                         _______ _______ _______ _____ _____    ______ ____
ROOT
ATOM      4  O   UNL     1       8.247   7.736   3.429  0.00  0.00    -0.268 OA
ATOM      7  N   UNL     1      10.546   7.393   3.269  0.00  0.00    -0.283 N 
ATOM     14  C   UNL     1      11.882   5.539   2.639  0.00  0.00    +0.105 C 
ATOM     15  C   UNL     1      10.496   5.941   3.143  0.00  0.00    +0.182 C 
ATOM     16  C   UNL     1      12.791   6.645   3.178  0.00  0.00    +0.043 C 
ATOM     17  C   UNL     1      11.915   7.890   3.132  0.00  0.00    +0.111 C 
ATOM     19  C   UNL     1       9.393   8.166   3.314  0.00  0.00    +0.267 C 
ENDROOT
BRANCH  14   8
ATOM      5  O   UNL     1      10.125   4.064   0.924  0.00  0.00    -0.252 OA
ATOM      8  N   UNL     1      11.921   5.495   1.197  0.00  0.00    -0.294 N 
ATOM     10  N   UNL     1      11.301   4.895  -0.930  0.00  0.00    -0.269 N 
ATOM     21  C   UNL     1      11.021   4.745   0.431  0.00  0.00    +0.304 C 
ATOM     39  H   UNL     1      12.590   6.083   0.711  0.00  0.00    +0.151 HD
ATOM     41  H   UNL     1      12.083   5.497  -1.172  0.00  0.00    +0.156 HD
BRANCH  10  27
ATOM     27  C   UNL     1      10.625   4.306  -2.025  0.00  0.00    +0.036 A 
ATOM     30  C   UNL     1       9.646   5.026  -2.710  0.00  0.00    +0.038 A 
ATOM     32  C   UNL     1      10.939   3.006  -2.420  0.00  0.00    +0.023 A 
ATOM     35  C   UNL     1       8.981   4.445  -3.790  0.00  0.00    +0.009 A 
ATOM     36  C   UNL     1      10.274   2.425  -3.500  0.00  0.00    +0.003 A 
ATOM     37  C   UNL     1       9.296   3.144  -4.185  0.00  0.00    +0.015 A 
BRANCH  35   2
ATOM      2  S   UNL     1       7.731   5.364  -4.667  0.00  0.00    -0.129 S 
ATOM     38  C   UNL     1       7.073   6.435  -3.357  0.00  0.00    +0.090 C 
ENDBRANCH  35   2
ENDBRANCH  10  27
ENDBRANCH  14   8
BRANCH  19  22
ATOM     11  N   UNL     1       9.647  10.304   4.369  0.00  0.00    -0.247 NA
ATOM     13  N   UNL     1       9.763  11.587   1.878  0.00  0.00    -0.259 NA
ATOM     22  C   UNL     1       9.557   9.622   3.210  0.00  0.00    +0.144 A 
ATOM     25  C   UNL     1       9.613  10.252   1.987  0.00  0.00    +0.143 A 
ATOM     29  C   UNL     1       9.797  11.639   4.260  0.00  0.00    +0.131 A 
ATOM     31  C   UNL     1       9.854  12.270   3.036  0.00  0.00    +0.130 A 
ENDBRANCH  19  22
BRANCH  15  18
ATOM      3  O   UNL     1      10.243   4.202   4.759  0.00  0.00    -0.274 OA
ATOM      9  N   UNL     1       9.954   6.412   5.428  0.00  0.00    -0.302 N 
ATOM     18  C   UNL     1      10.229   5.406   4.518  0.00  0.00    +0.236 C 
ATOM     40  H   UNL     1       9.892   7.370   5.095  0.00  0.00    +0.150 HD
BRANCH   9  20
ATOM     20  C   UNL     1       9.642   6.160   6.816  0.00  0.00    +0.163 C 
BRANCH  20  24
ATOM      6  O   UNL     1       8.581   7.709   8.358  0.00  0.00    -0.274 OA
ATOM     12  N   UNL     1       7.758   7.552   6.218  0.00  0.00    -0.328 N 
ATOM     24  C   UNL     1       8.616   7.200   7.239  0.00  0.00    +0.231 C 
ATOM     42  H   UNL     1       7.035   8.248   6.364  0.00  0.00    +0.145 HD
ATOM     43  H   UNL     1       7.801   7.126   5.298  0.00  0.00    +0.145 HD
ENDBRANCH  20  24
BRANCH  20  23
ATOM     23  C   UNL     1      10.882   6.233   7.715  0.00  0.00    +0.074 C 
BRANCH  23  26
ATOM      1  S   UNL     1      11.577   8.847   7.052  0.00  0.00    -0.102 S 
ATOM     26  C   UNL     1      11.930   7.176   7.172  0.00  0.00    -0.008 A 
ATOM     28  C   UNL     1      13.202   6.884   6.734  0.00  0.00    +0.011 A 
ATOM     33  C   UNL     1      13.897   8.046   6.293  0.00  0.00    +0.008 A 
ATOM     34  C   UNL     1      13.128   9.184   6.411  0.00  0.00    +0.045 A 
ENDBRANCH  23  26
ENDBRANCH  20  23
ENDBRANCH   9  20
ENDBRANCH  15  18
TORSDOF 9
ENDMDL
