MODEL 1
REMARK VINA RESULT:      -7.8      0.000      0.000
REMARK  Name = 45784109
REMARK  9 active torsions:
REMARK  status: ('A' for Active; 'I' for Inactive)
REMARK    1  A    between atoms: N_3  and  C_14
REMARK    2  A    between atoms: C_9  and  C_13
REMARK    3  A    between atoms: C_10  and  C_14
REMARK    4  A    between atoms: C_12  and  C_17
REMARK    5  A    between atoms: C_13  and  C_18
REMARK    6  A    between atoms: C_13  and  C_19
REMARK    7  A    between atoms: C_16  and  C_22
REMARK    8  A    between atoms: C_17  and  C_25
REMARK    9  A    between atoms: C_27  and  C_29
REMARK                            x       y       z     vdW  Elec       q    Type
REMARK                         _______ _______ _______ _____ _____    ______ ____
ROOT
ATOM      9  C   UNL     1      -5.872 -10.310  10.230  0.00  0.00    +0.000 C 
ATOM     10  C   UNL     1      -5.062  -9.889   8.981  0.00  0.00    +0.029 C 
ATOM     11  C   UNL     1      -4.977 -11.067  11.220  0.00  0.00    +0.012 C 
ATOM     12  C   UNL     1      -3.735 -10.264  11.661  0.00  0.00    +0.024 C 
ATOM     15  C   UNL     1      -3.707  -9.327   9.331  0.00  0.00    -0.023 C 
ATOM     16  C   UNL     1      -3.104  -9.473  10.524  0.00  0.00    -0.073 C 
ATOM     22  C   UNL     1      -1.788  -8.797  10.796  0.00  0.00    +0.039 C 
ENDROOT
BRANCH   9  13
ATOM     13  C   UNL     1      -6.539  -9.099  10.898  0.00  0.00    -0.013 C 
ATOM     18  C   UNL     1      -7.181  -9.508  12.219  0.00  0.00    +0.007 C 
ATOM     19  C   UNL     1      -7.571  -8.477   9.963  0.00  0.00    +0.007 C 
ENDBRANCH   9  13
BRANCH  10  14
ATOM     14  C   UNL     1      -4.885 -11.055   8.002  0.00  0.00    +0.092 C 
BRANCH  14   3
ATOM      3  N   UNL     1      -5.286 -10.661   6.652  0.00  0.00    -0.299 NA
ATOM      4  N   UNL     1      -7.077 -10.354   4.448  0.00  0.00    -0.312 N 
ATOM      7  N   UNL     1      -7.806  -8.998   2.639  0.00  0.00    -0.237 NA
ATOM      8  N   UNL     1      -9.428 -11.117   1.779  0.00  0.00    -0.258 NA
ATOM     20  C   UNL     1      -5.721 -11.832   5.881  0.00  0.00    +0.103 C 
ATOM     21  C   UNL     1      -6.366  -9.668   6.705  0.00  0.00    +0.103 C 
ATOM     23  C   UNL     1      -6.088 -11.440   4.448  0.00  0.00    +0.122 C 
ATOM     24  C   UNL     1      -6.756  -9.204   5.298  0.00  0.00    +0.122 C 
ATOM     26  C   UNL     1      -7.853 -10.172   3.298  0.00  0.00    +0.140 A 
ATOM     28  C   UNL     1      -8.651 -11.214   2.876  0.00  0.00    +0.154 A 
ATOM     30  C   UNL     1      -8.582  -8.902   1.541  0.00  0.00    +0.132 A 
ATOM     31  C   UNL     1      -9.380  -9.944   1.120  0.00  0.00    +0.130 A 
ENDBRANCH  14   3
ENDBRANCH  10  14
BRANCH  12  17
ATOM     17  C   UNL     1      -2.748 -11.222  12.340  0.00  0.00    +0.105 C 
BRANCH  17  25
ATOM      2  O   UNL     1      -3.643 -11.148  14.609  0.00  0.00    -0.420 OA
ATOM      5  N   UNL     1      -1.545 -10.395  14.428  0.00  0.00    -0.112 NA
ATOM      6  N   UNL     1      -1.921 -10.297  15.754  0.00  0.00    -0.107 NA
ATOM     25  C   UNL     1      -2.581 -10.896  13.797  0.00  0.00    +0.218 A 
ATOM     27  C   UNL     1      -3.152 -10.747  15.814  0.00  0.00    +0.251 A 
BRANCH  27  29
ATOM      1  F   UNL     1      -5.578  -9.349  15.951  0.00  0.00    -0.205 F 
ATOM     29  C   UNL     1      -4.042 -10.880  16.930  0.00  0.00    +0.074 A 
ATOM     32  C   UNL     1      -5.240 -10.166  16.961  0.00  0.00    +0.136 A 
ATOM     33  C   UNL     1      -3.707 -11.724  17.988  0.00  0.00    +0.016 A 
ATOM     34  C   UNL     1      -6.103 -10.297  18.049  0.00  0.00    +0.039 A 
ATOM     35  C   UNL     1      -4.570 -11.855  19.077  0.00  0.00    +0.001 A 
ATOM     36  C   UNL     1      -5.768 -11.142  19.106  0.00  0.00    +0.003 A 
ENDBRANCH  27  29
ENDBRANCH  17  25
ENDBRANCH  12  17
TORSDOF 6
ENDMDL
MODEL 2
REMARK VINA RESULT:      -7.4      3.078      5.876
REMARK  Name = 45784109
REMARK  9 active torsions:
REMARK  status: ('A' for Active; 'I' for Inactive)
REMARK    1  A    between atoms: N_3  and  C_14
REMARK    2  A    between atoms: C_9  and  C_13
REMARK    3  A    between atoms: C_10  and  C_14
REMARK    4  A    between atoms: C_12  and  C_17
REMARK    5  A    between atoms: C_13  and  C_18
REMARK    6  A    between atoms: C_13  and  C_19
REMARK    7  A    between atoms: C_16  and  C_22
REMARK    8  A    between atoms: C_17  and  C_25
REMARK    9  A    between atoms: C_27  and  C_29
REMARK                            x       y       z     vdW  Elec       q    Type
REMARK                         _______ _______ _______ _____ _____    ______ ____
ROOT
ATOM      9  C   UNL     1      -3.860 -10.635  15.311  0.00  0.00    +0.000 C 
ATOM     10  C   UNL     1      -4.821 -10.935  14.137  0.00  0.00    +0.029 C 
ATOM     11  C   UNL     1      -4.345 -11.327  16.592  0.00  0.00    +0.012 C 
ATOM     12  C   UNL     1      -4.509 -12.854  16.440  0.00  0.00    +0.024 C 
ATOM     15  C   UNL     1      -5.235 -12.384  14.082  0.00  0.00    -0.023 C 
ATOM     16  C   UNL     1      -5.093 -13.259  15.094  0.00  0.00    -0.073 C 
ATOM     22  C   UNL     1      -5.462 -14.705  14.903  0.00  0.00    +0.039 C 
ENDROOT
BRANCH   9  13
ATOM     13  C   UNL     1      -2.419 -11.043  14.973  0.00  0.00    -0.013 C 
ATOM     18  C   UNL     1      -1.460 -10.551  16.052  0.00  0.00    +0.007 C 
ATOM     19  C   UNL     1      -2.020 -10.499  13.604  0.00  0.00    +0.007 C 
ENDBRANCH   9  13
BRANCH  10  14
ATOM     14  C   UNL     1      -6.074 -10.055  14.193  0.00  0.00    +0.092 C 
BRANCH  14   3
ATOM      3  N   UNL     1      -6.325  -9.431  12.894  0.00  0.00    -0.299 NA
ATOM      4  N   UNL     1      -6.664  -9.356  10.059  0.00  0.00    -0.312 N 
ATOM      7  N   UNL     1      -7.839  -8.437   8.210  0.00  0.00    -0.237 NA
ATOM      8  N   UNL     1      -6.024  -9.713   6.496  0.00  0.00    -0.258 NA
ATOM     20  C   UNL     1      -5.172  -9.611  12.004  0.00  0.00    +0.103 C 
ATOM     21  C   UNL     1      -7.528  -9.999  12.274  0.00  0.00    +0.103 C 
ATOM     23  C   UNL     1      -5.400  -8.913  10.661  0.00  0.00    +0.122 C 
ATOM     24  C   UNL     1      -7.835  -9.314  10.939  0.00  0.00    +0.122 C 
ATOM     26  C   UNL     1      -6.827  -9.192   8.678  0.00  0.00    +0.140 A 
ATOM     28  C   UNL     1      -5.935  -9.820   7.836  0.00  0.00    +0.154 A 
ATOM     30  C   UNL     1      -7.928  -8.329   6.870  0.00  0.00    +0.132 A 
ATOM     31  C   UNL     1      -7.036  -8.957   6.028  0.00  0.00    +0.130 A 
ENDBRANCH  14   3
ENDBRANCH  10  14
BRANCH  12  17
ATOM     17  C   UNL     1      -5.325 -13.380  17.627  0.00  0.00    +0.105 C 
BRANCH  17  25
ATOM      2  O   UNL     1      -7.153 -11.765  17.695  0.00  0.00    -0.420 OA
ATOM      5  N   UNL     1      -5.803 -11.696  19.478  0.00  0.00    -0.112 NA
ATOM      6  N   UNL     1      -6.783 -10.738  19.648  0.00  0.00    -0.107 NA
ATOM     25  C   UNL     1      -6.057 -12.271  18.325  0.00  0.00    +0.218 A 
ATOM     27  C   UNL     1      -7.549 -10.813  18.584  0.00  0.00    +0.251 A 
BRANCH  27  29
ATOM      1  F   UNL     1      -7.434  -8.675  16.776  0.00  0.00    -0.205 F 
ATOM     29  C   UNL     1      -8.716 -10.063  18.221  0.00  0.00    +0.074 A 
ATOM     32  C   UNL     1      -8.616  -9.005  17.318  0.00  0.00    +0.136 A 
ATOM     33  C   UNL     1      -9.953 -10.392  18.775  0.00  0.00    +0.016 A 
ATOM     34  C   UNL     1      -9.754  -8.277  16.968  0.00  0.00    +0.039 A 
ATOM     35  C   UNL     1     -11.090  -9.664  18.425  0.00  0.00    +0.001 A 
ATOM     36  C   UNL     1     -10.990  -8.607  17.522  0.00  0.00    +0.003 A 
ENDBRANCH  27  29
ENDBRANCH  17  25
ENDBRANCH  12  17
TORSDOF 6
ENDMDL
MODEL 3
REMARK VINA RESULT:      -7.3      5.430     11.123
REMARK  Name = 45784109
REMARK  9 active torsions:
REMARK  status: ('A' for Active; 'I' for Inactive)
REMARK    1  A    between atoms: N_3  and  C_14
REMARK    2  A    between atoms: C_9  and  C_13
REMARK    3  A    between atoms: C_10  and  C_14
REMARK    4  A    between atoms: C_12  and  C_17
REMARK    5  A    between atoms: C_13  and  C_18
REMARK    6  A    between atoms: C_13  and  C_19
REMARK    7  A    between atoms: C_16  and  C_22
REMARK    8  A    between atoms: C_17  and  C_25
REMARK    9  A    between atoms: C_27  and  C_29
REMARK                            x       y       z     vdW  Elec       q    Type
REMARK                         _______ _______ _______ _____ _____    ______ ____
ROOT
ATOM      9  C   UNL     1      -7.006 -12.331  16.911  0.00  0.00    +0.000 C 
ATOM     10  C   UNL     1      -7.192 -12.013  18.413  0.00  0.00    +0.029 C 
ATOM     11  C   UNL     1      -5.767 -11.614  16.359  0.00  0.00    +0.012 C 
ATOM     12  C   UNL     1      -4.469 -11.957  17.122  0.00  0.00    +0.024 C 
ATOM     15  C   UNL     1      -5.898 -12.075  19.184  0.00  0.00    -0.023 C 
ATOM     16  C   UNL     1      -4.674 -12.064  18.626  0.00  0.00    -0.073 C 
ATOM     22  C   UNL     1      -3.448 -12.218  19.484  0.00  0.00    +0.039 C 
ENDROOT
BRANCH   9  13
ATOM     13  C   UNL     1      -6.925 -13.845  16.667  0.00  0.00    -0.013 C 
ATOM     18  C   UNL     1      -6.895 -14.142  15.171  0.00  0.00    +0.007 C 
ATOM     19  C   UNL     1      -8.097 -14.555  17.337  0.00  0.00    +0.007 C 
ENDBRANCH   9  13
BRANCH  10  14
ATOM     14  C   UNL     1      -7.837 -10.638  18.624  0.00  0.00    +0.092 C 
BRANCH  14   3
ATOM      3  N   UNL     1      -9.294 -10.732  18.531  0.00  0.00    -0.299 NA
ATOM      4  N   UNL     1     -11.995  -9.989  19.086  0.00  0.00    -0.312 N 
ATOM      7  N   UNL     1     -14.205  -9.719  18.256  0.00  0.00    -0.237 NA
ATOM      8  N   UNL     1     -15.071  -9.245  20.880  0.00  0.00    -0.258 NA
ATOM     20  C   UNL     1      -9.878 -10.993  19.852  0.00  0.00    +0.103 C 
ATOM     21  C   UNL     1      -9.855  -9.497  17.971  0.00  0.00    +0.103 C 
ATOM     23  C   UNL     1     -11.398 -11.150  19.760  0.00  0.00    +0.122 C 
ATOM     24  C   UNL     1     -11.374  -9.603  17.816  0.00  0.00    +0.122 C 
ATOM     26  C   UNL     1     -13.355  -9.733  19.301  0.00  0.00    +0.140 A 
ATOM     28  C   UNL     1     -13.779  -9.499  20.591  0.00  0.00    +0.154 A 
ATOM     30  C   UNL     1     -15.496  -9.466  18.546  0.00  0.00    +0.132 A 
ATOM     31  C   UNL     1     -15.921  -9.232  19.835  0.00  0.00    +0.130 A 
ENDBRANCH  14   3
ENDBRANCH  10  14
BRANCH  12  17
ATOM     17  C   UNL     1      -3.391 -10.936  16.737  0.00  0.00    +0.105 C 
BRANCH  17  25
ATOM      2  O   UNL     1      -3.663 -10.449  14.362  0.00  0.00    -0.420 OA
ATOM      5  N   UNL     1      -1.960 -11.823  14.825  0.00  0.00    -0.112 NA
ATOM      6  N   UNL     1      -1.997 -11.636  13.457  0.00  0.00    -0.107 NA
ATOM     25  C   UNL     1      -2.950 -11.113  15.313  0.00  0.00    +0.218 A 
ATOM     27  C   UNL     1      -3.006 -10.827  13.231  0.00  0.00    +0.251 A 
BRANCH  27  29
ATOM      1  F   UNL     1      -1.330  -9.624  11.334  0.00  0.00    -0.205 F 
ATOM     29  C   UNL     1      -3.513 -10.290  12.002  0.00  0.00    +0.074 A 
ATOM     32  C   UNL     1      -2.645  -9.698  11.084  0.00  0.00    +0.136 A 
ATOM     33  C   UNL     1      -4.879 -10.359  11.726  0.00  0.00    +0.016 A 
ATOM     34  C   UNL     1      -3.143  -9.176   9.890  0.00  0.00    +0.039 A 
ATOM     35  C   UNL     1      -5.376  -9.837  10.532  0.00  0.00    +0.001 A 
ATOM     36  C   UNL     1      -4.508  -9.246   9.614  0.00  0.00    +0.003 A 
ENDBRANCH  27  29
ENDBRANCH  17  25
ENDBRANCH  12  17
TORSDOF 6
ENDMDL
MODEL 4
REMARK VINA RESULT:      -7.3      5.244      9.464
REMARK  Name = 45784109
REMARK  9 active torsions:
REMARK  status: ('A' for Active; 'I' for Inactive)
REMARK    1  A    between atoms: N_3  and  C_14
REMARK    2  A    between atoms: C_9  and  C_13
REMARK    3  A    between atoms: C_10  and  C_14
REMARK    4  A    between atoms: C_12  and  C_17
REMARK    5  A    between atoms: C_13  and  C_18
REMARK    6  A    between atoms: C_13  and  C_19
REMARK    7  A    between atoms: C_16  and  C_22
REMARK    8  A    between atoms: C_17  and  C_25
REMARK    9  A    between atoms: C_27  and  C_29
REMARK                            x       y       z     vdW  Elec       q    Type
REMARK                         _______ _______ _______ _____ _____    ______ ____
ROOT
ATOM      9  C   UNL     1      -7.103 -12.020  16.742  0.00  0.00    +0.000 C 
ATOM     10  C   UNL     1      -7.312 -11.641  18.227  0.00  0.00    +0.029 C 
ATOM     11  C   UNL     1      -5.781 -11.442  16.221  0.00  0.00    +0.012 C 
ATOM     12  C   UNL     1      -4.552 -11.887  17.042  0.00  0.00    +0.024 C 
ATOM     15  C   UNL     1      -6.060 -11.806  19.050  0.00  0.00    -0.023 C 
ATOM     16  C   UNL     1      -4.821 -11.930  18.539  0.00  0.00    -0.073 C 
ATOM     22  C   UNL     1      -3.648 -12.177  19.449  0.00  0.00    +0.039 C 
ENDROOT
BRANCH   9  13
ATOM     13  C   UNL     1      -7.162 -13.541  16.539  0.00  0.00    -0.013 C 
ATOM     18  C   UNL     1      -7.325 -13.874  15.060  0.00  0.00    +0.007 C 
ATOM     19  C   UNL     1      -8.298 -14.143  17.360  0.00  0.00    +0.007 C 
ENDBRANCH   9  13
BRANCH  10  14
ATOM     14  C   UNL     1      -7.827 -10.205  18.377  0.00  0.00    +0.092 C 
BRANCH  14   3
ATOM      3  N   UNL     1      -8.848  -9.915  17.371  0.00  0.00    -0.299 NA
ATOM      4  N   UNL     1     -11.024  -8.481  16.201  0.00  0.00    -0.312 N 
ATOM      7  N   UNL     1     -12.036  -7.655  14.217  0.00  0.00    -0.237 NA
ATOM      8  N   UNL     1     -14.279  -6.927  15.734  0.00  0.00    -0.258 NA
ATOM     20  C   UNL     1     -10.190  -9.992  17.961  0.00  0.00    +0.103 C 
ATOM     21  C   UNL     1      -8.634  -8.585  16.788  0.00  0.00    +0.103 C 
ATOM     23  C   UNL     1     -11.270  -9.747  16.905  0.00  0.00    +0.122 C 
ATOM     24  C   UNL     1      -9.662  -8.292  15.692  0.00  0.00    +0.122 C 
ATOM     26  C   UNL     1     -12.101  -7.874  15.545  0.00  0.00    +0.140 A 
ATOM     28  C   UNL     1     -13.203  -7.516  16.291  0.00  0.00    +0.154 A 
ATOM     30  C   UNL     1     -13.114  -7.067  13.661  0.00  0.00    +0.132 A 
ATOM     31  C   UNL     1     -14.215  -6.709  14.407  0.00  0.00    +0.130 A 
ENDBRANCH  14   3
ENDBRANCH  10  14
BRANCH  12  17
ATOM     17  C   UNL     1      -3.365 -10.987  16.675  0.00  0.00    +0.105 C 
BRANCH  17  25
ATOM      2  O   UNL     1      -3.515 -10.445  14.300  0.00  0.00    -0.420 OA
ATOM      5  N   UNL     1      -2.033 -12.050  14.781  0.00  0.00    -0.112 NA
ATOM      6  N   UNL     1      -2.014 -11.848  13.415  0.00  0.00    -0.107 NA
ATOM     25  C   UNL     1      -2.924 -11.211  15.257  0.00  0.00    +0.218 A 
ATOM     27  C   UNL     1      -2.894 -10.903  13.178  0.00  0.00    +0.251 A 
BRANCH  27  29
ATOM      1  F   UNL     1      -1.074  -9.540  11.540  0.00  0.00    -0.205 F 
ATOM     29  C   UNL     1      -3.294 -10.289  11.946  0.00  0.00    +0.074 A 
ATOM     32  C   UNL     1      -2.357  -9.619  11.159  0.00  0.00    +0.136 A 
ATOM     33  C   UNL     1      -4.625 -10.362  11.534  0.00  0.00    +0.016 A 
ATOM     34  C   UNL     1      -2.751  -9.023   9.961  0.00  0.00    +0.039 A 
ATOM     35  C   UNL     1      -5.019  -9.766  10.336  0.00  0.00    +0.001 A 
ATOM     36  C   UNL     1      -4.081  -9.096   9.550  0.00  0.00    +0.003 A 
ENDBRANCH  27  29
ENDBRANCH  17  25
ENDBRANCH  12  17
TORSDOF 6
ENDMDL
MODEL 5
REMARK VINA RESULT:      -7.1      4.109      5.270
REMARK  Name = 45784109
REMARK  9 active torsions:
REMARK  status: ('A' for Active; 'I' for Inactive)
REMARK    1  A    between atoms: N_3  and  C_14
REMARK    2  A    between atoms: C_9  and  C_13
REMARK    3  A    between atoms: C_10  and  C_14
REMARK    4  A    between atoms: C_12  and  C_17
REMARK    5  A    between atoms: C_13  and  C_18
REMARK    6  A    between atoms: C_13  and  C_19
REMARK    7  A    between atoms: C_16  and  C_22
REMARK    8  A    between atoms: C_17  and  C_25
REMARK    9  A    between atoms: C_27  and  C_29
REMARK                            x       y       z     vdW  Elec       q    Type
REMARK                         _______ _______ _______ _____ _____    ______ ____
ROOT
ATOM      9  C   UNL     1      -3.904 -10.058  11.586  0.00  0.00    +0.000 C 
ATOM     10  C   UNL     1      -5.131 -10.951  11.287  0.00  0.00    +0.029 C 
ATOM     11  C   UNL     1      -2.998 -10.722  12.632  0.00  0.00    +0.012 C 
ATOM     12  C   UNL     1      -2.520 -12.131  12.222  0.00  0.00    +0.024 C 
ATOM     15  C   UNL     1      -4.766 -12.405  11.131  0.00  0.00    -0.023 C 
ATOM     16  C   UNL     1      -3.601 -12.948  11.530  0.00  0.00    -0.073 C 
ATOM     22  C   UNL     1      -3.304 -14.396  11.247  0.00  0.00    +0.039 C 
ENDROOT
BRANCH   9  13
ATOM     13  C   UNL     1      -3.124  -9.732  10.304  0.00  0.00    -0.013 C 
ATOM     18  C   UNL     1      -1.839  -8.983  10.639  0.00  0.00    +0.007 C 
ATOM     19  C   UNL     1      -3.991  -8.920   9.346  0.00  0.00    +0.007 C 
ENDBRANCH   9  13
BRANCH  10  14
ATOM     14  C   UNL     1      -6.206 -10.816  12.371  0.00  0.00    +0.092 C 
BRANCH  14   3
ATOM      3  N   UNL     1      -7.529 -10.656  11.770  0.00  0.00    -0.299 NA
ATOM      4  N   UNL     1     -10.014  -9.349  11.243  0.00  0.00    -0.312 N 
ATOM      7  N   UNL     1     -11.697  -8.823   9.652  0.00  0.00    -0.237 NA
ATOM      8  N   UNL     1     -13.252  -7.765  11.732  0.00  0.00    -0.258 NA
ATOM     20  C   UNL     1      -8.562 -10.580  12.809  0.00  0.00    +0.103 C 
ATOM     21  C   UNL     1      -7.572  -9.450  10.934  0.00  0.00    +0.103 C 
ATOM     23  C   UNL     1      -9.958 -10.470  12.191  0.00  0.00    +0.122 C 
ATOM     24  C   UNL     1      -8.935  -9.302  10.252  0.00  0.00    +0.122 C 
ATOM     26  C   UNL     1     -11.270  -8.817  10.929  0.00  0.00    +0.140 A 
ATOM     28  C   UNL     1     -12.033  -8.296  11.952  0.00  0.00    +0.154 A 
ATOM     30  C   UNL     1     -12.917  -8.292   9.432  0.00  0.00    +0.132 A 
ATOM     31  C   UNL     1     -13.680  -7.772  10.454  0.00  0.00    +0.130 A 
ENDBRANCH  14   3
ENDBRANCH  10  14
BRANCH  12  17
ATOM     17  C   UNL     1      -1.943 -12.831  13.459  0.00  0.00    +0.105 C 
BRANCH  17  25
ATOM      2  O   UNL     1      -3.310 -12.076  15.333  0.00  0.00    -0.420 OA
ATOM      5  N   UNL     1      -1.265 -11.173  15.270  0.00  0.00    -0.112 NA
ATOM      6  N   UNL     1      -1.923 -10.661  16.371  0.00  0.00    -0.107 NA
ATOM     25  C   UNL     1      -2.112 -11.993  14.693  0.00  0.00    +0.218 A 
ATOM     27  C   UNL     1      -3.113 -11.215  16.370  0.00  0.00    +0.251 A 
BRANCH  27  29
ATOM      1  F   UNL     1      -5.358  -9.669  15.715  0.00  0.00    -0.205 F 
ATOM     29  C   UNL     1      -4.215 -11.057  17.273  0.00  0.00    +0.074 A 
ATOM     32  C   UNL     1      -5.314 -10.279  16.909  0.00  0.00    +0.136 A 
ATOM     33  C   UNL     1      -4.186 -11.684  18.519  0.00  0.00    +0.016 A 
ATOM     34  C   UNL     1      -6.384 -10.127  17.792  0.00  0.00    +0.039 A 
ATOM     35  C   UNL     1      -5.256 -11.532  19.401  0.00  0.00    +0.001 A 
ATOM     36  C   UNL     1      -6.355 -10.754  19.037  0.00  0.00    +0.003 A 
ENDBRANCH  27  29
ENDBRANCH  17  25
ENDBRANCH  12  17
TORSDOF 6
ENDMDL
MODEL 6
REMARK VINA RESULT:      -7.1     27.942     32.625
REMARK  Name = 45784109
REMARK  9 active torsions:
REMARK  status: ('A' for Active; 'I' for Inactive)
REMARK    1  A    between atoms: N_3  and  C_14
REMARK    2  A    between atoms: C_9  and  C_13
REMARK    3  A    between atoms: C_10  and  C_14
REMARK    4  A    between atoms: C_12  and  C_17
REMARK    5  A    between atoms: C_13  and  C_18
REMARK    6  A    between atoms: C_13  and  C_19
REMARK    7  A    between atoms: C_16  and  C_22
REMARK    8  A    between atoms: C_17  and  C_25
REMARK    9  A    between atoms: C_27  and  C_29
REMARK                            x       y       z     vdW  Elec       q    Type
REMARK                         _______ _______ _______ _____ _____    ______ ____
ROOT
ATOM      9  C   UNL     1      17.935   6.598  21.184  0.00  0.00    +0.000 C 
ATOM     10  C   UNL     1      19.317   7.222  21.487  0.00  0.00    +0.029 C 
ATOM     11  C   UNL     1      16.811   7.493  21.725  0.00  0.00    +0.012 C 
ATOM     12  C   UNL     1      16.856   8.934  21.173  0.00  0.00    +0.024 C 
ATOM     15  C   UNL     1      19.357   8.704  21.213  0.00  0.00    -0.023 C 
ATOM     16  C   UNL     1      18.271   9.483  21.058  0.00  0.00    -0.073 C 
ATOM     22  C   UNL     1      18.425  10.936  20.701  0.00  0.00    +0.039 C 
ENDROOT
BRANCH   9  13
ATOM     13  C   UNL     1      17.758   6.332  19.682  0.00  0.00    -0.013 C 
ATOM     18  C   UNL     1      16.279   6.203  19.335  0.00  0.00    +0.007 C 
ATOM     19  C   UNL     1      18.523   5.078  19.270  0.00  0.00    +0.007 C 
ENDBRANCH   9  13
BRANCH  10  14
ATOM     14  C   UNL     1      19.748   6.966  22.936  0.00  0.00    +0.092 C 
BRANCH  14   3
ATOM      3  N   UNL     1      20.664   5.829  23.009  0.00  0.00    -0.299 NA
ATOM      4  N   UNL     1      23.116   4.424  22.592  0.00  0.00    -0.312 N 
ATOM      7  N   UNL     1      24.713   2.892  23.456  0.00  0.00    -0.237 NA
ATOM      8  N   UNL     1      25.984   2.898  20.957  0.00  0.00    -0.258 NA
ATOM     20  C   UNL     1      21.046   5.387  21.662  0.00  0.00    +0.103 C 
ATOM     21  C   UNL     1      21.863   6.182  23.779  0.00  0.00    +0.103 C 
ATOM     23  C   UNL     1      21.960   4.161  21.725  0.00  0.00    +0.122 C 
ATOM     24  C   UNL     1      22.805   4.982  23.911  0.00  0.00    +0.122 C 
ATOM     26  C   UNL     1      24.257   3.630  22.425  0.00  0.00    +0.140 A 
ATOM     28  C   UNL     1      24.881   3.634  21.197  0.00  0.00    +0.154 A 
ATOM     30  C   UNL     1      25.815   2.155  23.214  0.00  0.00    +0.132 A 
ATOM     31  C   UNL     1      26.440   2.159  21.986  0.00  0.00    +0.130 A 
ENDBRANCH  14   3
ENDBRANCH  10  14
BRANCH  12  17
ATOM     17  C   UNL     1      15.942   9.816  22.033  0.00  0.00    +0.105 C 
BRANCH  17  25
ATOM      2  O   UNL     1      14.472   9.599  20.097  0.00  0.00    -0.420 OA
ATOM      5  N   UNL     1      13.495  10.510  21.891  0.00  0.00    -0.112 NA
ATOM      6  N   UNL     1      12.557  10.448  20.879  0.00  0.00    -0.107 NA
ATOM     25  C   UNL     1      14.598  10.004  21.390  0.00  0.00    +0.218 A 
ATOM     27  C   UNL     1      13.170   9.910  19.851  0.00  0.00    +0.251 A 
BRANCH  27  29
ATOM      1  F   UNL     1      10.873   8.358  19.433  0.00  0.00    -0.205 F 
ATOM     29  C   UNL     1      12.690   9.604  18.536  0.00  0.00    +0.074 A 
ATOM     32  C   UNL     1      11.543   8.828  18.370  0.00  0.00    +0.136 A 
ATOM     33  C   UNL     1      13.374  10.084  17.418  0.00  0.00    +0.016 A 
ATOM     34  C   UNL     1      11.080   8.532  17.088  0.00  0.00    +0.039 A 
ATOM     35  C   UNL     1      12.911   9.788  16.136  0.00  0.00    +0.001 A 
ATOM     36  C   UNL     1      11.764   9.012  15.971  0.00  0.00    +0.003 A 
ENDBRANCH  27  29
ENDBRANCH  17  25
ENDBRANCH  12  17
TORSDOF 6
ENDMDL
MODEL 7
REMARK VINA RESULT:      -7.1      3.651     10.490
REMARK  Name = 45784109
REMARK  9 active torsions:
REMARK  status: ('A' for Active; 'I' for Inactive)
REMARK    1  A    between atoms: N_3  and  C_14
REMARK    2  A    between atoms: C_9  and  C_13
REMARK    3  A    between atoms: C_10  and  C_14
REMARK    4  A    between atoms: C_12  and  C_17
REMARK    5  A    between atoms: C_13  and  C_18
REMARK    6  A    between atoms: C_13  and  C_19
REMARK    7  A    between atoms: C_16  and  C_22
REMARK    8  A    between atoms: C_17  and  C_25
REMARK    9  A    between atoms: C_27  and  C_29
REMARK                            x       y       z     vdW  Elec       q    Type
REMARK                         _______ _______ _______ _____ _____    ______ ____
ROOT
ATOM      9  C   UNL     1      -3.681 -11.926  12.408  0.00  0.00    +0.000 C 
ATOM     10  C   UNL     1      -2.716 -11.330  13.460  0.00  0.00    +0.029 C 
ATOM     11  C   UNL     1      -4.159 -10.836  11.439  0.00  0.00    +0.012 C 
ATOM     12  C   UNL     1      -3.004 -10.106  10.721  0.00  0.00    +0.024 C 
ATOM     15  C   UNL     1      -1.708 -10.387  12.854  0.00  0.00    -0.023 C 
ATOM     16  C   UNL     1      -1.812  -9.840  11.629  0.00  0.00    -0.073 C 
ATOM     22  C   UNL     1      -0.704  -8.979  11.087  0.00  0.00    +0.039 C 
ENDROOT
BRANCH   9  13
ATOM     13  C   UNL     1      -3.032 -13.094  11.652  0.00  0.00    -0.013 C 
ATOM     18  C   UNL     1      -4.020 -13.702  10.662  0.00  0.00    +0.007 C 
ATOM     19  C   UNL     1      -2.530 -14.149  12.634  0.00  0.00    +0.007 C 
ENDBRANCH   9  13
BRANCH  10  14
ATOM     14  C   UNL     1      -3.476 -10.605  14.576  0.00  0.00    +0.092 C 
BRANCH  14   3
ATOM      3  N   UNL     1      -4.349 -11.533  15.294  0.00  0.00    -0.299 NA
ATOM      4  N   UNL     1      -6.319 -12.305  17.212  0.00  0.00    -0.312 N 
ATOM      7  N   UNL     1      -8.190 -13.682  17.712  0.00  0.00    -0.237 NA
ATOM      8  N   UNL     1      -8.051 -12.806  20.372  0.00  0.00    -0.258 NA
ATOM     20  C   UNL     1      -4.028 -11.539  16.727  0.00  0.00    +0.103 C 
ATOM     21  C   UNL     1      -5.758 -11.170  15.099  0.00  0.00    +0.103 C 
ATOM     23  C   UNL     1      -4.896 -12.549  17.480  0.00  0.00    +0.122 C 
ATOM     24  C   UNL     1      -6.685 -12.168  15.799  0.00  0.00    +0.122 C 
ATOM     26  C   UNL     1      -7.255 -12.805  18.126  0.00  0.00    +0.140 A 
ATOM     28  C   UNL     1      -7.187 -12.373  19.432  0.00  0.00    +0.154 A 
ATOM     30  C   UNL     1      -9.053 -14.116  18.652  0.00  0.00    +0.132 A 
ATOM     31  C   UNL     1      -8.985 -13.684  19.958  0.00  0.00    +0.130 A 
ENDBRANCH  14   3
ENDBRANCH  10  14
BRANCH  12  17
ATOM     17  C   UNL     1      -3.558  -8.829  10.076  0.00  0.00    +0.105 C 
BRANCH  17  25
ATOM      2  O   UNL     1      -5.765  -8.261   9.203  0.00  0.00    -0.420 OA
ATOM      5  N   UNL     1      -4.887 -10.124   8.330  0.00  0.00    -0.112 NA
ATOM      6  N   UNL     1      -6.126  -9.924   7.752  0.00  0.00    -0.107 NA
ATOM     25  C   UNL     1      -4.718  -9.130   9.171  0.00  0.00    +0.218 A 
ATOM     27  C   UNL     1      -6.602  -8.826   8.290  0.00  0.00    +0.251 A 
BRANCH  27  29
ATOM      1  F   UNL     1      -7.301  -7.790   5.781  0.00  0.00    -0.205 F 
ATOM     29  C   UNL     1      -7.843  -8.143   8.070  0.00  0.00    +0.074 A 
ATOM     32  C   UNL     1      -8.153  -7.641   6.806  0.00  0.00    +0.136 A 
ATOM     33  C   UNL     1      -8.741  -7.978   9.125  0.00  0.00    +0.016 A 
ATOM     34  C   UNL     1      -9.361  -6.975   6.597  0.00  0.00    +0.039 A 
ATOM     35  C   UNL     1      -9.949  -7.313   8.916  0.00  0.00    +0.001 A 
ATOM     36  C   UNL     1     -10.259  -6.812   7.651  0.00  0.00    +0.003 A 
ENDBRANCH  27  29
ENDBRANCH  17  25
ENDBRANCH  12  17
TORSDOF 6
ENDMDL
MODEL 8
REMARK VINA RESULT:      -6.9     26.081     31.573
REMARK  Name = 45784109
REMARK  9 active torsions:
REMARK  status: ('A' for Active; 'I' for Inactive)
REMARK    1  A    between atoms: N_3  and  C_14
REMARK    2  A    between atoms: C_9  and  C_13
REMARK    3  A    between atoms: C_10  and  C_14
REMARK    4  A    between atoms: C_12  and  C_17
REMARK    5  A    between atoms: C_13  and  C_18
REMARK    6  A    between atoms: C_13  and  C_19
REMARK    7  A    between atoms: C_16  and  C_22
REMARK    8  A    between atoms: C_17  and  C_25
REMARK    9  A    between atoms: C_27  and  C_29
REMARK                            x       y       z     vdW  Elec       q    Type
REMARK                         _______ _______ _______ _____ _____    ______ ____
ROOT
ATOM      9  C   UNL     1     -10.966   9.726  31.995  0.00  0.00    +0.000 C 
ATOM     10  C   UNL     1     -10.635  10.570  33.248  0.00  0.00    +0.029 C 
ATOM     11  C   UNL     1     -11.743   8.462  32.387  0.00  0.00    +0.012 C 
ATOM     12  C   UNL     1     -13.043   8.759  33.165  0.00  0.00    +0.024 C 
ATOM     15  C   UNL     1     -11.803  10.685  34.194  0.00  0.00    -0.023 C 
ATOM     16  C   UNL     1     -12.891   9.895  34.166  0.00  0.00    -0.073 C 
ATOM     22  C   UNL     1     -14.040  10.153  35.103  0.00  0.00    +0.039 C 
ENDROOT
BRANCH   9  13
ATOM     13  C   UNL     1     -11.737  10.550  30.954  0.00  0.00    -0.013 C 
ATOM     18  C   UNL     1     -11.743   9.835  29.607  0.00  0.00    +0.007 C 
ATOM     19  C   UNL     1     -11.132  11.945  30.825  0.00  0.00    +0.007 C 
ENDBRANCH   9  13
BRANCH  10  14
ATOM     14  C   UNL     1      -9.427  10.007  34.005  0.00  0.00    +0.092 C 
BRANCH  14   3
ATOM      3  N   UNL     1      -8.472  11.069  34.316  0.00  0.00    -0.299 NA
ATOM      4  N   UNL     1      -5.964  12.433  34.216  0.00  0.00    -0.312 N 
ATOM      7  N   UNL     1      -4.823  14.514  34.114  0.00  0.00    -0.237 NA
ATOM      8  N   UNL     1      -2.408  13.145  34.507  0.00  0.00    -0.258 NA
ATOM     20  C   UNL     1      -7.302  10.522  35.014  0.00  0.00    +0.103 C 
ATOM     21  C   UNL     1      -8.047  11.755  33.090  0.00  0.00    +0.103 C 
ATOM     23  C   UNL     1      -6.320  11.633  35.395  0.00  0.00    +0.122 C 
ATOM     24  C   UNL     1      -7.090  12.908  33.407  0.00  0.00    +0.122 C 
ATOM     26  C   UNL     1      -4.778  13.176  34.261  0.00  0.00    +0.140 A 
ATOM     28  C   UNL     1      -3.592  12.502  34.453  0.00  0.00    +0.154 A 
ATOM     30  C   UNL     1      -3.640  15.157  34.169  0.00  0.00    +0.132 A 
ATOM     31  C   UNL     1      -2.453  14.483  34.361  0.00  0.00    +0.130 A 
ENDBRANCH  14   3
ENDBRANCH  10  14
BRANCH  12  17
ATOM     17  C   UNL     1     -13.536   7.458  33.809  0.00  0.00    +0.105 C 
BRANCH  17  25
ATOM      2  O   UNL     1     -13.854   5.256  32.807  0.00  0.00    -0.420 OA
ATOM      5  N   UNL     1     -15.119   6.865  31.904  0.00  0.00    -0.112 NA
ATOM      6  N   UNL     1     -15.399   5.682  31.246  0.00  0.00    -0.107 NA
ATOM     25  C   UNL     1     -14.212   6.569  32.806  0.00  0.00    +0.218 A 
ATOM     27  C   UNL     1     -14.638   4.770  31.805  0.00  0.00    +0.251 A 
BRANCH  27  29
ATOM      1  F   UNL     1     -15.631   2.818  33.554  0.00  0.00    -0.205 F 
ATOM     29  C   UNL     1     -14.509   3.369  31.531  0.00  0.00    +0.074 A 
ATOM     32  C   UNL     1     -15.016   2.429  32.428  0.00  0.00    +0.136 A 
ATOM     33  C   UNL     1     -13.872   2.947  30.364  0.00  0.00    +0.016 A 
ATOM     34  C   UNL     1     -14.886   1.066  32.157  0.00  0.00    +0.039 A 
ATOM     35  C   UNL     1     -13.742   1.584  30.094  0.00  0.00    +0.001 A 
ATOM     36  C   UNL     1     -14.250   0.644  30.990  0.00  0.00    +0.003 A 
ENDBRANCH  27  29
ENDBRANCH  17  25
ENDBRANCH  12  17
TORSDOF 6
ENDMDL
MODEL 9
REMARK VINA RESULT:      -6.8     26.086     32.194
REMARK  Name = 45784109
REMARK  9 active torsions:
REMARK  status: ('A' for Active; 'I' for Inactive)
REMARK    1  A    between atoms: N_3  and  C_14
REMARK    2  A    between atoms: C_9  and  C_13
REMARK    3  A    between atoms: C_10  and  C_14
REMARK    4  A    between atoms: C_12  and  C_17
REMARK    5  A    between atoms: C_13  and  C_18
REMARK    6  A    between atoms: C_13  and  C_19
REMARK    7  A    between atoms: C_16  and  C_22
REMARK    8  A    between atoms: C_17  and  C_25
REMARK    9  A    between atoms: C_27  and  C_29
REMARK                            x       y       z     vdW  Elec       q    Type
REMARK                         _______ _______ _______ _____ _____    ______ ____
ROOT
ATOM      9  C   UNL     1     -11.292  10.289  31.561  0.00  0.00    +0.000 C 
ATOM     10  C   UNL     1     -11.564  11.258  32.735  0.00  0.00    +0.029 C 
ATOM     11  C   UNL     1     -11.608   8.845  31.973  0.00  0.00    +0.012 C 
ATOM     12  C   UNL     1     -13.056   8.653  32.472  0.00  0.00    +0.024 C 
ATOM     15  C   UNL     1     -12.860  10.960  33.445  0.00  0.00    -0.023 C 
ATOM     16  C   UNL     1     -13.547   9.809  33.331  0.00  0.00    -0.073 C 
ATOM     22  C   UNL     1     -14.876   9.648  34.017  0.00  0.00    +0.039 C 
ENDROOT
BRANCH   9  13
ATOM     13  C   UNL     1     -12.080  10.694  30.308  0.00  0.00    -0.013 C 
ATOM     18  C   UNL     1     -11.551   9.954  29.084  0.00  0.00    +0.007 C 
ATOM     19  C   UNL     1     -12.011  12.204  30.100  0.00  0.00    +0.007 C 
ENDBRANCH   9  13
BRANCH  10  14
ATOM     14  C   UNL     1     -10.419  11.248  33.754  0.00  0.00    +0.092 C 
BRANCH  14   3
ATOM      3  N   UNL     1     -10.888  10.769  35.054  0.00  0.00    -0.299 NA
ATOM      4  N   UNL     1     -10.626   9.897  37.760  0.00  0.00    -0.312 N 
ATOM      7  N   UNL     1     -11.517   9.919  39.963  0.00  0.00    -0.237 NA
ATOM      8  N   UNL     1      -9.612   7.994  40.691  0.00  0.00    -0.258 NA
ATOM     20  C   UNL     1     -10.312   9.453  35.356  0.00  0.00    +0.103 C 
ATOM     21  C   UNL     1     -10.535  11.724  36.112  0.00  0.00    +0.103 C 
ATOM     23  C   UNL     1     -10.841   8.916  36.689  0.00  0.00    +0.122 C 
ATOM     24  C   UNL     1     -11.071  11.262  37.470  0.00  0.00    +0.122 C 
ATOM     26  C   UNL     1     -10.620   9.434  39.082  0.00  0.00    +0.140 A 
ATOM     28  C   UNL     1      -9.684   8.489  39.439  0.00  0.00    +0.154 A 
ATOM     30  C   UNL     1     -11.446   9.424  41.214  0.00  0.00    +0.132 A 
ATOM     31  C   UNL     1     -10.509   8.478  41.572  0.00  0.00    +0.130 A 
ENDBRANCH  14   3
ENDBRANCH  10  14
BRANCH  12  17
ATOM     17  C   UNL     1     -13.154   7.297  33.183  0.00  0.00    +0.105 C 
BRANCH  17  25
ATOM      2  O   UNL     1     -13.662   5.048  32.386  0.00  0.00    -0.420 OA
ATOM      5  N   UNL     1     -15.184   6.586  31.818  0.00  0.00    -0.112 NA
ATOM      6  N   UNL     1     -15.594   5.370  31.306  0.00  0.00    -0.107 NA
ATOM     25  C   UNL     1     -14.052   6.351  32.439  0.00  0.00    +0.218 A 
ATOM     27  C   UNL     1     -14.677   4.501  31.661  0.00  0.00    +0.251 A 
BRANCH  27  29
ATOM      1  F   UNL     1     -15.493   2.598  33.550  0.00  0.00    -0.205 F 
ATOM     29  C   UNL     1     -14.581   3.093  31.410  0.00  0.00    +0.074 A 
ATOM     32  C   UNL     1     -14.997   2.178  32.377  0.00  0.00    +0.136 A 
ATOM     33  C   UNL     1     -14.067   2.638  30.196  0.00  0.00    +0.016 A 
ATOM     34  C   UNL     1     -14.900   0.808  32.129  0.00  0.00    +0.039 A 
ATOM     35  C   UNL     1     -13.970   1.269  29.948  0.00  0.00    +0.001 A 
ATOM     36  C   UNL     1     -14.387   0.354  30.915  0.00  0.00    +0.003 A 
ENDBRANCH  27  29
ENDBRANCH  17  25
ENDBRANCH  12  17
TORSDOF 6
ENDMDL
MODEL 10
REMARK VINA RESULT:      -6.7     23.337     27.268
REMARK  Name = 45784109
REMARK  9 active torsions:
REMARK  status: ('A' for Active; 'I' for Inactive)
REMARK    1  A    between atoms: N_3  and  C_14
REMARK    2  A    between atoms: C_9  and  C_13
REMARK    3  A    between atoms: C_10  and  C_14
REMARK    4  A    between atoms: C_12  and  C_17
REMARK    5  A    between atoms: C_13  and  C_18
REMARK    6  A    between atoms: C_13  and  C_19
REMARK    7  A    between atoms: C_16  and  C_22
REMARK    8  A    between atoms: C_17  and  C_25
REMARK    9  A    between atoms: C_27  and  C_29
REMARK                            x       y       z     vdW  Elec       q    Type
REMARK                         _______ _______ _______ _____ _____    ______ ____
ROOT
ATOM      9  C   UNL     1       9.201   9.136   2.461  0.00  0.00    +0.000 C 
ATOM     10  C   UNL     1       8.895   9.630   3.894  0.00  0.00    +0.029 C 
ATOM     11  C   UNL     1      10.041   7.853   2.502  0.00  0.00    +0.012 C 
ATOM     12  C   UNL     1       9.381   6.714   3.308  0.00  0.00    +0.024 C 
ATOM     15  C   UNL     1       8.489   8.511   4.819  0.00  0.00    -0.023 C 
ATOM     16  C   UNL     1       8.685   7.203   4.570  0.00  0.00    -0.073 C 
ATOM     22  C   UNL     1       8.162   6.163   5.522  0.00  0.00    +0.039 C 
ENDROOT
BRANCH   9  13
ATOM     13  C   UNL     1       7.911   8.929   1.654  0.00  0.00    -0.013 C 
ATOM     18  C   UNL     1       8.154   9.220   0.177  0.00  0.00    +0.007 C 
ATOM     19  C   UNL     1       6.793   9.810   2.204  0.00  0.00    +0.007 C 
ENDBRANCH   9  13
BRANCH  10  14
ATOM     14  C   UNL     1      10.089  10.376   4.501  0.00  0.00    +0.092 C 
BRANCH  14   3
ATOM      3  N   UNL     1      10.017  10.363   5.962  0.00  0.00    -0.299 NA
ATOM      4  N   UNL     1      10.618  11.249   8.610  0.00  0.00    -0.312 N 
ATOM      7  N   UNL     1       9.822  11.647  10.813  0.00  0.00    -0.237 NA
ATOM      8  N   UNL     1      12.462  12.146  11.614  0.00  0.00    -0.258 NA
ATOM     20  C   UNL     1      11.344  10.123   6.541  0.00  0.00    +0.103 C 
ATOM     21  C   UNL     1       9.476  11.633   6.462  0.00  0.00    +0.103 C 
ATOM     23  C   UNL     1      11.273  10.051   8.068  0.00  0.00    +0.122 C 
ATOM     24  C   UNL     1       9.341  11.611   7.987  0.00  0.00    +0.122 C 
ATOM     26  C   UNL     1      10.854  11.577   9.950  0.00  0.00    +0.140 A 
ATOM     28  C   UNL     1      12.152  11.823  10.343  0.00  0.00    +0.154 A 
ATOM     30  C   UNL     1      10.132  11.969  12.084  0.00  0.00    +0.132 A 
ATOM     31  C   UNL     1      11.430  12.215  12.477  0.00  0.00    +0.130 A 
ENDBRANCH  14   3
ENDBRANCH  10  14
BRANCH  12  17
ATOM     17  C   UNL     1      10.436   5.636   3.587  0.00  0.00    +0.105 C 
BRANCH  17  25
ATOM      2  O   UNL     1      12.254   5.127   2.042  0.00  0.00    -0.420 OA
ATOM      5  N   UNL     1      10.262   4.335   1.404  0.00  0.00    -0.112 NA
ATOM      6  N   UNL     1      11.190   3.977   0.446  0.00  0.00    -0.107 NA
ATOM     25  C   UNL     1      10.927   5.005   2.317  0.00  0.00    +0.218 A 
ATOM     27  C   UNL     1      12.339   4.460   0.858  0.00  0.00    +0.251 A 
BRANCH  27  29
ATOM      1  F   UNL     1      14.480   3.172   2.129  0.00  0.00    -0.205 F 
ATOM     29  C   UNL     1      13.643   4.394   0.267  0.00  0.00    +0.074 A 
ATOM     32  C   UNL     1      14.683   3.744   0.933  0.00  0.00    +0.136 A 
ATOM     33  C   UNL     1      13.873   4.984  -0.976  0.00  0.00    +0.016 A 
ATOM     34  C   UNL     1      15.951   3.684   0.355  0.00  0.00    +0.039 A 
ATOM     35  C   UNL     1      15.141   4.924  -1.554  0.00  0.00    +0.001 A 
ATOM     36  C   UNL     1      16.180   4.273  -0.888  0.00  0.00    +0.003 A 
ENDBRANCH  27  29
ENDBRANCH  17  25
ENDBRANCH  12  17
TORSDOF 6
ENDMDL
