MODEL 1
REMARK VINA RESULT:      -6.9      0.000      0.000
REMARK  Name = 26762299
REMARK  10 active torsions:
REMARK  status: ('A' for Active; 'I' for Inactive)
REMARK    1  A    between atoms: N_6  and  C_11
REMARK    2  A    between atoms: N_7  and  C_23
REMARK    3  A    between atoms: N_8  and  C_26
REMARK    4  A    between atoms: N_8  and  C_30
REMARK    5  A    between atoms: N_8  and  C_31
REMARK    6  A    between atoms: C_10  and  C_16
REMARK    7  A    between atoms: C_16  and  C_17
REMARK    8  A    between atoms: C_17  and  C_19
REMARK    9  A    between atoms: C_18  and  C_20
REMARK   10  A    between atoms: C_23  and  C_27
REMARK                            x       y       z     vdW  Elec       q    Type
REMARK                         _______ _______ _______ _____ _____    ______ ____
ROOT
ATOM      1  O   UNL     1      11.013   5.661  21.520  0.00  0.00    -0.274 OA
ATOM      4  N   UNL     1      12.343   8.843  20.738  0.00  0.00    -0.285 NA
ATOM      5  N   UNL     1      10.343   7.737  22.237  0.00  0.00    -0.313 N 
ATOM      9  C   UNL     1      11.784   7.568  20.278  0.00  0.00    +0.145 C 
ATOM     10  C   UNL     1      11.264   9.771  21.083  0.00  0.00    +0.075 C 
ATOM     11  C   UNL     1      13.939   7.959  19.276  0.00  0.00    +0.089 C 
ATOM     12  C   UNL     1      13.013   6.837  19.761  0.00  0.00    +0.052 C 
ATOM     13  C   UNL     1      13.232   9.263  19.654  0.00  0.00    +0.107 C 
ATOM     14  C   UNL     1      10.542   9.176  22.301  0.00  0.00    +0.123 C 
ATOM     15  C   UNL     1      11.054   6.886  21.412  0.00  0.00    +0.230 C 
ATOM     35  H   UNL     1       9.778   7.313  22.968  0.00  0.00    +0.149 HD
ENDROOT
BRANCH  11   6
ATOM      2  O   UNL     1      16.004   6.078  18.606  0.00  0.00    -0.270 OA
ATOM      6  N   UNL     1      15.243   7.857  19.885  0.00  0.00    -0.307 N 
ATOM     18  C   UNL     1      16.178   6.911  19.492  0.00  0.00    +0.244 C 
ATOM     36  H   UNL     1      15.415   8.440  20.697  0.00  0.00    +0.149 HD
BRANCH  18  20
ATOM     20  C   UNL     1      17.464   6.920  20.237  0.00  0.00    +0.037 A 
ATOM     21  C   UNL     1      18.421   5.937  19.986  0.00  0.00    +0.015 A 
ATOM     22  C   UNL     1      17.713   7.911  21.186  0.00  0.00    +0.015 A 
ATOM     24  C   UNL     1      19.629   5.945  20.686  0.00  0.00    +0.024 A 
ATOM     25  C   UNL     1      18.919   7.919  21.886  0.00  0.00    +0.024 A 
ATOM     26  C   UNL     1      19.877   6.936  21.636  0.00  0.00    +0.029 A 
BRANCH  26   8
ATOM      8  N   UNL     1      21.097   6.945  22.343  0.00  0.00    -0.336 N 
ATOM     30  C   UNL     1      21.109   6.826  23.789  0.00  0.00    +0.129 C 
ATOM     31  C   UNL     1      22.355   7.081  21.636  0.00  0.00    +0.129 C 
ENDBRANCH  26   8
ENDBRANCH  18  20
ENDBRANCH  11   6
BRANCH  10  16
ATOM     16  C   UNL     1      11.766  11.176  21.421  0.00  0.00    +0.029 C 
BRANCH  16  17
ATOM     17  C   UNL     1      12.178  11.275  22.883  0.00  0.00    +0.097 C 
BRANCH  17  19
ATOM      3  O   UNL     1      13.981  12.738  23.572  0.00  0.00    -0.276 OA
ATOM      7  N   UNL     1      14.493  10.739  22.507  0.00  0.00    -0.311 N 
ATOM     19  C   UNL     1      13.631  11.689  23.039  0.00  0.00    +0.213 C 
ATOM     37  H   UNL     1      14.112   9.889  22.100  0.00  0.00    +0.149 HD
BRANCH   7  23
ATOM     23  C   UNL     1      15.927  10.901  22.531  0.00  0.00    +0.139 C 
BRANCH  23  27
ATOM     27  C   UNL     1      16.412  11.776  21.411  0.00  0.00    -0.030 A 
ATOM     28  C   UNL     1      17.094  12.959  21.694  0.00  0.00    +0.005 A 
ATOM     29  C   UNL     1      16.182  11.404  20.086  0.00  0.00    +0.005 A 
ATOM     32  C   UNL     1      17.545  13.771  20.653  0.00  0.00    +0.000 A 
ATOM     33  C   UNL     1      16.632  12.215  19.045  0.00  0.00    +0.000 A 
ATOM     34  C   UNL     1      17.313  13.399  19.329  0.00  0.00    +0.000 A 
ENDBRANCH  23  27
ENDBRANCH   7  23
ENDBRANCH  17  19
ENDBRANCH  16  17
ENDBRANCH  10  16
TORSDOF 8
ENDMDL
MODEL 2
REMARK VINA RESULT:      -6.9     16.770     19.155
REMARK  Name = 26762299
REMARK  10 active torsions:
REMARK  status: ('A' for Active; 'I' for Inactive)
REMARK    1  A    between atoms: N_6  and  C_11
REMARK    2  A    between atoms: N_7  and  C_23
REMARK    3  A    between atoms: N_8  and  C_26
REMARK    4  A    between atoms: N_8  and  C_30
REMARK    5  A    between atoms: N_8  and  C_31
REMARK    6  A    between atoms: C_10  and  C_16
REMARK    7  A    between atoms: C_16  and  C_17
REMARK    8  A    between atoms: C_17  and  C_19
REMARK    9  A    between atoms: C_18  and  C_20
REMARK   10  A    between atoms: C_23  and  C_27
REMARK                            x       y       z     vdW  Elec       q    Type
REMARK                         _______ _______ _______ _____ _____    ______ ____
ROOT
ATOM      1  O   UNL     1      10.868  11.086   5.392  0.00  0.00    -0.274 OA
ATOM      4  N   UNL     1      11.457   7.761   6.443  0.00  0.00    -0.285 NA
ATOM      5  N   UNL     1       9.599   9.743   6.755  0.00  0.00    -0.313 N 
ATOM      9  C   UNL     1      11.925   9.147   6.337  0.00  0.00    +0.145 C 
ATOM     10  C   UNL     1      10.603   7.608   7.623  0.00  0.00    +0.075 C 
ATOM     11  C   UNL     1      13.508   7.636   5.329  0.00  0.00    +0.089 C 
ATOM     12  C   UNL     1      12.953   9.062   5.219  0.00  0.00    +0.052 C 
ATOM     13  C   UNL     1      12.680   6.960   6.425  0.00  0.00    +0.107 C 
ATOM     14  C   UNL     1       9.344   8.450   7.370  0.00  0.00    +0.123 C 
ATOM     15  C   UNL     1      10.757  10.068   6.074  0.00  0.00    +0.230 C 
ATOM     35  H   UNL     1       8.811  10.378   6.664  0.00  0.00    +0.149 HD
ENDROOT
BRANCH  11   6
ATOM      2  O   UNL     1      15.521   7.478   3.286  0.00  0.00    -0.270 OA
ATOM      6  N   UNL     1      13.406   6.940   4.070  0.00  0.00    -0.307 N 
ATOM     18  C   UNL     1      14.437   6.920   3.142  0.00  0.00    +0.244 C 
ATOM     36  H   UNL     1      12.499   6.549   3.836  0.00  0.00    +0.149 HD
BRANCH  18  20
ATOM     20  C   UNL     1      14.164   6.180   1.883  0.00  0.00    +0.037 A 
ATOM     21  C   UNL     1      14.177   4.785   1.877  0.00  0.00    +0.015 A 
ATOM     22  C   UNL     1      13.892   6.880   0.707  0.00  0.00    +0.015 A 
ATOM     24  C   UNL     1      13.921   4.090   0.694  0.00  0.00    +0.024 A 
ATOM     25  C   UNL     1      13.637   6.185  -0.475  0.00  0.00    +0.024 A 
ATOM     26  C   UNL     1      13.651   4.791  -0.482  0.00  0.00    +0.029 A 
BRANCH  26   8
ATOM      8  N   UNL     1      13.391   4.089  -1.676  0.00  0.00    -0.336 N 
ATOM     30  C   UNL     1      12.520   2.929  -1.672  0.00  0.00    +0.129 C 
ATOM     31  C   UNL     1      13.995   4.513  -2.924  0.00  0.00    +0.129 C 
ENDBRANCH  26   8
ENDBRANCH  18  20
ENDBRANCH  11   6
BRANCH  10  16
ATOM     16  C   UNL     1      10.203   6.155   7.890  0.00  0.00    +0.029 C 
BRANCH  16  17
ATOM     17  C   UNL     1       9.176   5.674   6.875  0.00  0.00    +0.097 C 
BRANCH  17  19
ATOM      3  O   UNL     1       9.905   3.497   6.107  0.00  0.00    -0.276 OA
ATOM      7  N   UNL     1      10.145   5.328   4.701  0.00  0.00    -0.311 N 
ATOM     19  C   UNL     1       9.774   4.696   5.879  0.00  0.00    +0.213 C 
ATOM     37  H   UNL     1       9.980   6.326   4.594  0.00  0.00    +0.149 HD
BRANCH   7  23
ATOM     23  C   UNL     1      10.740   4.614   3.597  0.00  0.00    +0.139 C 
BRANCH  23  27
ATOM     27  C   UNL     1      10.464   5.283   2.281  0.00  0.00    -0.030 A 
ATOM     28  C   UNL     1      10.397   6.674   2.205  0.00  0.00    +0.005 A 
ATOM     29  C   UNL     1      10.276   4.512   1.133  0.00  0.00    +0.005 A 
ATOM     32  C   UNL     1      10.141   7.295   0.983  0.00  0.00    +0.000 A 
ATOM     33  C   UNL     1      10.021   5.133  -0.089  0.00  0.00    +0.000 A 
ATOM     34  C   UNL     1       9.952   6.524  -0.164  0.00  0.00    +0.000 A 
ENDBRANCH  23  27
ENDBRANCH   7  23
ENDBRANCH  17  19
ENDBRANCH  16  17
ENDBRANCH  10  16
TORSDOF 8
ENDMDL
MODEL 3
REMARK VINA RESULT:      -6.8      2.318      3.344
REMARK  Name = 26762299
REMARK  10 active torsions:
REMARK  status: ('A' for Active; 'I' for Inactive)
REMARK    1  A    between atoms: N_6  and  C_11
REMARK    2  A    between atoms: N_7  and  C_23
REMARK    3  A    between atoms: N_8  and  C_26
REMARK    4  A    between atoms: N_8  and  C_30
REMARK    5  A    between atoms: N_8  and  C_31
REMARK    6  A    between atoms: C_10  and  C_16
REMARK    7  A    between atoms: C_16  and  C_17
REMARK    8  A    between atoms: C_17  and  C_19
REMARK    9  A    between atoms: C_18  and  C_20
REMARK   10  A    between atoms: C_23  and  C_27
REMARK                            x       y       z     vdW  Elec       q    Type
REMARK                         _______ _______ _______ _____ _____    ______ ____
ROOT
ATOM      1  O   UNL     1      10.962   5.880  21.340  0.00  0.00    -0.274 OA
ATOM      4  N   UNL     1      12.571   8.979  20.777  0.00  0.00    -0.285 NA
ATOM      5  N   UNL     1      10.466   7.954  22.190  0.00  0.00    -0.313 N 
ATOM      9  C   UNL     1      11.907   7.791  20.231  0.00  0.00    +0.145 C 
ATOM     10  C   UNL     1      11.572   9.972  21.179  0.00  0.00    +0.075 C 
ATOM     11  C   UNL     1      14.099   8.057  19.267  0.00  0.00    +0.089 C 
ATOM     12  C   UNL     1      13.074   6.991  19.671  0.00  0.00    +0.052 C 
ATOM     13  C   UNL     1      13.503   9.390  19.728  0.00  0.00    +0.107 C 
ATOM     14  C   UNL     1      10.789   9.363  22.351  0.00  0.00    +0.123 C 
ATOM     15  C   UNL     1      11.110   7.101  21.314  0.00  0.00    +0.230 C 
ATOM     35  H   UNL     1       9.859   7.533  22.889  0.00  0.00    +0.149 HD
ENDROOT
BRANCH  11   6
ATOM      2  O   UNL     1      16.019   6.081  18.455  0.00  0.00    -0.270 OA
ATOM      6  N   UNL     1      15.383   7.802  19.873  0.00  0.00    -0.307 N 
ATOM     18  C   UNL     1      16.246   6.821  19.408  0.00  0.00    +0.244 C 
ATOM     36  H   UNL     1      15.589   8.300  20.733  0.00  0.00    +0.149 HD
BRANCH  18  20
ATOM     20  C   UNL     1      17.518   6.666  20.160  0.00  0.00    +0.037 A 
ATOM     21  C   UNL     1      18.431   5.679  19.789  0.00  0.00    +0.015 A 
ATOM     22  C   UNL     1      17.800   7.509  21.235  0.00  0.00    +0.015 A 
ATOM     24  C   UNL     1      19.626   5.534  20.495  0.00  0.00    +0.024 A 
ATOM     25  C   UNL     1      18.994   7.363  21.941  0.00  0.00    +0.024 A 
ATOM     26  C   UNL     1      19.907   6.375  21.571  0.00  0.00    +0.029 A 
BRANCH  26   8
ATOM      8  N   UNL     1      21.115   6.230  22.284  0.00  0.00    -0.336 N 
ATOM     30  C   UNL     1      21.760   7.384  22.878  0.00  0.00    +0.129 C 
ATOM     31  C   UNL     1      21.731   4.925  22.428  0.00  0.00    +0.129 C 
ENDBRANCH  26   8
ENDBRANCH  18  20
ENDBRANCH  11   6
BRANCH  10  16
ATOM     16  C   UNL     1      12.191  11.303  21.612  0.00  0.00    +0.029 C 
BRANCH  16  17
ATOM     17  C   UNL     1      11.137  12.399  21.686  0.00  0.00    +0.097 C 
BRANCH  17  19
ATOM      3  O   UNL     1      11.541  14.584  22.649  0.00  0.00    -0.276 OA
ATOM      7  N   UNL     1      11.487  12.728  24.043  0.00  0.00    -0.311 N 
ATOM     19  C   UNL     1      11.409  13.375  22.817  0.00  0.00    +0.213 C 
ATOM     37  H   UNL     1      11.346  11.722  24.088  0.00  0.00    +0.149 HD
BRANCH   7  23
ATOM     23  C   UNL     1      11.739  13.437  25.274  0.00  0.00    +0.139 C 
BRANCH  23  27
ATOM     27  C   UNL     1      13.040  13.027  25.903  0.00  0.00    -0.030 A 
ATOM     28  C   UNL     1      13.775  11.973  25.361  0.00  0.00    +0.005 A 
ATOM     29  C   UNL     1      13.513  13.700  27.029  0.00  0.00    +0.005 A 
ATOM     32  C   UNL     1      14.983  11.592  25.945  0.00  0.00    +0.000 A 
ATOM     33  C   UNL     1      14.721  13.320  27.614  0.00  0.00    +0.000 A 
ATOM     34  C   UNL     1      15.455  12.265  27.072  0.00  0.00    +0.000 A 
ENDBRANCH  23  27
ENDBRANCH   7  23
ENDBRANCH  17  19
ENDBRANCH  16  17
ENDBRANCH  10  16
TORSDOF 8
ENDMDL
MODEL 4
REMARK VINA RESULT:      -6.6      2.491      7.068
REMARK  Name = 26762299
REMARK  10 active torsions:
REMARK  status: ('A' for Active; 'I' for Inactive)
REMARK    1  A    between atoms: N_6  and  C_11
REMARK    2  A    between atoms: N_7  and  C_23
REMARK    3  A    between atoms: N_8  and  C_26
REMARK    4  A    between atoms: N_8  and  C_30
REMARK    5  A    between atoms: N_8  and  C_31
REMARK    6  A    between atoms: C_10  and  C_16
REMARK    7  A    between atoms: C_16  and  C_17
REMARK    8  A    between atoms: C_17  and  C_19
REMARK    9  A    between atoms: C_18  and  C_20
REMARK   10  A    between atoms: C_23  and  C_27
REMARK                            x       y       z     vdW  Elec       q    Type
REMARK                         _______ _______ _______ _____ _____    ______ ____
ROOT
ATOM      1  O   UNL     1      13.176   7.654  16.863  0.00  0.00    -0.274 OA
ATOM      4  N   UNL     1      14.103   7.132  20.236  0.00  0.00    -0.285 NA
ATOM      5  N   UNL     1      15.187   6.964  17.731  0.00  0.00    -0.313 N 
ATOM      9  C   UNL     1      13.190   6.843  19.125  0.00  0.00    +0.145 C 
ATOM     10  C   UNL     1      15.289   6.277  20.147  0.00  0.00    +0.075 C 
ATOM     11  C   UNL     1      11.969   7.655  21.036  0.00  0.00    +0.089 C 
ATOM     12  C   UNL     1      11.950   7.638  19.503  0.00  0.00    +0.052 C 
ATOM     13  C   UNL     1      13.280   6.971  21.434  0.00  0.00    +0.107 C 
ATOM     14  C   UNL     1      16.042   6.696  18.877  0.00  0.00    +0.123 C 
ATOM     15  C   UNL     1      13.833   7.232  17.814  0.00  0.00    +0.230 C 
ATOM     35  H   UNL     1      15.644   7.141  16.841  0.00  0.00    +0.149 HD
ENDROOT
BRANCH  11   6
ATOM      2  O   UNL     1      10.138   8.637  23.019  0.00  0.00    -0.270 OA
ATOM      6  N   UNL     1      11.890   9.003  21.543  0.00  0.00    -0.307 N 
ATOM     18  C   UNL     1      10.967   9.385  22.506  0.00  0.00    +0.244 C 
ATOM     36  H   UNL     1      12.469   9.699  21.085  0.00  0.00    +0.149 HD
BRANCH  18  20
ATOM     20  C   UNL     1      10.997  10.816  22.903  0.00  0.00    +0.037 A 
ATOM     21  C   UNL     1      10.794  11.175  24.236  0.00  0.00    +0.015 A 
ATOM     22  C   UNL     1      11.230  11.801  21.943  0.00  0.00    +0.015 A 
ATOM     24  C   UNL     1      10.822  12.520  24.608  0.00  0.00    +0.024 A 
ATOM     25  C   UNL     1      11.257  13.145  22.315  0.00  0.00    +0.024 A 
ATOM     26  C   UNL     1      11.053  13.504  23.648  0.00  0.00    +0.029 A 
BRANCH  26   8
ATOM      8  N   UNL     1      11.082  14.863  24.023  0.00  0.00    -0.336 N 
ATOM     30  C   UNL     1      12.342  15.578  24.093  0.00  0.00    +0.129 C 
ATOM     31  C   UNL     1       9.855  15.561  24.352  0.00  0.00    +0.129 C 
ENDBRANCH  26   8
ENDBRANCH  18  20
ENDBRANCH  11   6
BRANCH  10  16
ATOM     16  C   UNL     1      16.214   6.408  21.359  0.00  0.00    +0.029 C 
BRANCH  16  17
ATOM     17  C   UNL     1      17.583   6.933  20.949  0.00  0.00    +0.097 C 
BRANCH  17  19
ATOM      3  O   UNL     1      18.801   8.918  21.610  0.00  0.00    -0.276 OA
ATOM      7  N   UNL     1      16.548   9.100  21.082  0.00  0.00    -0.311 N 
ATOM     19  C   UNL     1      17.741   8.412  21.255  0.00  0.00    +0.213 C 
ATOM     37  H   UNL     1      15.722   8.599  20.766  0.00  0.00    +0.149 HD
BRANCH   7  23
ATOM     23  C   UNL     1      16.438  10.521  21.312  0.00  0.00    +0.139 C 
BRANCH  23  27
ATOM     27  C   UNL     1      15.348  11.140  20.485  0.00  0.00    -0.030 A 
ATOM     28  C   UNL     1      14.643  10.364  19.565  0.00  0.00    +0.005 A 
ATOM     29  C   UNL     1      15.041  12.492  20.636  0.00  0.00    +0.005 A 
ATOM     32  C   UNL     1      13.631  10.940  18.797  0.00  0.00    +0.000 A 
ATOM     33  C   UNL     1      14.030  13.069  19.869  0.00  0.00    +0.000 A 
ATOM     34  C   UNL     1      13.325  12.293  18.949  0.00  0.00    +0.000 A 
ENDBRANCH  23  27
ENDBRANCH   7  23
ENDBRANCH  17  19
ENDBRANCH  16  17
ENDBRANCH  10  16
TORSDOF 8
ENDMDL
MODEL 5
REMARK VINA RESULT:      -6.5     28.783     31.521
REMARK  Name = 26762299
REMARK  10 active torsions:
REMARK  status: ('A' for Active; 'I' for Inactive)
REMARK    1  A    between atoms: N_6  and  C_11
REMARK    2  A    between atoms: N_7  and  C_23
REMARK    3  A    between atoms: N_8  and  C_26
REMARK    4  A    between atoms: N_8  and  C_30
REMARK    5  A    between atoms: N_8  and  C_31
REMARK    6  A    between atoms: C_10  and  C_16
REMARK    7  A    between atoms: C_16  and  C_17
REMARK    8  A    between atoms: C_17  and  C_19
REMARK    9  A    between atoms: C_18  and  C_20
REMARK   10  A    between atoms: C_23  and  C_27
REMARK                            x       y       z     vdW  Elec       q    Type
REMARK                         _______ _______ _______ _____ _____    ______ ____
ROOT
ATOM      1  O   UNL     1      -8.514 -14.866  17.745  0.00  0.00    -0.274 OA
ATOM      4  N   UNL     1      -6.795 -11.832  18.335  0.00  0.00    -0.285 NA
ATOM      5  N   UNL     1      -6.333 -14.314  17.287  0.00  0.00    -0.313 N 
ATOM      9  C   UNL     1      -7.597 -12.943  18.857  0.00  0.00    +0.145 C 
ATOM     10  C   UNL     1      -5.382 -12.212  18.284  0.00  0.00    +0.075 C 
ATOM     11  C   UNL     1      -8.646 -10.833  19.358  0.00  0.00    +0.089 C 
ATOM     12  C   UNL     1      -8.962 -12.302  19.051  0.00  0.00    +0.052 C 
ATOM     13  C   UNL     1      -7.128 -10.704  19.205  0.00  0.00    +0.107 C 
ATOM     14  C   UNL     1      -5.262 -13.331  17.239  0.00  0.00    +0.123 C 
ATOM     15  C   UNL     1      -7.558 -14.106  17.892  0.00  0.00    +0.230 C 
ATOM     35  H   UNL     1      -6.242 -15.130  16.687  0.00  0.00    +0.149 HD
ENDROOT
BRANCH  11   6
ATOM      2  O   UNL     1     -11.379  -9.981  19.597  0.00  0.00    -0.270 OA
ATOM      6  N   UNL     1      -9.355  -9.950  18.464  0.00  0.00    -0.307 N 
ATOM     18  C   UNL     1     -10.681  -9.594  18.663  0.00  0.00    +0.244 C 
ATOM     36  H   UNL     1      -8.875  -9.680  17.611  0.00  0.00    +0.149 HD
BRANCH  18  20
ATOM     20  C   UNL     1     -11.274  -8.698  17.637  0.00  0.00    +0.037 A 
ATOM     21  C   UNL     1     -10.538  -7.620  17.144  0.00  0.00    +0.015 A 
ATOM     22  C   UNL     1     -12.565  -8.935  17.166  0.00  0.00    +0.015 A 
ATOM     24  C   UNL     1     -11.095  -6.778  16.181  0.00  0.00    +0.024 A 
ATOM     25  C   UNL     1     -13.122  -8.092  16.204  0.00  0.00    +0.024 A 
ATOM     26  C   UNL     1     -12.387  -7.014  15.711  0.00  0.00    +0.029 A 
BRANCH  26   8
ATOM      8  N   UNL     1     -12.950  -6.164  14.737  0.00  0.00    -0.336 N 
ATOM     30  C   UNL     1     -14.379  -6.175  14.491  0.00  0.00    +0.129 C 
ATOM     31  C   UNL     1     -12.108  -5.273  13.964  0.00  0.00    +0.129 C 
ENDBRANCH  26   8
ENDBRANCH  18  20
ENDBRANCH  11   6
BRANCH  10  16
ATOM     16  C   UNL     1      -4.462 -11.051  17.899  0.00  0.00    +0.029 C 
BRANCH  16  17
ATOM     17  C   UNL     1      -4.118 -11.092  16.417  0.00  0.00    +0.097 C 
BRANCH  17  19
ATOM      3  O   UNL     1      -5.810  -9.397  16.064  0.00  0.00    -0.276 OA
ATOM      7  N   UNL     1      -5.006 -10.586  14.240  0.00  0.00    -0.311 N 
ATOM     19  C   UNL     1      -5.074 -10.255  15.586  0.00  0.00    +0.213 C 
ATOM     37  H   UNL     1      -4.350 -11.300  13.932  0.00  0.00    +0.149 HD
BRANCH   7  23
ATOM     23  C   UNL     1      -5.819  -9.932  13.243  0.00  0.00    +0.139 C 
BRANCH  23  27
ATOM     27  C   UNL     1      -5.042  -9.627  11.995  0.00  0.00    -0.030 A 
ATOM     28  C   UNL     1      -5.581  -8.783  11.025  0.00  0.00    +0.005 A 
ATOM     29  C   UNL     1      -3.778 -10.188  11.806  0.00  0.00    +0.005 A 
ATOM     32  C   UNL     1      -4.859  -8.501   9.865  0.00  0.00    +0.000 A 
ATOM     33  C   UNL     1      -3.055  -9.905  10.648  0.00  0.00    +0.000 A 
ATOM     34  C   UNL     1      -3.596  -9.062   9.677  0.00  0.00    +0.000 A 
ENDBRANCH  23  27
ENDBRANCH   7  23
ENDBRANCH  17  19
ENDBRANCH  16  17
ENDBRANCH  10  16
TORSDOF 8
ENDMDL
MODEL 6
REMARK VINA RESULT:      -6.3      5.918     11.677
REMARK  Name = 26762299
REMARK  10 active torsions:
REMARK  status: ('A' for Active; 'I' for Inactive)
REMARK    1  A    between atoms: N_6  and  C_11
REMARK    2  A    between atoms: N_7  and  C_23
REMARK    3  A    between atoms: N_8  and  C_26
REMARK    4  A    between atoms: N_8  and  C_30
REMARK    5  A    between atoms: N_8  and  C_31
REMARK    6  A    between atoms: C_10  and  C_16
REMARK    7  A    between atoms: C_16  and  C_17
REMARK    8  A    between atoms: C_17  and  C_19
REMARK    9  A    between atoms: C_18  and  C_20
REMARK   10  A    between atoms: C_23  and  C_27
REMARK                            x       y       z     vdW  Elec       q    Type
REMARK                         _______ _______ _______ _____ _____    ______ ____
ROOT
ATOM      1  O   UNL     1      24.213   6.788  25.251  0.00  0.00    -0.274 OA
ATOM      4  N   UNL     1      22.680   3.854  24.007  0.00  0.00    -0.285 NA
ATOM      5  N   UNL     1      23.811   4.793  26.313  0.00  0.00    -0.313 N 
ATOM      9  C   UNL     1      23.721   4.879  23.878  0.00  0.00    +0.145 C 
ATOM     10  C   UNL     1      23.116   2.808  24.935  0.00  0.00    +0.075 C 
ATOM     11  C   UNL     1      22.400   4.753  21.867  0.00  0.00    +0.089 C 
ATOM     12  C   UNL     1      23.201   5.734  22.733  0.00  0.00    +0.052 C 
ATOM     13  C   UNL     1      22.416   3.428  22.633  0.00  0.00    +0.107 C 
ATOM     14  C   UNL     1      23.223   3.462  26.320  0.00  0.00    +0.123 C 
ATOM     15  C   UNL     1      23.902   5.600  25.194  0.00  0.00    +0.230 C 
ATOM     35  H   UNL     1      23.999   5.223  27.214  0.00  0.00    +0.149 HD
ENDROOT
BRANCH  11   6
ATOM      2  O   UNL     1      21.616   6.955  20.197  0.00  0.00    -0.270 OA
ATOM      6  N   UNL     1      21.058   5.231  21.645  0.00  0.00    -0.307 N 
ATOM     18  C   UNL     1      20.776   6.307  20.816  0.00  0.00    +0.244 C 
ATOM     36  H   UNL     1      20.325   4.814  22.210  0.00  0.00    +0.149 HD
BRANCH  18  20
ATOM     20  C   UNL     1      19.344   6.692  20.715  0.00  0.00    +0.037 A 
ATOM     21  C   UNL     1      18.850   7.747  21.481  0.00  0.00    +0.015 A 
ATOM     22  C   UNL     1      18.495   5.998  19.852  0.00  0.00    +0.015 A 
ATOM     24  C   UNL     1      17.505   8.108  21.386  0.00  0.00    +0.024 A 
ATOM     25  C   UNL     1      17.151   6.358  19.758  0.00  0.00    +0.024 A 
ATOM     26  C   UNL     1      16.656   7.413  20.524  0.00  0.00    +0.029 A 
BRANCH  26   8
ATOM      8  N   UNL     1      15.298   7.778  20.427  0.00  0.00    -0.336 N 
ATOM     30  C   UNL     1      14.256   6.828  20.771  0.00  0.00    +0.129 C 
ATOM     31  C   UNL     1      14.923   9.103  19.976  0.00  0.00    +0.129 C 
ENDBRANCH  26   8
ENDBRANCH  18  20
ENDBRANCH  11   6
BRANCH  10  16
ATOM     16  C   UNL     1      22.150   1.624  25.001  0.00  0.00    +0.029 C 
BRANCH  16  17
ATOM     17  C   UNL     1      22.901   0.312  25.178  0.00  0.00    +0.097 C 
BRANCH  17  19
ATOM      3  O   UNL     1      22.372  -1.953  25.852  0.00  0.00    -0.276 OA
ATOM      7  N   UNL     1      20.644  -0.433  25.549  0.00  0.00    -0.311 N 
ATOM     19  C   UNL     1      21.975  -0.828  25.565  0.00  0.00    +0.213 C 
ATOM     37  H   UNL     1      20.409   0.529  25.316  0.00  0.00    +0.149 HD
BRANCH   7  23
ATOM     23  C   UNL     1      19.568  -1.336  25.880  0.00  0.00    +0.139 C 
BRANCH  23  27
ATOM     27  C   UNL     1      18.784  -1.744  24.665  0.00  0.00    -0.030 A 
ATOM     28  C   UNL     1      17.817  -0.887  24.139  0.00  0.00    +0.005 A 
ATOM     29  C   UNL     1      19.024  -2.979  24.063  0.00  0.00    +0.005 A 
ATOM     32  C   UNL     1      17.088  -1.266  23.012  0.00  0.00    +0.000 A 
ATOM     33  C   UNL     1      18.296  -3.358  22.935  0.00  0.00    +0.000 A 
ATOM     34  C   UNL     1      17.328  -2.501  22.410  0.00  0.00    +0.000 A 
ENDBRANCH  23  27
ENDBRANCH   7  23
ENDBRANCH  17  19
ENDBRANCH  16  17
ENDBRANCH  10  16
TORSDOF 8
ENDMDL
MODEL 7
REMARK VINA RESULT:      -6.3     28.478     31.082
REMARK  Name = 26762299
REMARK  10 active torsions:
REMARK  status: ('A' for Active; 'I' for Inactive)
REMARK    1  A    between atoms: N_6  and  C_11
REMARK    2  A    between atoms: N_7  and  C_23
REMARK    3  A    between atoms: N_8  and  C_26
REMARK    4  A    between atoms: N_8  and  C_30
REMARK    5  A    between atoms: N_8  and  C_31
REMARK    6  A    between atoms: C_10  and  C_16
REMARK    7  A    between atoms: C_16  and  C_17
REMARK    8  A    between atoms: C_17  and  C_19
REMARK    9  A    between atoms: C_18  and  C_20
REMARK   10  A    between atoms: C_23  and  C_27
REMARK                            x       y       z     vdW  Elec       q    Type
REMARK                         _______ _______ _______ _____ _____    ______ ____
ROOT
ATOM      1  O   UNL     1      -3.079 -14.915  12.439  0.00  0.00    -0.274 OA
ATOM      4  N   UNL     1      -3.523 -11.424  12.080  0.00  0.00    -0.285 NA
ATOM      5  N   UNL     1      -3.475 -13.684  10.542  0.00  0.00    -0.313 N 
ATOM      9  C   UNL     1      -2.703 -12.544  12.553  0.00  0.00    +0.145 C 
ATOM     10  C   UNL     1      -3.269 -11.182  10.658  0.00  0.00    +0.075 C 
ATOM     11  C   UNL     1      -3.173 -11.016  14.356  0.00  0.00    +0.089 C 
ATOM     12  C   UNL     1      -2.922 -12.500  14.058  0.00  0.00    +0.052 C 
ATOM     13  C   UNL     1      -3.198 -10.326  12.989  0.00  0.00    +0.107 C 
ATOM     14  C   UNL     1      -3.781 -12.415   9.900  0.00  0.00    +0.123 C 
ATOM     15  C   UNL     1      -3.134 -13.824  11.874  0.00  0.00    +0.230 C 
ATOM     35  H   UNL     1      -3.700 -14.531  10.027  0.00  0.00    +0.149 HD
ENDROOT
BRANCH  11   6
ATOM      2  O   UNL     1      -3.532 -11.109  17.204  0.00  0.00    -0.270 OA
ATOM      6  N   UNL     1      -4.410 -10.832  15.075  0.00  0.00    -0.307 N 
ATOM     18  C   UNL     1      -4.485 -10.895  16.459  0.00  0.00    +0.244 C 
ATOM     36  H   UNL     1      -5.256 -10.761  14.519  0.00  0.00    +0.149 HD
BRANCH  18  20
ATOM     20  C   UNL     1      -5.838 -10.710  17.045  0.00  0.00    +0.037 A 
ATOM     21  C   UNL     1      -6.406 -11.721  17.819  0.00  0.00    +0.015 A 
ATOM     22  C   UNL     1      -6.538  -9.524  16.822  0.00  0.00    +0.015 A 
ATOM     24  C   UNL     1      -7.677 -11.548  18.369  0.00  0.00    +0.024 A 
ATOM     25  C   UNL     1      -7.809  -9.351  17.372  0.00  0.00    +0.024 A 
ATOM     26  C   UNL     1      -8.378 -10.363  18.145  0.00  0.00    +0.029 A 
BRANCH  26   8
ATOM      8  N   UNL     1      -9.661 -10.186  18.702  0.00  0.00    -0.336 N 
ATOM     30  C   UNL     1     -10.658  -9.391  18.011  0.00  0.00    +0.129 C 
ATOM     31  C   UNL     1     -10.000 -10.792  19.974  0.00  0.00    +0.129 C 
ENDBRANCH  26   8
ENDBRANCH  18  20
ENDBRANCH  11   6
BRANCH  10  16
ATOM     16  C   UNL     1      -3.970  -9.928  10.130  0.00  0.00    +0.029 C 
BRANCH  16  17
ATOM     17  C   UNL     1      -5.361 -10.256   9.608  0.00  0.00    +0.097 C 
BRANCH  17  19
ATOM      3  O   UNL     1      -7.186  -8.707   9.972  0.00  0.00    -0.276 OA
ATOM      7  N   UNL     1      -6.497 -10.070  11.720  0.00  0.00    -0.311 N 
ATOM     19  C   UNL     1      -6.450  -9.579  10.423  0.00  0.00    +0.213 C 
ATOM     37  H   UNL     1      -5.857 -10.809  12.000  0.00  0.00    +0.149 HD
BRANCH   7  23
ATOM     23  C   UNL     1      -7.447  -9.586  12.693  0.00  0.00    +0.139 C 
BRANCH  23  27
ATOM     27  C   UNL     1      -7.980 -10.692  13.557  0.00  0.00    -0.030 A 
ATOM     28  C   UNL     1      -7.238 -11.860  13.732  0.00  0.00    +0.005 A 
ATOM     29  C   UNL     1      -9.217 -10.551  14.185  0.00  0.00    +0.005 A 
ATOM     32  C   UNL     1      -7.734 -12.888  14.534  0.00  0.00    +0.000 A 
ATOM     33  C   UNL     1      -9.713 -11.578  14.988  0.00  0.00    +0.000 A 
ATOM     34  C   UNL     1      -8.972 -12.747  15.162  0.00  0.00    +0.000 A 
ENDBRANCH  23  27
ENDBRANCH   7  23
ENDBRANCH  17  19
ENDBRANCH  16  17
ENDBRANCH  10  16
TORSDOF 8
ENDMDL
MODEL 8
REMARK VINA RESULT:      -6.3     28.850     31.602
REMARK  Name = 26762299
REMARK  10 active torsions:
REMARK  status: ('A' for Active; 'I' for Inactive)
REMARK    1  A    between atoms: N_6  and  C_11
REMARK    2  A    between atoms: N_7  and  C_23
REMARK    3  A    between atoms: N_8  and  C_26
REMARK    4  A    between atoms: N_8  and  C_30
REMARK    5  A    between atoms: N_8  and  C_31
REMARK    6  A    between atoms: C_10  and  C_16
REMARK    7  A    between atoms: C_16  and  C_17
REMARK    8  A    between atoms: C_17  and  C_19
REMARK    9  A    between atoms: C_18  and  C_20
REMARK   10  A    between atoms: C_23  and  C_27
REMARK                            x       y       z     vdW  Elec       q    Type
REMARK                         _______ _______ _______ _____ _____    ______ ____
ROOT
ATOM      1  O   UNL     1     -14.197  -0.563  29.090  0.00  0.00    -0.274 OA
ATOM      4  N   UNL     1     -15.153   2.756  29.854  0.00  0.00    -0.285 NA
ATOM      5  N   UNL     1     -13.530   0.782  30.827  0.00  0.00    -0.313 N 
ATOM      9  C   UNL     1     -15.541   1.368  29.580  0.00  0.00    +0.145 C 
ATOM     10  C   UNL     1     -14.797   2.908  31.266  0.00  0.00    +0.075 C 
ATOM     11  C   UNL     1     -16.647   2.875  28.059  0.00  0.00    +0.089 C 
ATOM     12  C   UNL     1     -16.082   1.452  28.161  0.00  0.00    +0.052 C 
ATOM     13  C   UNL     1     -16.287   3.551  29.385  0.00  0.00    +0.107 C 
ATOM     14  C   UNL     1     -13.529   2.074  31.496  0.00  0.00    +0.123 C 
ATOM     15  C   UNL     1     -14.352   0.453  29.766  0.00  0.00    +0.230 C 
ATOM     35  H   UNL     1     -12.761   0.151  31.034  0.00  0.00    +0.149 HD
ENDROOT
BRANCH  11   6
ATOM      2  O   UNL     1     -17.997   3.525  25.609  0.00  0.00    -0.270 OA
ATOM      6  N   UNL     1     -16.090   3.576  26.929  0.00  0.00    -0.307 N 
ATOM     18  C   UNL     1     -16.824   3.846  25.783  0.00  0.00    +0.244 C 
ATOM     36  H   UNL     1     -15.095   3.774  26.958  0.00  0.00    +0.149 HD
BRANCH  18  20
ATOM     20  C   UNL     1     -16.096   4.554  24.697  0.00  0.00    +0.037 A 
ATOM     21  C   UNL     1     -14.894   4.039  24.213  0.00  0.00    +0.015 A 
ATOM     22  C   UNL     1     -16.617   5.732  24.163  0.00  0.00    +0.015 A 
ATOM     24  C   UNL     1     -14.211   4.704  23.193  0.00  0.00    +0.024 A 
ATOM     25  C   UNL     1     -15.933   6.397  23.145  0.00  0.00    +0.024 A 
ATOM     26  C   UNL     1     -14.731   5.883  22.660  0.00  0.00    +0.029 A 
BRANCH  26   8
ATOM      8  N   UNL     1     -14.042   6.555  21.630  0.00  0.00    -0.336 N 
ATOM     30  C   UNL     1     -14.698   7.599  20.867  0.00  0.00    +0.129 C 
ATOM     31  C   UNL     1     -12.670   6.207  21.314  0.00  0.00    +0.129 C 
ENDBRANCH  26   8
ENDBRANCH  18  20
ENDBRANCH  11   6
BRANCH  10  16
ATOM     16  C   UNL     1     -14.533   4.362  31.664  0.00  0.00    +0.029 C 
BRANCH  16  17
ATOM     17  C   UNL     1     -13.946   4.450  33.066  0.00  0.00    +0.097 C 
BRANCH  17  19
ATOM      3  O   UNL     1     -13.958   6.139  34.801  0.00  0.00    -0.276 OA
ATOM      7  N   UNL     1     -13.984   6.804  32.577  0.00  0.00    -0.311 N 
ATOM     19  C   UNL     1     -13.963   5.870  33.603  0.00  0.00    +0.213 C 
ATOM     37  H   UNL     1     -13.967   6.488  31.611  0.00  0.00    +0.149 HD
BRANCH   7  23
ATOM     23  C   UNL     1     -14.004   8.226  32.829  0.00  0.00    +0.139 C 
BRANCH  23  27
ATOM     27  C   UNL     1     -12.621   8.784  33.007  0.00  0.00    -0.030 A 
ATOM     28  C   UNL     1     -12.215   9.256  34.255  0.00  0.00    +0.005 A 
ATOM     29  C   UNL     1     -11.742   8.829  31.925  0.00  0.00    +0.005 A 
ATOM     32  C   UNL     1     -10.931   9.775  34.421  0.00  0.00    +0.000 A 
ATOM     33  C   UNL     1     -10.458   9.346  32.090  0.00  0.00    +0.000 A 
ATOM     34  C   UNL     1     -10.053   9.820  33.338  0.00  0.00    +0.000 A 
ENDBRANCH  23  27
ENDBRANCH   7  23
ENDBRANCH  17  19
ENDBRANCH  16  17
ENDBRANCH  10  16
TORSDOF 8
ENDMDL
MODEL 9
REMARK VINA RESULT:      -6.3      2.716      7.348
REMARK  Name = 26762299
REMARK  10 active torsions:
REMARK  status: ('A' for Active; 'I' for Inactive)
REMARK    1  A    between atoms: N_6  and  C_11
REMARK    2  A    between atoms: N_7  and  C_23
REMARK    3  A    between atoms: N_8  and  C_26
REMARK    4  A    between atoms: N_8  and  C_30
REMARK    5  A    between atoms: N_8  and  C_31
REMARK    6  A    between atoms: C_10  and  C_16
REMARK    7  A    between atoms: C_16  and  C_17
REMARK    8  A    between atoms: C_17  and  C_19
REMARK    9  A    between atoms: C_18  and  C_20
REMARK   10  A    between atoms: C_23  and  C_27
REMARK                            x       y       z     vdW  Elec       q    Type
REMARK                         _______ _______ _______ _____ _____    ______ ____
ROOT
ATOM      1  O   UNL     1      19.070   7.492  22.239  0.00  0.00    -0.274 OA
ATOM      4  N   UNL     1      16.084   8.764  20.835  0.00  0.00    -0.285 NA
ATOM      5  N   UNL     1      17.314   6.363  21.284  0.00  0.00    -0.313 N 
ATOM      9  C   UNL     1      17.550   8.754  20.872  0.00  0.00    +0.145 C 
ATOM     10  C   UNL     1      15.596   7.668  19.994  0.00  0.00    +0.075 C 
ATOM     11  C   UNL     1      16.707  10.987  21.201  0.00  0.00    +0.089 C 
ATOM     12  C   UNL     1      17.869  10.061  21.582  0.00  0.00    +0.052 C 
ATOM     13  C   UNL     1      15.740  10.116  20.396  0.00  0.00    +0.107 C 
ATOM     14  C   UNL     1      15.980   6.361  20.702  0.00  0.00    +0.123 C 
ATOM     15  C   UNL     1      18.040   7.504  21.566  0.00  0.00    +0.230 C 
ATOM     35  H   UNL     1      17.653   5.487  21.671  0.00  0.00    +0.149 HD
ENDROOT
BRANCH  11   6
ATOM      2  O   UNL     1      15.087  13.355  21.319  0.00  0.00    -0.270 OA
ATOM      6  N   UNL     1      16.080  11.545  22.375  0.00  0.00    -0.307 N 
ATOM     18  C   UNL     1      15.312  12.699  22.332  0.00  0.00    +0.244 C 
ATOM     36  H   UNL     1      16.314  11.118  23.265  0.00  0.00    +0.149 HD
BRANCH  18  20
ATOM     20  C   UNL     1      14.757  13.158  23.632  0.00  0.00    +0.037 A 
ATOM     21  C   UNL     1      14.376  12.225  24.596  0.00  0.00    +0.015 A 
ATOM     22  C   UNL     1      14.620  14.522  23.889  0.00  0.00    +0.015 A 
ATOM     24  C   UNL     1      13.855  12.656  25.817  0.00  0.00    +0.024 A 
ATOM     25  C   UNL     1      14.098  14.953  25.109  0.00  0.00    +0.024 A 
ATOM     26  C   UNL     1      13.716  14.020  26.073  0.00  0.00    +0.029 A 
BRANCH  26   8
ATOM      8  N   UNL     1      13.191  14.457  27.306  0.00  0.00    -0.336 N 
ATOM     30  C   UNL     1      11.926  15.164  27.356  0.00  0.00    +0.129 C 
ATOM     31  C   UNL     1      13.911  14.210  28.540  0.00  0.00    +0.129 C 
ENDBRANCH  26   8
ENDBRANCH  18  20
ENDBRANCH  11   6
BRANCH  10  16
ATOM     16  C   UNL     1      14.081   7.708  19.777  0.00  0.00    +0.029 C 
BRANCH  16  17
ATOM     17  C   UNL     1      13.350   6.957  20.881  0.00  0.00    +0.097 C 
BRANCH  17  19
ATOM      3  O   UNL     1      11.000   7.396  20.497  0.00  0.00    -0.276 OA
ATOM      7  N   UNL     1      12.041   8.352  22.339  0.00  0.00    -0.311 N 
ATOM     19  C   UNL     1      11.997   7.574  21.190  0.00  0.00    +0.213 C 
ATOM     37  H   UNL     1      12.910   8.427  22.861  0.00  0.00    +0.149 HD
BRANCH   7  23
ATOM     23  C   UNL     1      10.880   9.047  22.843  0.00  0.00    +0.139 C 
BRANCH  23  27
ATOM     27  C   UNL     1      11.034  10.538  22.750  0.00  0.00    -0.030 A 
ATOM     28  C   UNL     1      10.664  11.346  23.824  0.00  0.00    +0.005 A 
ATOM     29  C   UNL     1      11.549  11.114  21.589  0.00  0.00    +0.005 A 
ATOM     32  C   UNL     1      10.807  12.731  23.737  0.00  0.00    +0.000 A 
ATOM     33  C   UNL     1      11.693  12.499  21.501  0.00  0.00    +0.000 A 
ATOM     34  C   UNL     1      11.321  13.307  22.576  0.00  0.00    +0.000 A 
ENDBRANCH  23  27
ENDBRANCH   7  23
ENDBRANCH  17  19
ENDBRANCH  16  17
ENDBRANCH  10  16
TORSDOF 8
ENDMDL
MODEL 10
REMARK VINA RESULT:      -6.3     16.975     19.270
REMARK  Name = 26762299
REMARK  10 active torsions:
REMARK  status: ('A' for Active; 'I' for Inactive)
REMARK    1  A    between atoms: N_6  and  C_11
REMARK    2  A    between atoms: N_7  and  C_23
REMARK    3  A    between atoms: N_8  and  C_26
REMARK    4  A    between atoms: N_8  and  C_30
REMARK    5  A    between atoms: N_8  and  C_31
REMARK    6  A    between atoms: C_10  and  C_16
REMARK    7  A    between atoms: C_16  and  C_17
REMARK    8  A    between atoms: C_17  and  C_19
REMARK    9  A    between atoms: C_18  and  C_20
REMARK   10  A    between atoms: C_23  and  C_27
REMARK                            x       y       z     vdW  Elec       q    Type
REMARK                         _______ _______ _______ _____ _____    ______ ____
ROOT
ATOM      1  O   UNL     1       9.785   4.109   7.540  0.00  0.00    -0.274 OA
ATOM      4  N   UNL     1      11.026   6.957   5.850  0.00  0.00    -0.285 NA
ATOM      5  N   UNL     1      11.548   5.473   8.087  0.00  0.00    -0.313 N 
ATOM      9  C   UNL     1       9.897   6.260   6.475  0.00  0.00    +0.145 C 
ATOM     10  C   UNL     1      11.811   7.657   6.870  0.00  0.00    +0.075 C 
ATOM     11  C   UNL     1       9.371   6.859   4.202  0.00  0.00    +0.089 C 
ATOM     12  C   UNL     1       9.090   5.797   5.272  0.00  0.00    +0.052 C 
ATOM     13  C   UNL     1      10.412   7.795   4.822  0.00  0.00    +0.107 C 
ATOM     14  C   UNL     1      12.438   6.578   7.764  0.00  0.00    +0.123 C 
ATOM     15  C   UNL     1      10.406   5.158   7.376  0.00  0.00    +0.230 C 
ATOM     35  H   UNL     1      11.882   4.789   8.760  0.00  0.00    +0.149 HD
ENDROOT
BRANCH  11   6
ATOM      2  O   UNL     1      10.900   4.438   3.970  0.00  0.00    -0.270 OA
ATOM      6  N   UNL     1       9.849   6.255   2.982  0.00  0.00    -0.307 N 
ATOM     18  C   UNL     1      10.584   5.078   2.970  0.00  0.00    +0.244 C 
ATOM     36  H   UNL     1       9.720   6.786   2.127  0.00  0.00    +0.149 HD
BRANCH  18  20
ATOM     20  C   UNL     1      11.024   4.601   1.634  0.00  0.00    +0.037 A 
ATOM     21  C   UNL     1      12.175   3.821   1.517  0.00  0.00    +0.015 A 
ATOM     22  C   UNL     1      10.287   4.932   0.497  0.00  0.00    +0.015 A 
ATOM     24  C   UNL     1      12.589   3.374   0.262  0.00  0.00    +0.024 A 
ATOM     25  C   UNL     1      10.701   4.484  -0.757  0.00  0.00    +0.024 A 
ATOM     26  C   UNL     1      11.852   3.705  -0.875  0.00  0.00    +0.029 A 
BRANCH  26   8
ATOM      8  N   UNL     1      12.270   3.252  -2.143  0.00  0.00    -0.336 N 
ATOM     30  C   UNL     1      11.662   2.078  -2.740  0.00  0.00    +0.129 C 
ATOM     31  C   UNL     1      13.316   3.949  -2.865  0.00  0.00    +0.129 C 
ENDBRANCH  26   8
ENDBRANCH  18  20
ENDBRANCH  11   6
BRANCH  10  16
ATOM     16  C   UNL     1      12.914   8.537   6.278  0.00  0.00    +0.029 C 
BRANCH  16  17
ATOM     17  C   UNL     1      14.292   7.972   6.589  0.00  0.00    +0.097 C 
BRANCH  17  19
ATOM      3  O   UNL     1      16.229   8.262   5.165  0.00  0.00    -0.276 OA
ATOM      7  N   UNL     1      14.464   6.953   4.417  0.00  0.00    -0.311 N 
ATOM     19  C   UNL     1      15.120   7.765   5.332  0.00  0.00    +0.213 C 
ATOM     37  H   UNL     1      13.552   6.569   4.650  0.00  0.00    +0.149 HD
BRANCH   7  23
ATOM     23  C   UNL     1      15.043   6.607   3.140  0.00  0.00    +0.139 C 
BRANCH  23  27
ATOM     27  C   UNL     1      14.157   7.004   1.995  0.00  0.00    -0.030 A 
ATOM     28  C   UNL     1      14.456   6.580   0.701  0.00  0.00    +0.005 A 
ATOM     29  C   UNL     1      13.033   7.797   2.226  0.00  0.00    +0.005 A 
ATOM     32  C   UNL     1      13.633   6.949  -0.363  0.00  0.00    +0.000 A 
ATOM     33  C   UNL     1      12.209   8.166   1.163  0.00  0.00    +0.000 A 
ATOM     34  C   UNL     1      12.509   7.743  -0.131  0.00  0.00    +0.000 A 
ENDBRANCH  23  27
ENDBRANCH   7  23
ENDBRANCH  17  19
ENDBRANCH  16  17
ENDBRANCH  10  16
TORSDOF 8
ENDMDL
