MODEL 1
REMARK VINA RESULT:      -6.2      0.000      0.000
REMARK  Name = 51137066
REMARK  4 active torsions:
REMARK  status: ('A' for Active; 'I' for Inactive)
REMARK    1  A    between atoms: N_2  and  C_8
REMARK    2  A    between atoms: C_4  and  C_9
REMARK    3  A    between atoms: C_8  and  C_10
REMARK    4  A    between atoms: C_8  and  C_11
REMARK                            x       y       z     vdW  Elec       q    Type
REMARK                         _______ _______ _______ _____ _____    ______ ____
ROOT
ATOM      1  O   UNL     1      15.924   6.104  19.170  0.00  0.00    -0.439 OA
ATOM      3  N   UNL     1      15.584   7.881  20.536  0.00  0.00    -0.213 NA
ATOM      9  C   UNL     1      15.072   7.052  19.652  0.00  0.00    +0.201 A 
ATOM     12  C   UNL     1      17.096   6.366  19.821  0.00  0.00    +0.155 A 
ATOM     13  C   UNL     1      16.883   7.454  20.655  0.00  0.00    +0.110 A 
ATOM     14  C   UNL     1      18.303   5.689  19.696  0.00  0.00    +0.048 A 
ATOM     15  C   UNL     1      17.946   7.924  21.440  0.00  0.00    +0.031 A 
ATOM     16  C   UNL     1      19.352   6.170  20.486  0.00  0.00    +0.004 A 
ATOM     17  C   UNL     1      19.180   7.265  21.341  0.00  0.00    +0.002 A 
ENDROOT
BRANCH   9   4
ATOM      2  N   UNL     1      12.147   8.213  17.777  0.00  0.00    -0.299 NA
ATOM      4  C   UNL     1      13.665   7.016  19.103  0.00  0.00    +0.090 C 
ATOM      5  C   UNL     1      13.530   7.732  17.753  0.00  0.00    +0.097 C 
ATOM      6  C   UNL     1      12.604   7.675  20.002  0.00  0.00    +0.029 C 
ATOM      7  C   UNL     1      11.952   8.739  19.128  0.00  0.00    +0.085 C 
BRANCH   2   8
ATOM      8  C   UNL     1      11.889   9.213  16.751  0.00  0.00    +0.050 C 
ATOM     10  C   UNL     1      13.104   9.325  15.834  0.00  0.00    +0.024 C 
ATOM     11  C   UNL     1      10.638   8.847  15.958  0.00  0.00    +0.024 C 
ENDBRANCH   2   8
ENDBRANCH   9   4
TORSDOF 2
ENDMDL
MODEL 2
REMARK VINA RESULT:      -6.0     26.926     30.466
REMARK  Name = 51137066
REMARK  4 active torsions:
REMARK  status: ('A' for Active; 'I' for Inactive)
REMARK    1  A    between atoms: N_2  and  C_8
REMARK    2  A    between atoms: C_4  and  C_9
REMARK    3  A    between atoms: C_8  and  C_10
REMARK    4  A    between atoms: C_8  and  C_11
REMARK                            x       y       z     vdW  Elec       q    Type
REMARK                         _______ _______ _______ _____ _____    ______ ____
ROOT
ATOM      1  O   UNL     1      -0.198  -0.173  -5.737  0.00  0.00    -0.439 OA
ATOM      3  N   UNL     1      -0.648   1.590  -7.090  0.00  0.00    -0.213 NA
ATOM      9  C   UNL     1       0.120   1.087  -6.147  0.00  0.00    +0.201 A 
ATOM     12  C   UNL     1      -1.280  -0.497  -6.504  0.00  0.00    +0.155 A 
ATOM     13  C   UNL     1      -1.552   0.584  -7.330  0.00  0.00    +0.110 A 
ATOM     14  C   UNL     1      -2.004  -1.682  -6.489  0.00  0.00    +0.048 A 
ATOM     15  C   UNL     1      -2.630   0.501  -8.224  0.00  0.00    +0.031 A 
ATOM     16  C   UNL     1      -3.075  -1.749  -7.386  0.00  0.00    +0.004 A 
ATOM     17  C   UNL     1      -3.384  -0.682  -8.237  0.00  0.00    +0.002 A 
ENDROOT
BRANCH   9   4
ATOM      2  N   UNL     1       2.174   3.793  -4.775  0.00  0.00    -0.299 NA
ATOM      4  C   UNL     1       1.305   1.726  -5.461  0.00  0.00    +0.090 C 
ATOM      5  C   UNL     1       0.939   3.009  -4.705  0.00  0.00    +0.097 C 
ATOM      6  C   UNL     1       2.448   2.142  -6.403  0.00  0.00    +0.029 C 
ATOM      7  C   UNL     1       2.646   3.632  -6.150  0.00  0.00    +0.085 C 
BRANCH   2   8
ATOM      8  C   UNL     1       1.966   5.189  -4.421  0.00  0.00    +0.050 C 
ATOM     10  C   UNL     1       3.302   5.927  -4.458  0.00  0.00    +0.024 C 
ATOM     11  C   UNL     1       0.959   5.831  -5.370  0.00  0.00    +0.024 C 
ENDBRANCH   2   8
ENDBRANCH   9   4
TORSDOF 2
ENDMDL
MODEL 3
REMARK VINA RESULT:      -5.9      2.436      3.698
REMARK  Name = 51137066
REMARK  4 active torsions:
REMARK  status: ('A' for Active; 'I' for Inactive)
REMARK    1  A    between atoms: N_2  and  C_8
REMARK    2  A    between atoms: C_4  and  C_9
REMARK    3  A    between atoms: C_8  and  C_10
REMARK    4  A    between atoms: C_8  and  C_11
REMARK                            x       y       z     vdW  Elec       q    Type
REMARK                         _______ _______ _______ _____ _____    ______ ____
ROOT
ATOM      1  O   UNL     1      14.895   7.759  21.048  0.00  0.00    -0.439 OA
ATOM      3  N   UNL     1      14.491   6.744  19.062  0.00  0.00    -0.213 NA
ATOM      9  C   UNL     1      14.011   7.462  20.055  0.00  0.00    +0.201 A 
ATOM     12  C   UNL     1      16.054   7.164  20.636  0.00  0.00    +0.155 A 
ATOM     13  C   UNL     1      15.802   6.544  19.421  0.00  0.00    +0.110 A 
ATOM     14  C   UNL     1      17.281   7.159  21.287  0.00  0.00    +0.048 A 
ATOM     15  C   UNL     1      16.843   5.855  18.782  0.00  0.00    +0.031 A 
ATOM     16  C   UNL     1      18.308   6.468  20.637  0.00  0.00    +0.004 A 
ATOM     17  C   UNL     1      18.097   5.828  19.410  0.00  0.00    +0.002 A 
ENDROOT
BRANCH   9   4
ATOM      2  N   UNL     1      11.373   9.654  21.340  0.00  0.00    -0.299 NA
ATOM      4  C   UNL     1      12.610   7.997  20.235  0.00  0.00    +0.090 C 
ATOM      5  C   UNL     1      12.577   9.504  20.520  0.00  0.00    +0.097 C 
ATOM      6  C   UNL     1      11.822   7.364  21.395  0.00  0.00    +0.029 C 
ATOM      7  C   UNL     1      11.414   8.535  22.280  0.00  0.00    +0.085 C 
BRANCH   2   8
ATOM      8  C   UNL     1      11.317  10.943  22.014  0.00  0.00    +0.050 C 
ATOM     10  C   UNL     1      10.942  10.734  23.479  0.00  0.00    +0.024 C 
ATOM     11  C   UNL     1      12.657  11.663  21.889  0.00  0.00    +0.024 C 
ENDBRANCH   2   8
ENDBRANCH   9   4
TORSDOF 2
ENDMDL
MODEL 4
REMARK VINA RESULT:      -5.7     12.981     16.196
REMARK  Name = 51137066
REMARK  4 active torsions:
REMARK  status: ('A' for Active; 'I' for Inactive)
REMARK    1  A    between atoms: N_2  and  C_8
REMARK    2  A    between atoms: C_4  and  C_9
REMARK    3  A    between atoms: C_8  and  C_10
REMARK    4  A    between atoms: C_8  and  C_11
REMARK                            x       y       z     vdW  Elec       q    Type
REMARK                         _______ _______ _______ _____ _____    ______ ____
ROOT
ATOM      1  O   UNL     1       9.692   6.344   5.132  0.00  0.00    -0.439 OA
ATOM      3  N   UNL     1      10.257   4.187   5.542  0.00  0.00    -0.213 NA
ATOM      9  C   UNL     1      10.129   5.146   4.651  0.00  0.00    +0.201 A 
ATOM     12  C   UNL     1       9.528   6.113   6.468  0.00  0.00    +0.155 A 
ATOM     13  C   UNL     1       9.874   4.792   6.715  0.00  0.00    +0.110 A 
ATOM     14  C   UNL     1       9.095   7.010   7.436  0.00  0.00    +0.048 A 
ATOM     15  C   UNL     1       9.790   4.302   8.026  0.00  0.00    +0.031 A 
ATOM     16  C   UNL     1       9.016   6.506   8.738  0.00  0.00    +0.004 A 
ATOM     17  C   UNL     1       9.356   5.180   9.030  0.00  0.00    +0.002 A 
ENDROOT
BRANCH   9   4
ATOM      2  N   UNL     1      11.895   4.234   1.573  0.00  0.00    -0.299 NA
ATOM      4  C   UNL     1      10.403   5.091   3.166  0.00  0.00    +0.090 C 
ATOM      5  C   UNL     1      11.116   3.803   2.736  0.00  0.00    +0.097 C 
ATOM      6  C   UNL     1      11.295   6.226   2.632  0.00  0.00    +0.029 C 
ATOM      7  C   UNL     1      12.467   5.523   1.959  0.00  0.00    +0.085 C 
BRANCH   2   8
ATOM      8  C   UNL     1      12.915   3.265   1.198  0.00  0.00    +0.050 C 
ATOM     10  C   UNL     1      12.973   3.152  -0.322  0.00  0.00    +0.024 C 
ATOM     11  C   UNL     1      14.269   3.675   1.769  0.00  0.00    +0.024 C 
ENDBRANCH   2   8
ENDBRANCH   9   4
TORSDOF 2
ENDMDL
MODEL 5
REMARK VINA RESULT:      -5.6     27.658     31.081
REMARK  Name = 51137066
REMARK  4 active torsions:
REMARK  status: ('A' for Active; 'I' for Inactive)
REMARK    1  A    between atoms: N_2  and  C_8
REMARK    2  A    between atoms: C_4  and  C_9
REMARK    3  A    between atoms: C_8  and  C_10
REMARK    4  A    between atoms: C_8  and  C_11
REMARK                            x       y       z     vdW  Elec       q    Type
REMARK                         _______ _______ _______ _____ _____    ______ ____
ROOT
ATOM      1  O   UNL     1      -1.051   1.857  -8.252  0.00  0.00    -0.439 OA
ATOM      3  N   UNL     1       0.257   0.801  -6.731  0.00  0.00    -0.213 NA
ATOM      9  C   UNL     1       0.111   1.827  -7.541  0.00  0.00    +0.201 A 
ATOM     12  C   UNL     1      -1.706   0.729  -7.844  0.00  0.00    +0.155 A 
ATOM     13  C   UNL     1      -0.902   0.086  -6.914  0.00  0.00    +0.110 A 
ATOM     14  C   UNL     1      -2.950   0.276  -8.262  0.00  0.00    +0.048 A 
ATOM     15  C   UNL     1      -1.354  -1.110  -6.339  0.00  0.00    +0.031 A 
ATOM     16  C   UNL     1      -3.387  -0.919  -7.679  0.00  0.00    +0.004 A 
ATOM     17  C   UNL     1      -2.607  -1.600  -6.737  0.00  0.00    +0.002 A 
ENDROOT
BRANCH   9   4
ATOM      2  N   UNL     1       1.967   4.896  -6.791  0.00  0.00    -0.299 NA
ATOM      4  C   UNL     1       1.064   2.973  -7.785  0.00  0.00    +0.090 C 
ATOM      5  C   UNL     1       1.735   3.479  -6.502  0.00  0.00    +0.097 C 
ATOM      6  C   UNL     1       0.422   4.225  -8.408  0.00  0.00    +0.029 C 
ATOM      7  C   UNL     1       0.737   5.355  -7.436  0.00  0.00    +0.085 C 
BRANCH   2   8
ATOM      8  C   UNL     1       2.285   5.662  -5.595  0.00  0.00    +0.050 C 
ATOM     10  C   UNL     1       1.229   6.743  -5.388  0.00  0.00    +0.024 C 
ATOM     11  C   UNL     1       2.368   4.739  -4.383  0.00  0.00    +0.024 C 
ENDBRANCH   2   8
ENDBRANCH   9   4
TORSDOF 2
ENDMDL
MODEL 6
REMARK VINA RESULT:      -5.5     26.120     27.201
REMARK  Name = 51137066
REMARK  4 active torsions:
REMARK  status: ('A' for Active; 'I' for Inactive)
REMARK    1  A    between atoms: N_2  and  C_8
REMARK    2  A    between atoms: C_4  and  C_9
REMARK    3  A    between atoms: C_8  and  C_10
REMARK    4  A    between atoms: C_8  and  C_11
REMARK                            x       y       z     vdW  Elec       q    Type
REMARK                         _______ _______ _______ _____ _____    ______ ____
ROOT
ATOM      1  O   UNL     1      -3.183 -11.420  16.954  0.00  0.00    -0.439 OA
ATOM      3  N   UNL     1      -4.790 -10.286  15.826  0.00  0.00    -0.213 NA
ATOM      9  C   UNL     1      -3.580 -10.802  15.806  0.00  0.00    +0.201 A 
ATOM     12  C   UNL     1      -4.259 -11.279  17.783  0.00  0.00    +0.155 A 
ATOM     13  C   UNL     1      -5.239 -10.584  17.089  0.00  0.00    +0.110 A 
ATOM     14  C   UNL     1      -4.386 -11.733  19.089  0.00  0.00    +0.048 A 
ATOM     15  C   UNL     1      -6.456 -10.307  17.729  0.00  0.00    +0.031 A 
ATOM     16  C   UNL     1      -5.605 -11.448  19.713  0.00  0.00    +0.004 A 
ATOM     17  C   UNL     1      -6.621 -10.750  19.050  0.00  0.00    +0.002 A 
ENDROOT
BRANCH   9   4
ATOM      2  N   UNL     1      -2.365 -11.103  12.363  0.00  0.00    -0.299 NA
ATOM      4  C   UNL     1      -2.575 -10.796  14.678  0.00  0.00    +0.090 C 
ATOM      5  C   UNL     1      -3.185 -10.376  13.334  0.00  0.00    +0.097 C 
ATOM      6  C   UNL     1      -1.912 -12.156  14.397  0.00  0.00    +0.029 C 
ATOM      7  C   UNL     1      -2.205 -12.442  12.929  0.00  0.00    +0.085 C 
BRANCH   2   8
ATOM      8  C   UNL     1      -2.967 -11.130  11.038  0.00  0.00    +0.050 C 
ATOM     10  C   UNL     1      -4.357 -11.754  11.124  0.00  0.00    +0.024 C 
ATOM     11  C   UNL     1      -3.035  -9.720  10.459  0.00  0.00    +0.024 C 
ENDBRANCH   2   8
ENDBRANCH   9   4
TORSDOF 2
ENDMDL
MODEL 7
REMARK VINA RESULT:      -5.5     26.179     27.276
REMARK  Name = 51137066
REMARK  4 active torsions:
REMARK  status: ('A' for Active; 'I' for Inactive)
REMARK    1  A    between atoms: N_2  and  C_8
REMARK    2  A    between atoms: C_4  and  C_9
REMARK    3  A    between atoms: C_8  and  C_10
REMARK    4  A    between atoms: C_8  and  C_11
REMARK                            x       y       z     vdW  Elec       q    Type
REMARK                         _______ _______ _______ _____ _____    ______ ____
ROOT
ATOM      1  O   UNL     1      -4.746 -10.280  15.494  0.00  0.00    -0.439 OA
ATOM      3  N   UNL     1      -3.417 -11.233  17.064  0.00  0.00    -0.213 NA
ATOM      9  C   UNL     1      -3.546 -10.840  15.815  0.00  0.00    +0.201 A 
ATOM     12  C   UNL     1      -5.446 -10.325  16.666  0.00  0.00    +0.155 A 
ATOM     13  C   UNL     1      -4.629 -10.909  17.624  0.00  0.00    +0.110 A 
ATOM     14  C   UNL     1      -6.740  -9.878  16.897  0.00  0.00    +0.048 A 
ATOM     15  C   UNL     1      -5.121 -11.072  18.927  0.00  0.00    +0.031 A 
ATOM     16  C   UNL     1      -7.216 -10.048  18.201  0.00  0.00    +0.004 A 
ATOM     17  C   UNL     1      -6.425 -10.632  19.197  0.00  0.00    +0.002 A 
ENDROOT
BRANCH   9   4
ATOM      2  N   UNL     1      -2.348 -11.204  12.372  0.00  0.00    -0.299 NA
ATOM      4  C   UNL     1      -2.538 -10.931  14.693  0.00  0.00    +0.090 C 
ATOM      5  C   UNL     1      -3.079 -10.405  13.357  0.00  0.00    +0.097 C 
ATOM      6  C   UNL     1      -2.047 -12.355  14.380  0.00  0.00    +0.029 C 
ATOM      7  C   UNL     1      -2.361 -12.566  12.904  0.00  0.00    +0.085 C 
BRANCH   2   8
ATOM      8  C   UNL     1      -2.937 -11.123  11.043  0.00  0.00    +0.050 C 
ATOM     10  C   UNL     1      -4.351 -11.695  11.079  0.00  0.00    +0.024 C 
ATOM     11  C   UNL     1      -2.943  -9.677  10.555  0.00  0.00    +0.024 C 
ENDBRANCH   2   8
ENDBRANCH   9   4
TORSDOF 2
ENDMDL
MODEL 8
REMARK VINA RESULT:      -5.4     25.930     27.416
REMARK  Name = 51137066
REMARK  4 active torsions:
REMARK  status: ('A' for Active; 'I' for Inactive)
REMARK    1  A    between atoms: N_2  and  C_8
REMARK    2  A    between atoms: C_4  and  C_9
REMARK    3  A    between atoms: C_8  and  C_10
REMARK    4  A    between atoms: C_8  and  C_11
REMARK                            x       y       z     vdW  Elec       q    Type
REMARK                         _______ _______ _______ _____ _____    ______ ____
ROOT
ATOM      1  O   UNL     1      -4.734 -10.338  13.000  0.00  0.00    -0.439 OA
ATOM      3  N   UNL     1      -2.700 -10.636  12.044  0.00  0.00    -0.213 NA
ATOM      9  C   UNL     1      -3.477 -10.857  13.083  0.00  0.00    +0.201 A 
ATOM     12  C   UNL     1      -4.749  -9.727  11.778  0.00  0.00    +0.155 A 
ATOM     13  C   UNL     1      -3.503  -9.911  11.198  0.00  0.00    +0.110 A 
ATOM     14  C   UNL     1      -5.802  -9.037  11.190  0.00  0.00    +0.048 A 
ATOM     15  C   UNL     1      -3.261  -9.372   9.926  0.00  0.00    +0.031 A 
ATOM     16  C   UNL     1      -5.544  -8.505   9.923  0.00  0.00    +0.004 A 
ATOM     17  C   UNL     1      -4.300  -8.668   9.301  0.00  0.00    +0.002 A 
ENDROOT
BRANCH   9   4
ATOM      2  N   UNL     1      -3.821 -11.872  16.586  0.00  0.00    -0.299 NA
ATOM      4  C   UNL     1      -3.155 -11.608  14.354  0.00  0.00    +0.090 C 
ATOM      5  C   UNL     1      -4.387 -11.849  15.236  0.00  0.00    +0.097 C 
ATOM      6  C   UNL     1      -2.145 -10.908  15.279  0.00  0.00    +0.029 C 
ATOM      7  C   UNL     1      -2.864 -10.766  16.614  0.00  0.00    +0.085 C 
BRANCH   2   8
ATOM      8  C   UNL     1      -4.841 -11.749  17.617  0.00  0.00    +0.050 C 
ATOM     10  C   UNL     1      -4.190 -11.866  18.993  0.00  0.00    +0.024 C 
ATOM     11  C   UNL     1      -5.581 -10.422  17.473  0.00  0.00    +0.024 C 
ENDBRANCH   2   8
ENDBRANCH   9   4
TORSDOF 2
ENDMDL
MODEL 9
REMARK VINA RESULT:      -5.3     26.721     27.719
REMARK  Name = 51137066
REMARK  4 active torsions:
REMARK  status: ('A' for Active; 'I' for Inactive)
REMARK    1  A    between atoms: N_2  and  C_8
REMARK    2  A    between atoms: C_4  and  C_9
REMARK    3  A    between atoms: C_8  and  C_10
REMARK    4  A    between atoms: C_8  and  C_11
REMARK                            x       y       z     vdW  Elec       q    Type
REMARK                         _______ _______ _______ _____ _____    ______ ____
ROOT
ATOM      1  O   UNL     1      -3.593 -10.863  13.161  0.00  0.00    -0.439 OA
ATOM      3  N   UNL     1      -5.693 -10.011  13.206  0.00  0.00    -0.213 NA
ATOM      9  C   UNL     1      -4.776 -10.724  13.823  0.00  0.00    +0.201 A 
ATOM     12  C   UNL     1      -3.788 -10.163  12.004  0.00  0.00    +0.155 A 
ATOM     13  C   UNL     1      -5.074  -9.644  12.036  0.00  0.00    +0.110 A 
ATOM     14  C   UNL     1      -2.888  -9.981  10.963  0.00  0.00    +0.048 A 
ATOM     15  C   UNL     1      -5.523  -8.877  10.952  0.00  0.00    +0.031 A 
ATOM     16  C   UNL     1      -3.351  -9.215   9.889  0.00  0.00    +0.004 A 
ATOM     17  C   UNL     1      -4.641  -8.672   9.880  0.00  0.00    +0.002 A 
ENDROOT
BRANCH   9   4
ATOM      2  N   UNL     1      -5.865 -11.246  17.282  0.00  0.00    -0.299 NA
ATOM      4  C   UNL     1      -4.864 -11.407  15.168  0.00  0.00    +0.090 C 
ATOM      5  C   UNL     1      -6.215 -11.193  15.861  0.00  0.00    +0.097 C 
ATOM      6  C   UNL     1      -3.820 -10.942  16.198  0.00  0.00    +0.029 C 
ATOM      7  C   UNL     1      -4.632 -10.467  17.396  0.00  0.00    +0.085 C 
BRANCH   2   8
ATOM      8  C   UNL     1      -6.926 -10.731  18.135  0.00  0.00    +0.050 C 
ATOM     10  C   UNL     1      -6.358 -10.409  19.514  0.00  0.00    +0.024 C 
ATOM     11  C   UNL     1      -7.561  -9.496  17.503  0.00  0.00    +0.024 C 
ENDBRANCH   2   8
ENDBRANCH   9   4
TORSDOF 2
ENDMDL
MODEL 10
REMARK VINA RESULT:      -5.3     26.384     28.952
REMARK  Name = 51137066
REMARK  4 active torsions:
REMARK  status: ('A' for Active; 'I' for Inactive)
REMARK    1  A    between atoms: N_2  and  C_8
REMARK    2  A    between atoms: C_4  and  C_9
REMARK    3  A    between atoms: C_8  and  C_10
REMARK    4  A    between atoms: C_8  and  C_11
REMARK                            x       y       z     vdW  Elec       q    Type
REMARK                         _______ _______ _______ _____ _____    ______ ____
ROOT
ATOM      1  O   UNL     1      -7.500  -9.143  17.281  0.00  0.00    -0.439 OA
ATOM      3  N   UNL     1      -8.383 -10.690  18.683  0.00  0.00    -0.213 NA
ATOM      9  C   UNL     1      -7.301 -10.200  18.118  0.00  0.00    +0.201 A 
ATOM     12  C   UNL     1      -8.851  -8.948  17.326  0.00  0.00    +0.155 A 
ATOM     13  C   UNL     1      -9.387  -9.897  18.185  0.00  0.00    +0.110 A 
ATOM     14  C   UNL     1      -9.591  -7.986  16.649  0.00  0.00    +0.048 A 
ATOM     15  C   UNL     1     -10.772  -9.908  18.403  0.00  0.00    +0.031 A 
ATOM     16  C   UNL     1     -10.970  -8.011  16.878  0.00  0.00    +0.004 A 
ATOM     17  C   UNL     1     -11.552  -8.951  17.737  0.00  0.00    +0.002 A 
ENDROOT
BRANCH   9   4
ATOM      2  N   UNL     1      -3.974 -11.310  17.059  0.00  0.00    -0.299 NA
ATOM      4  C   UNL     1      -5.870 -10.657  18.275  0.00  0.00    +0.090 C 
ATOM      5  C   UNL     1      -4.976 -10.243  17.099  0.00  0.00    +0.097 C 
ATOM      6  C   UNL     1      -5.688 -12.181  18.384  0.00  0.00    +0.029 C 
ATOM      7  C   UNL     1      -4.731 -12.546  17.256  0.00  0.00    +0.085 C 
BRANCH   2   8
ATOM      8  C   UNL     1      -3.218 -11.316  15.815  0.00  0.00    +0.050 C 
ATOM     10  C   UNL     1      -4.062 -10.698  14.705  0.00  0.00    +0.024 C 
ATOM     11  C   UNL     1      -1.905 -10.558  15.991  0.00  0.00    +0.024 C 
ENDBRANCH   2   8
ENDBRANCH   9   4
TORSDOF 2
ENDMDL
