MODEL 1
REMARK VINA RESULT:      -7.0      0.000      0.000
REMARK  Name = 7142743
REMARK  6 active torsions:
REMARK  status: ('A' for Active; 'I' for Inactive)
REMARK    1  A    between atoms: O_4  and  C_22
REMARK    2  A    between atoms: O_4  and  C_25
REMARK    3  A    between atoms: N_8  and  C_19
REMARK    4  A    between atoms: C_18  and  C_21
REMARK    5  A    between atoms: C_21  and  C_22
REMARK    6  A    between atoms: C_23  and  C_24
REMARK                            x       y       z     vdW  Elec       q    Type
REMARK                         _______ _______ _______ _____ _____    ______ ____
ROOT
ATOM      2  O   UNL     1      15.301   6.461  21.965  0.00  0.00    -0.266 OA
ATOM      3  O   UNL     1      12.185   7.058  17.651  0.00  0.00    -0.276 OA
ATOM      6  N   UNL     1      12.193   8.993  18.938  0.00  0.00    -0.300 N 
ATOM      7  N   UNL     1      14.228   8.440  21.341  0.00  0.00    -0.310 N 
ATOM      9  C   UNL     1      11.681   8.702  21.365  0.00  0.00    +0.027 C 
ATOM     10  C   UNL     1      13.094  10.576  20.632  0.00  0.00    +0.054 C 
ATOM     11  C   UNL     1      11.975  10.180  21.593  0.00  0.00    +0.018 C 
ATOM     12  C   UNL     1      11.239   8.457  19.912  0.00  0.00    +0.113 C 
ATOM     13  C   UNL     1      12.926   7.886  21.735  0.00  0.00    +0.130 C 
ATOM     14  C   UNL     1      12.622  10.378  19.178  0.00  0.00    +0.117 C 
ATOM     15  C   UNL     1      14.345   9.756  20.883  0.00  0.00    +0.027 A 
ATOM     16  C   UNL     1      15.559  10.280  20.639  0.00  0.00    +0.024 A 
ATOM     17  C   UNL     1      15.354   7.617  21.547  0.00  0.00    +0.273 A 
ATOM     18  C   UNL     1      12.556   8.220  17.835  0.00  0.00    +0.218 C 
ATOM     19  C   UNL     1      16.685   8.231  21.240  0.00  0.00    +0.099 A 
ATOM     20  C   UNL     1      16.750   9.499  20.821  0.00  0.00    +0.030 A 
ENDROOT
BRANCH  19   8
ATOM      5  O   UNL     1      17.748   6.359  19.367  0.00  0.00    -0.269 OA
ATOM      8  N   UNL     1      17.799   7.463  21.413  0.00  0.00    -0.277 N 
ATOM     23  C   UNL     1      18.267   6.568  20.461  0.00  0.00    +0.255 C 
ATOM     29  H   UNL     1      18.187   7.418  22.352  0.00  0.00    +0.155 HD
BRANCH  23  24
ATOM      1  S   UNL     1      20.375   6.390  22.155  0.00  0.00    -0.092 S 
ATOM     24  C   UNL     1      19.509   5.837  20.820  0.00  0.00    +0.074 A 
ATOM     26  C   UNL     1      20.026   4.771  20.191  0.00  0.00    +0.021 A 
ATOM     27  C   UNL     1      21.227   4.356  20.837  0.00  0.00    +0.008 A 
ATOM     28  C   UNL     1      21.532   5.151  21.921  0.00  0.00    +0.046 A 
ENDBRANCH  23  24
ENDBRANCH  19   8
BRANCH  18  21
ATOM     21  C   UNL     1      13.467   8.871  16.825  0.00  0.00    +0.124 C 
BRANCH  21  22
ATOM     22  C   UNL     1      12.640   9.454  15.699  0.00  0.00    +0.168 C 
BRANCH  22   4
ATOM      4  O   UNL     1      13.476  10.229  14.848  0.00  0.00    -0.382 OA
ATOM     25  C   UNL     1      14.441  10.961  15.592  0.00  0.00    +0.194 C 
ENDBRANCH  22   4
ENDBRANCH  21  22
ENDBRANCH  18  21
TORSDOF 5
ENDMDL
MODEL 2
REMARK VINA RESULT:      -6.1     27.230     29.619
REMARK  Name = 7142743
REMARK  6 active torsions:
REMARK  status: ('A' for Active; 'I' for Inactive)
REMARK    1  A    between atoms: O_4  and  C_22
REMARK    2  A    between atoms: O_4  and  C_25
REMARK    3  A    between atoms: N_8  and  C_19
REMARK    4  A    between atoms: C_18  and  C_21
REMARK    5  A    between atoms: C_21  and  C_22
REMARK    6  A    between atoms: C_23  and  C_24
REMARK                            x       y       z     vdW  Elec       q    Type
REMARK                         _______ _______ _______ _____ _____    ______ ____
ROOT
ATOM      2  O   UNL     1      -6.643  -9.976  14.211  0.00  0.00    -0.266 OA
ATOM      3  O   UNL     1      -4.436 -14.543  12.496  0.00  0.00    -0.276 OA
ATOM      6  N   UNL     1      -2.797 -12.995  13.058  0.00  0.00    -0.300 N 
ATOM      7  N   UNL     1      -4.354 -10.442  14.190  0.00  0.00    -0.310 N 
ATOM      9  C   UNL     1      -3.019 -10.732  12.024  0.00  0.00    +0.027 C 
ATOM     10  C   UNL     1      -1.891 -10.976  14.196  0.00  0.00    +0.054 C 
ATOM     11  C   UNL     1      -1.835 -10.249  12.853  0.00  0.00    +0.018 C 
ATOM     12  C   UNL     1      -2.939 -12.253  11.804  0.00  0.00    +0.113 C 
ATOM     13  C   UNL     1      -4.318 -10.319  12.726  0.00  0.00    +0.130 C 
ATOM     14  C   UNL     1      -1.755 -12.494  13.967  0.00  0.00    +0.117 C 
ATOM     15  C   UNL     1      -3.188 -10.678  14.924  0.00  0.00    +0.027 A 
ATOM     16  C   UNL     1      -3.223 -10.672  16.268  0.00  0.00    +0.024 A 
ATOM     17  C   UNL     1      -5.595 -10.206  14.815  0.00  0.00    +0.273 A 
ATOM     18  C   UNL     1      -3.566 -14.139  13.272  0.00  0.00    +0.218 C 
ATOM     19  C   UNL     1      -5.596 -10.231  16.312  0.00  0.00    +0.099 A 
ATOM     20  C   UNL     1      -4.454 -10.444  16.972  0.00  0.00    +0.030 A 
ENDROOT
BRANCH  19   8
ATOM      5  O   UNL     1      -7.274 -12.239  17.449  0.00  0.00    -0.269 OA
ATOM      8  N   UNL     1      -6.781 -10.021  16.955  0.00  0.00    -0.277 N 
ATOM     23  C   UNL     1      -7.554 -11.044  17.488  0.00  0.00    +0.255 C 
ATOM     29  H   UNL     1      -7.194  -9.096  16.871  0.00  0.00    +0.155 HD
BRANCH  23  24
ATOM      1  S   UNL     1      -9.210 -11.407  19.603  0.00  0.00    -0.092 S 
ATOM     24  C   UNL     1      -8.802 -10.617  18.172  0.00  0.00    +0.074 A 
ATOM     26  C   UNL     1      -9.652  -9.660  17.772  0.00  0.00    +0.021 A 
ATOM     27  C   UNL     1     -10.731  -9.547  18.695  0.00  0.00    +0.008 A 
ATOM     28  C   UNL     1     -10.615 -10.439  19.739  0.00  0.00    +0.046 A 
ENDBRANCH  23  24
ENDBRANCH  19   8
BRANCH  18  21
ATOM     21  C   UNL     1      -3.299 -14.905  14.542  0.00  0.00    +0.124 C 
BRANCH  21  22
ATOM     22  C   UNL     1      -2.524 -16.165  14.221  0.00  0.00    +0.168 C 
BRANCH  22   4
ATOM      4  O   UNL     1      -1.140 -15.948  14.467  0.00  0.00    -0.382 OA
ATOM     25  C   UNL     1      -0.394 -15.920  13.258  0.00  0.00    +0.194 C 
ENDBRANCH  22   4
ENDBRANCH  21  22
ENDBRANCH  18  21
TORSDOF 5
ENDMDL
MODEL 3
REMARK VINA RESULT:      -6.0     14.178     17.546
REMARK  Name = 7142743
REMARK  6 active torsions:
REMARK  status: ('A' for Active; 'I' for Inactive)
REMARK    1  A    between atoms: O_4  and  C_22
REMARK    2  A    between atoms: O_4  and  C_25
REMARK    3  A    between atoms: N_8  and  C_19
REMARK    4  A    between atoms: C_18  and  C_21
REMARK    5  A    between atoms: C_21  and  C_22
REMARK    6  A    between atoms: C_23  and  C_24
REMARK                            x       y       z     vdW  Elec       q    Type
REMARK                         _______ _______ _______ _____ _____    ______ ____
ROOT
ATOM      2  O   UNL     1       9.697   7.259   2.321  0.00  0.00    -0.266 OA
ATOM      3  O   UNL     1      12.864   9.389   6.077  0.00  0.00    -0.276 OA
ATOM      6  N   UNL     1      11.145   8.161   7.046  0.00  0.00    -0.300 N 
ATOM      7  N   UNL     1       9.508   6.877   4.618  0.00  0.00    -0.310 N 
ATOM      9  C   UNL     1       8.833   8.708   6.276  0.00  0.00    +0.027 C 
ATOM     10  C   UNL     1       9.343   6.446   7.096  0.00  0.00    +0.054 C 
ATOM     11  C   UNL     1       8.293   7.555   7.115  0.00  0.00    +0.018 C 
ATOM     12  C   UNL     1      10.158   9.226   6.862  0.00  0.00    +0.113 C 
ATOM     13  C   UNL     1       8.989   8.236   4.826  0.00  0.00    +0.130 C 
ATOM     14  C   UNL     1      10.649   6.960   7.734  0.00  0.00    +0.117 C 
ATOM     15  C   UNL     1       9.613   5.973   5.680  0.00  0.00    +0.027 A 
ATOM     16  C   UNL     1       9.980   4.701   5.450  0.00  0.00    +0.024 A 
ATOM     17  C   UNL     1       9.792   6.504   3.289  0.00  0.00    +0.273 A 
ATOM     18  C   UNL     1      12.467   8.373   6.654  0.00  0.00    +0.218 C 
ATOM     19  C   UNL     1      10.221   5.085   3.078  0.00  0.00    +0.099 A 
ATOM     20  C   UNL     1      10.291   4.251   4.121  0.00  0.00    +0.030 A 
ENDROOT
BRANCH  19   8
ATOM      5  O   UNL     1      12.836   4.773   1.980  0.00  0.00    -0.269 OA
ATOM      8  N   UNL     1      10.518   4.688   1.808  0.00  0.00    -0.277 N 
ATOM     23  C   UNL     1      11.816   4.555   1.332  0.00  0.00    +0.255 C 
ATOM     29  H   UNL     1       9.753   4.670   1.139  0.00  0.00    +0.155 HD
BRANCH  23  24
ATOM      1  S   UNL     1      10.863   4.726  -1.200  0.00  0.00    -0.092 S 
ATOM     24  C   UNL     1      11.941   4.089  -0.074  0.00  0.00    +0.074 A 
ATOM     26  C   UNL     1      12.829   3.204  -0.552  0.00  0.00    +0.021 A 
ATOM     27  C   UNL     1      12.629   3.018  -1.950  0.00  0.00    +0.008 A 
ATOM     28  C   UNL     1      11.592   3.786  -2.432  0.00  0.00    +0.046 A 
ENDBRANCH  23  24
ENDBRANCH  19   8
BRANCH  18  21
ATOM     21  C   UNL     1      13.448   7.270   6.961  0.00  0.00    +0.124 C 
BRANCH  21  22
ATOM     22  C   UNL     1      14.814   7.644   6.428  0.00  0.00    +0.168 C 
BRANCH  22   4
ATOM      4  O   UNL     1      15.022   7.013   5.170  0.00  0.00    -0.382 OA
ATOM     25  C   UNL     1      15.996   7.702   4.397  0.00  0.00    +0.194 C 
ENDBRANCH  22   4
ENDBRANCH  21  22
ENDBRANCH  18  21
TORSDOF 5
ENDMDL
MODEL 4
REMARK VINA RESULT:      -5.9     27.518     29.671
REMARK  Name = 7142743
REMARK  6 active torsions:
REMARK  status: ('A' for Active; 'I' for Inactive)
REMARK    1  A    between atoms: O_4  and  C_22
REMARK    2  A    between atoms: O_4  and  C_25
REMARK    3  A    between atoms: N_8  and  C_19
REMARK    4  A    between atoms: C_18  and  C_21
REMARK    5  A    between atoms: C_21  and  C_22
REMARK    6  A    between atoms: C_23  and  C_24
REMARK                            x       y       z     vdW  Elec       q    Type
REMARK                         _______ _______ _______ _____ _____    ______ ____
ROOT
ATOM      2  O   UNL     1      -4.705 -12.900  10.021  0.00  0.00    -0.266 OA
ATOM      3  O   UNL     1      -5.959 -12.544  15.215  0.00  0.00    -0.276 OA
ATOM      6  N   UNL     1      -3.660 -12.397  14.909  0.00  0.00    -0.300 N 
ATOM      7  N   UNL     1      -3.190 -12.475  11.748  0.00  0.00    -0.310 N 
ATOM      9  C   UNL     1      -2.614 -14.207  13.543  0.00  0.00    +0.027 C 
ATOM     10  C   UNL     1      -1.575 -11.979  13.618  0.00  0.00    +0.054 C 
ATOM     11  C   UNL     1      -1.278 -13.478  13.620  0.00  0.00    +0.018 C 
ATOM     12  C   UNL     1      -3.498 -13.843  14.749  0.00  0.00    +0.113 C 
ATOM     13  C   UNL     1      -3.289 -13.866  12.209  0.00  0.00    +0.130 C 
ATOM     14  C   UNL     1      -2.415 -11.617  14.858  0.00  0.00    +0.117 C 
ATOM     15  C   UNL     1      -2.315 -11.571  12.358  0.00  0.00    +0.027 A 
ATOM     16  C   UNL     1      -2.153 -10.338  11.848  0.00  0.00    +0.024 A 
ATOM     17  C   UNL     1      -3.937 -12.133  10.602  0.00  0.00    +0.273 A 
ATOM     18  C   UNL     1      -4.925 -11.872  15.177  0.00  0.00    +0.218 C 
ATOM     19  C   UNL     1      -3.747 -10.743  10.080  0.00  0.00    +0.099 A 
ATOM     20  C   UNL     1      -2.887  -9.919  10.687  0.00  0.00    +0.030 A 
ENDROOT
BRANCH  19   8
ATOM      5  O   UNL     1      -6.325  -9.518  10.086  0.00  0.00    -0.269 OA
ATOM      8  N   UNL     1      -4.463 -10.368   8.981  0.00  0.00    -0.277 N 
ATOM     23  C   UNL     1      -5.717  -9.775   9.051  0.00  0.00    +0.255 C 
ATOM     29  H   UNL     1      -4.138 -10.710   8.081  0.00  0.00    +0.155 HD
BRANCH  23  24
ATOM      1  S   UNL     1      -7.642  -8.359   7.772  0.00  0.00    -0.092 S 
ATOM     24  C   UNL     1      -6.331  -9.416   7.746  0.00  0.00    +0.074 A 
ATOM     26  C   UNL     1      -5.954  -9.847   6.534  0.00  0.00    +0.021 A 
ATOM     27  C   UNL     1      -6.791  -9.279   5.530  0.00  0.00    +0.008 A 
ATOM     28  C   UNL     1      -7.752  -8.449   6.066  0.00  0.00    +0.046 A 
ENDBRANCH  23  24
ENDBRANCH  19   8
BRANCH  18  21
ATOM     21  C   UNL     1      -5.002 -10.387  15.424  0.00  0.00    +0.124 C 
BRANCH  21  22
ATOM     22  C   UNL     1      -5.586 -10.132  16.797  0.00  0.00    +0.168 C 
BRANCH  22   4
ATOM      4  O   UNL     1      -4.708 -10.647  17.790  0.00  0.00    -0.382 OA
ATOM     25  C   UNL     1      -5.416 -11.041  18.957  0.00  0.00    +0.194 C 
ENDBRANCH  22   4
ENDBRANCH  21  22
ENDBRANCH  18  21
TORSDOF 5
ENDMDL
MODEL 5
REMARK VINA RESULT:      -5.9     28.442     31.067
REMARK  Name = 7142743
REMARK  6 active torsions:
REMARK  status: ('A' for Active; 'I' for Inactive)
REMARK    1  A    between atoms: O_4  and  C_22
REMARK    2  A    between atoms: O_4  and  C_25
REMARK    3  A    between atoms: N_8  and  C_19
REMARK    4  A    between atoms: C_18  and  C_21
REMARK    5  A    between atoms: C_21  and  C_22
REMARK    6  A    between atoms: C_23  and  C_24
REMARK                            x       y       z     vdW  Elec       q    Type
REMARK                         _______ _______ _______ _____ _____    ______ ____
ROOT
ATOM      2  O   UNL     1      -9.997 -10.218  14.317  0.00  0.00    -0.266 OA
ATOM      3  O   UNL     1     -12.543  -6.461  11.474  0.00  0.00    -0.276 OA
ATOM      6  N   UNL     1     -13.501  -6.694  13.578  0.00  0.00    -0.300 N 
ATOM      7  N   UNL     1     -11.721  -8.859  15.117  0.00  0.00    -0.310 N 
ATOM      9  C   UNL     1     -14.125  -9.017  14.252  0.00  0.00    +0.027 C 
ATOM     10  C   UNL     1     -13.555  -7.358  15.975  0.00  0.00    +0.054 C 
ATOM     11  C   UNL     1     -14.509  -8.501  15.634  0.00  0.00    +0.018 C 
ATOM     12  C   UNL     1     -14.249  -7.896  13.204  0.00  0.00    +0.113 C 
ATOM     13  C   UNL     1     -12.706  -9.595  14.313  0.00  0.00    +0.130 C 
ATOM     14  C   UNL     1     -13.725  -6.219  14.951  0.00  0.00    +0.117 C 
ATOM     15  C   UNL     1     -12.114  -7.833  15.982  0.00  0.00    +0.027 A 
ATOM     16  C   UNL     1     -11.213  -7.252  16.793  0.00  0.00    +0.024 A 
ATOM     17  C   UNL     1     -10.386  -9.308  15.049  0.00  0.00    +0.273 A 
ATOM     18  C   UNL     1     -12.719  -6.046  12.622  0.00  0.00    +0.218 C 
ATOM     19  C   UNL     1      -9.410  -8.618  15.950  0.00  0.00    +0.099 A 
ATOM     20  C   UNL     1      -9.835  -7.654  16.773  0.00  0.00    +0.030 A 
ENDROOT
BRANCH  19   8
ATOM      5  O   UNL     1      -8.128 -10.403  17.770  0.00  0.00    -0.269 OA
ATOM      8  N   UNL     1      -8.106  -9.014  15.904  0.00  0.00    -0.277 N 
ATOM     23  C   UNL     1      -7.540  -9.889  16.822  0.00  0.00    +0.255 C 
ATOM     29  H   UNL     1      -7.489  -8.500  15.281  0.00  0.00    +0.155 HD
BRANCH  23  24
ATOM      1  S   UNL     1      -5.560 -10.238  15.004  0.00  0.00    -0.092 S 
ATOM     24  C   UNL     1      -6.109 -10.222  16.596  0.00  0.00    +0.074 A 
ATOM     26  C   UNL     1      -5.194 -10.515  17.531  0.00  0.00    +0.021 A 
ATOM     27  C   UNL     1      -3.934 -10.777  16.918  0.00  0.00    +0.008 A 
ATOM     28  C   UNL     1      -3.993 -10.661  15.546  0.00  0.00    +0.046 A 
ENDBRANCH  23  24
ENDBRANCH  19   8
BRANCH  18  21
ATOM     21  C   UNL     1     -12.053  -4.762  13.051  0.00  0.00    +0.124 C 
BRANCH  21  22
ATOM     22  C   UNL     1     -12.688  -3.596  12.324  0.00  0.00    +0.168 C 
BRANCH  22   4
ATOM      4  O   UNL     1     -13.864  -3.190  13.013  0.00  0.00    -0.382 OA
ATOM     25  C   UNL     1     -14.994  -3.180  12.151  0.00  0.00    +0.194 C 
ENDBRANCH  22   4
ENDBRANCH  21  22
ENDBRANCH  18  21
TORSDOF 5
ENDMDL
MODEL 6
REMARK VINA RESULT:      -5.8     27.639     30.062
REMARK  Name = 7142743
REMARK  6 active torsions:
REMARK  status: ('A' for Active; 'I' for Inactive)
REMARK    1  A    between atoms: O_4  and  C_22
REMARK    2  A    between atoms: O_4  and  C_25
REMARK    3  A    between atoms: N_8  and  C_19
REMARK    4  A    between atoms: C_18  and  C_21
REMARK    5  A    between atoms: C_21  and  C_22
REMARK    6  A    between atoms: C_23  and  C_24
REMARK                            x       y       z     vdW  Elec       q    Type
REMARK                         _______ _______ _______ _____ _____    ______ ____
ROOT
ATOM      2  O   UNL     1      -7.165 -12.882  16.406  0.00  0.00    -0.266 OA
ATOM      3  O   UNL     1     -11.355  -9.603  15.805  0.00  0.00    -0.276 OA
ATOM      6  N   UNL     1     -11.176 -10.318  18.009  0.00  0.00    -0.300 N 
ATOM      7  N   UNL     1      -8.535 -12.116  18.136  0.00  0.00    -0.310 N 
ATOM      9  C   UNL     1     -10.997 -12.785  18.354  0.00  0.00    +0.027 C 
ATOM     10  C   UNL     1     -10.000 -11.248  19.995  0.00  0.00    +0.054 C 
ATOM     11  C   UNL     1     -10.784 -12.550  19.845  0.00  0.00    +0.018 C 
ATOM     12  C   UNL     1     -11.786 -11.620  17.731  0.00  0.00    +0.113 C 
ATOM     13  C   UNL     1      -9.632 -12.981  17.683  0.00  0.00    +0.130 C 
ATOM     14  C   UNL     1     -10.822 -10.080  19.416  0.00  0.00    +0.117 C 
ATOM     15  C   UNL     1      -8.660 -11.333  19.289  0.00  0.00    +0.027 A 
ATOM     16  C   UNL     1      -7.606 -10.638  19.750  0.00  0.00    +0.024 A 
ATOM     17  C   UNL     1      -7.327 -12.195  17.414  0.00  0.00    +0.273 A 
ATOM     18  C   UNL     1     -11.052  -9.383  16.981  0.00  0.00    +0.218 C 
ATOM     19  C   UNL     1      -6.185 -11.386  17.948  0.00  0.00    +0.099 A 
ATOM     20  C   UNL     1      -6.345 -10.666  19.063  0.00  0.00    +0.030 A 
ENDROOT
BRANCH  19   8
ATOM      5  O   UNL     1      -5.392  -9.630  15.843  0.00  0.00    -0.269 OA
ATOM      8  N   UNL     1      -5.001 -11.425  17.270  0.00  0.00    -0.277 N 
ATOM     23  C   UNL     1      -4.674 -10.539  16.253  0.00  0.00    +0.255 C 
ATOM     29  H   UNL     1      -4.424 -12.251  17.397  0.00  0.00    +0.155 HD
BRANCH  23  24
ATOM      1  S   UNL     1      -3.251 -10.908  13.975  0.00  0.00    -0.092 S 
ATOM     24  C   UNL     1      -3.329 -10.723  15.647  0.00  0.00    +0.074 A 
ATOM     26  C   UNL     1      -2.155 -10.760  16.294  0.00  0.00    +0.021 A 
ATOM     27  C   UNL     1      -1.091 -10.954  15.365  0.00  0.00    +0.008 A 
ATOM     28  C   UNL     1      -1.548 -11.051  14.068  0.00  0.00    +0.046 A 
ENDBRANCH  23  24
ENDBRANCH  19   8
BRANCH  18  21
ATOM     21  C   UNL     1     -10.504  -8.031  17.360  0.00  0.00    +0.124 C 
BRANCH  21  22
ATOM     22  C   UNL     1     -10.322  -7.191  16.114  0.00  0.00    +0.168 C 
BRANCH  22   4
ATOM      4  O   UNL     1     -11.091  -6.000  16.228  0.00  0.00    -0.382 OA
ATOM     25  C   UNL     1     -12.240  -6.040  15.392  0.00  0.00    +0.194 C 
ENDBRANCH  22   4
ENDBRANCH  21  22
ENDBRANCH  18  21
TORSDOF 5
ENDMDL
MODEL 7
REMARK VINA RESULT:      -5.7     13.575     15.129
REMARK  Name = 7142743
REMARK  6 active torsions:
REMARK  status: ('A' for Active; 'I' for Inactive)
REMARK    1  A    between atoms: O_4  and  C_22
REMARK    2  A    between atoms: O_4  and  C_25
REMARK    3  A    between atoms: N_8  and  C_19
REMARK    4  A    between atoms: C_18  and  C_21
REMARK    5  A    between atoms: C_21  and  C_22
REMARK    6  A    between atoms: C_23  and  C_24
REMARK                            x       y       z     vdW  Elec       q    Type
REMARK                         _______ _______ _______ _____ _____    ______ ____
ROOT
ATOM      2  O   UNL     1      14.005   6.534   7.342  0.00  0.00    -0.266 OA
ATOM      3  O   UNL     1      10.437   4.425   3.951  0.00  0.00    -0.276 OA
ATOM      6  N   UNL     1       9.481   6.140   5.194  0.00  0.00    -0.300 N 
ATOM      7  N   UNL     1      11.832   7.325   7.008  0.00  0.00    -0.310 N 
ATOM      9  C   UNL     1       9.753   5.987   7.672  0.00  0.00    +0.027 C 
ATOM     10  C   UNL     1       9.498   8.188   6.606  0.00  0.00    +0.054 C 
ATOM     11  C   UNL     1       9.091   7.352   7.818  0.00  0.00    +0.018 C 
ATOM     12  C   UNL     1       9.289   5.298   6.376  0.00  0.00    +0.113 C 
ATOM     13  C   UNL     1      11.275   6.165   7.717  0.00  0.00    +0.130 C 
ATOM     14  C   UNL     1       8.982   7.517   5.318  0.00  0.00    +0.117 C 
ATOM     15  C   UNL     1      11.005   8.349   6.534  0.00  0.00    +0.027 A 
ATOM     16  C   UNL     1      11.543   9.455   5.992  0.00  0.00    +0.024 A 
ATOM     17  C   UNL     1      13.237   7.401   6.924  0.00  0.00    +0.273 A 
ATOM     18  C   UNL     1      10.024   5.584   4.035  0.00  0.00    +0.218 C 
ATOM     19  C   UNL     1      13.795   8.638   6.292  0.00  0.00    +0.099 A 
ATOM     20  C   UNL     1      12.967   9.599   5.869  0.00  0.00    +0.030 A 
ENDROOT
BRANCH  19   8
ATOM      5  O   UNL     1      15.379   7.734   4.097  0.00  0.00    -0.269 OA
ATOM      8  N   UNL     1      15.150   8.744   6.179  0.00  0.00    -0.277 N 
ATOM     23  C   UNL     1      15.865   8.283   5.082  0.00  0.00    +0.255 C 
ATOM     29  H   UNL     1      15.664   9.004   7.017  0.00  0.00    +0.155 HD
BRANCH  23  24
ATOM      1  S   UNL     1      18.175   8.446   3.672  0.00  0.00    -0.092 S 
ATOM     24  C   UNL     1      17.333   8.508   5.130  0.00  0.00    +0.074 A 
ATOM     26  C   UNL     1      18.073   8.758   6.220  0.00  0.00    +0.021 A 
ATOM     27  C   UNL     1      19.442   8.916   5.857  0.00  0.00    +0.008 A 
ATOM     28  C   UNL     1      19.637   8.771   4.500  0.00  0.00    +0.046 A 
ENDBRANCH  23  24
ENDBRANCH  19   8
BRANCH  18  21
ATOM     21  C   UNL     1      10.104   6.484   2.828  0.00  0.00    +0.124 C 
BRANCH  21  22
ATOM     22  C   UNL     1      10.467   5.664   1.609  0.00  0.00    +0.168 C 
BRANCH  22   4
ATOM      4  O   UNL     1      11.795   5.975   1.205  0.00  0.00    -0.382 OA
ATOM     25  C   UNL     1      12.632   4.826   1.239  0.00  0.00    +0.194 C 
ENDBRANCH  22   4
ENDBRANCH  21  22
ENDBRANCH  18  21
TORSDOF 5
ENDMDL
MODEL 8
REMARK VINA RESULT:      -5.6     23.322     26.511
REMARK  Name = 7142743
REMARK  6 active torsions:
REMARK  status: ('A' for Active; 'I' for Inactive)
REMARK    1  A    between atoms: O_4  and  C_22
REMARK    2  A    between atoms: O_4  and  C_25
REMARK    3  A    between atoms: N_8  and  C_19
REMARK    4  A    between atoms: C_18  and  C_21
REMARK    5  A    between atoms: C_21  and  C_22
REMARK    6  A    between atoms: C_23  and  C_24
REMARK                            x       y       z     vdW  Elec       q    Type
REMARK                         _______ _______ _______ _____ _____    ______ ____
ROOT
ATOM      2  O   UNL     1      -6.897   9.609   5.150  0.00  0.00    -0.266 OA
ATOM      3  O   UNL     1      -2.823  11.801   2.455  0.00  0.00    -0.276 OA
ATOM      6  N   UNL     1      -2.046  10.566   4.262  0.00  0.00    -0.300 N 
ATOM      7  N   UNL     1      -4.633   9.245   5.599  0.00  0.00    -0.310 N 
ATOM      9  C   UNL     1      -3.082  11.083   6.476  0.00  0.00    +0.027 C 
ATOM     10  C   UNL     1      -2.187   8.834   6.044  0.00  0.00    +0.054 C 
ATOM     11  C   UNL     1      -2.300   9.933   7.098  0.00  0.00    +0.018 C 
ATOM     12  C   UNL     1      -2.353  11.620   5.231  0.00  0.00    +0.113 C 
ATOM     13  C   UNL     1      -4.500  10.600   6.150  0.00  0.00    +0.130 C 
ATOM     14  C   UNL     1      -1.409   9.366   4.824  0.00  0.00    +0.117 C 
ATOM     15  C   UNL     1      -3.558   8.351   5.609  0.00  0.00    +0.027 A 
ATOM     16  C   UNL     1      -3.732   7.081   5.207  0.00  0.00    +0.024 A 
ATOM     17  C   UNL     1      -5.918   8.863   5.161  0.00  0.00    +0.273 A 
ATOM     18  C   UNL     1      -2.286  10.787   2.906  0.00  0.00    +0.218 C 
ATOM     19  C   UNL     1      -6.064   7.446   4.698  0.00  0.00    +0.099 A 
ATOM     20  C   UNL     1      -5.012   6.623   4.742  0.00  0.00    +0.030 A 
ENDROOT
BRANCH  19   8
ATOM      5  O   UNL     1      -8.011   6.007   6.208  0.00  0.00    -0.269 OA
ATOM      8  N   UNL     1      -7.288   7.041   4.254  0.00  0.00    -0.277 N 
ATOM     23  C   UNL     1      -8.194   6.341   5.040  0.00  0.00    +0.255 C 
ATOM     29  H   UNL     1      -7.458   7.097   3.253  0.00  0.00    +0.155 HD
BRANCH  23  24
ATOM      1  S   UNL     1      -9.536   6.036   2.705  0.00  0.00    -0.092 S 
ATOM     24  C   UNL     1      -9.487   6.006   4.388  0.00  0.00    +0.074 A 
ATOM     26  C   UNL     1     -10.634   5.678   5.000  0.00  0.00    +0.021 A 
ATOM     27  C   UNL     1     -11.650   5.426   4.032  0.00  0.00    +0.008 A 
ATOM     28  C   UNL     1     -11.187   5.585   2.744  0.00  0.00    +0.046 A 
ENDBRANCH  23  24
ENDBRANCH  19   8
BRANCH  18  21
ATOM     21  C   UNL     1      -1.858   9.696   1.958  0.00  0.00    +0.124 C 
BRANCH  21  22
ATOM     22  C   UNL     1      -0.515  10.047   1.354  0.00  0.00    +0.168 C 
BRANCH  22   4
ATOM      4  O   UNL     1      -0.521   9.733  -0.033  0.00  0.00    -0.382 OA
ATOM     25  C   UNL     1      -1.740   9.113  -0.421  0.00  0.00    +0.194 C 
ENDBRANCH  22   4
ENDBRANCH  21  22
ENDBRANCH  18  21
TORSDOF 5
ENDMDL
MODEL 9
REMARK VINA RESULT:      -5.6     27.274     29.448
REMARK  Name = 7142743
REMARK  6 active torsions:
REMARK  status: ('A' for Active; 'I' for Inactive)
REMARK    1  A    between atoms: O_4  and  C_22
REMARK    2  A    between atoms: O_4  and  C_25
REMARK    3  A    between atoms: N_8  and  C_19
REMARK    4  A    between atoms: C_18  and  C_21
REMARK    5  A    between atoms: C_21  and  C_22
REMARK    6  A    between atoms: C_23  and  C_24
REMARK                            x       y       z     vdW  Elec       q    Type
REMARK                         _______ _______ _______ _____ _____    ______ ____
ROOT
ATOM      2  O   UNL     1     -14.080   9.280  21.697  0.00  0.00    -0.266 OA
ATOM      3  O   UNL     1     -14.909  10.112  16.473  0.00  0.00    -0.276 OA
ATOM      6  N   UNL     1     -12.636   9.998  16.940  0.00  0.00    -0.300 N 
ATOM      7  N   UNL     1     -12.413   9.344  20.062  0.00  0.00    -0.310 N 
ATOM      9  C   UNL     1     -11.814  11.477  18.777  0.00  0.00    +0.027 C 
ATOM     10  C   UNL     1     -10.632   9.378  18.279  0.00  0.00    +0.054 C 
ATOM     11  C   UNL     1     -10.432  10.846  18.652  0.00  0.00    +0.018 C 
ATOM     12  C   UNL     1     -12.578  11.371  17.446  0.00  0.00    +0.113 C 
ATOM     13  C   UNL     1     -12.566  10.799  19.929  0.00  0.00    +0.130 C 
ATOM     14  C   UNL     1     -11.351   9.284  16.918  0.00  0.00    +0.117 C 
ATOM     15  C   UNL     1     -11.438   8.651  19.338  0.00  0.00    +0.027 A 
ATOM     16  C   UNL     1     -11.238   7.340  19.559  0.00  0.00    +0.024 A 
ATOM     17  C   UNL     1     -13.223   8.708  21.025  0.00  0.00    +0.273 A 
ATOM     18  C   UNL     1     -13.840   9.497  16.445  0.00  0.00    +0.218 C 
ATOM     19  C   UNL     1     -12.985   7.243  21.223  0.00  0.00    +0.099 A 
ATOM     20  C   UNL     1     -12.030   6.625  20.521  0.00  0.00    +0.030 A 
ENDROOT
BRANCH  19   8
ATOM      5  O   UNL     1     -15.430   5.873  20.687  0.00  0.00    -0.269 OA
ATOM      8  N   UNL     1     -13.757   6.587  22.137  0.00  0.00    -0.277 N 
ATOM     23  C   UNL     1     -14.940   5.937  21.812  0.00  0.00    +0.255 C 
ATOM     29  H   UNL     1     -13.545   6.744  23.118  0.00  0.00    +0.155 HD
BRANCH  23  24
ATOM      1  S   UNL     1     -17.300   5.455  23.055  0.00  0.00    -0.092 S 
ATOM     24  C   UNL     1     -15.632   5.259  22.939  0.00  0.00    +0.074 A 
ATOM     26  C   UNL     1     -15.067   4.497  23.887  0.00  0.00    +0.021 A 
ATOM     27  C   UNL     1     -16.061   4.025  24.792  0.00  0.00    +0.008 A 
ATOM     28  C   UNL     1     -17.321   4.472  24.456  0.00  0.00    +0.046 A 
ENDBRANCH  23  24
ENDBRANCH  19   8
BRANCH  18  21
ATOM     21  C   UNL     1     -13.803   8.111  15.854  0.00  0.00    +0.124 C 
BRANCH  21  22
ATOM     22  C   UNL     1     -15.176   7.747  15.331  0.00  0.00    +0.168 C 
BRANCH  22   4
ATOM      4  O   UNL     1     -15.065   6.657  14.423  0.00  0.00    -0.382 OA
ATOM     25  C   UNL     1     -14.248   6.989  13.309  0.00  0.00    +0.194 C 
ENDBRANCH  22   4
ENDBRANCH  21  22
ENDBRANCH  18  21
TORSDOF 5
ENDMDL
MODEL 10
REMARK VINA RESULT:      -5.6     27.921     29.539
REMARK  Name = 7142743
REMARK  6 active torsions:
REMARK  status: ('A' for Active; 'I' for Inactive)
REMARK    1  A    between atoms: O_4  and  C_22
REMARK    2  A    between atoms: O_4  and  C_25
REMARK    3  A    between atoms: N_8  and  C_19
REMARK    4  A    between atoms: C_18  and  C_21
REMARK    5  A    between atoms: C_21  and  C_22
REMARK    6  A    between atoms: C_23  and  C_24
REMARK                            x       y       z     vdW  Elec       q    Type
REMARK                         _______ _______ _______ _____ _____    ______ ____
ROOT
ATOM      2  O   UNL     1      -6.768  -9.547  13.800  0.00  0.00    -0.266 OA
ATOM      3  O   UNL     1      -6.982 -12.945   9.668  0.00  0.00    -0.276 OA
ATOM      6  N   UNL     1      -5.153 -11.526   9.475  0.00  0.00    -0.300 N 
ATOM      7  N   UNL     1      -5.160  -9.722  12.115  0.00  0.00    -0.310 N 
ATOM      9  C   UNL     1      -5.629  -9.083   9.680  0.00  0.00    +0.027 C 
ATOM     10  C   UNL     1      -3.416  -9.952  10.310  0.00  0.00    +0.054 C 
ATOM     11  C   UNL     1      -4.133  -8.797   9.613  0.00  0.00    +0.018 C 
ATOM     12  C   UNL     1      -5.956 -10.410   8.974  0.00  0.00    +0.113 C 
ATOM     13  C   UNL     1      -6.068  -9.088  11.150  0.00  0.00    +0.130 C 
ATOM     14  C   UNL     1      -3.708 -11.268   9.562  0.00  0.00    +0.117 C 
ATOM     15  C   UNL     1      -3.855 -10.074  11.757  0.00  0.00    +0.027 A 
ATOM     16  C   UNL     1      -3.004 -10.546  12.685  0.00  0.00    +0.024 A 
ATOM     17  C   UNL     1      -5.635  -9.859  13.435  0.00  0.00    +0.273 A 
ATOM     18  C   UNL     1      -5.767 -12.749   9.747  0.00  0.00    +0.218 C 
ATOM     19  C   UNL     1      -4.664 -10.411  14.432  0.00  0.00    +0.099 A 
ATOM     20  C   UNL     1      -3.421 -10.717  14.048  0.00  0.00    +0.030 A 
ENDROOT
BRANCH  19   8
ATOM      5  O   UNL     1      -5.625 -12.832  15.598  0.00  0.00    -0.269 OA
ATOM      8  N   UNL     1      -5.089 -10.571  15.719  0.00  0.00    -0.277 N 
ATOM     23  C   UNL     1      -5.547 -11.780  16.228  0.00  0.00    +0.255 C 
ATOM     29  H   UNL     1      -5.247  -9.727  16.261  0.00  0.00    +0.155 HD
BRANCH  23  24
ATOM      1  S   UNL     1      -7.307 -12.657  18.093  0.00  0.00    -0.092 S 
ATOM     24  C   UNL     1      -5.947 -11.765  17.659  0.00  0.00    +0.074 A 
ATOM     26  C   UNL     1      -5.336 -11.110  18.657  0.00  0.00    +0.021 A 
ATOM     27  C   UNL     1      -6.020 -11.343  19.886  0.00  0.00    +0.008 A 
ATOM     28  C   UNL     1      -7.111 -12.169  19.722  0.00  0.00    +0.046 A 
ENDBRANCH  23  24
ENDBRANCH  19   8
BRANCH  18  21
ATOM     21  C   UNL     1      -4.864 -13.880  10.168  0.00  0.00    +0.124 C 
BRANCH  21  22
ATOM     22  C   UNL     1      -5.215 -14.310  11.576  0.00  0.00    +0.168 C 
BRANCH  22   4
ATOM      4  O   UNL     1      -4.257 -13.786  12.487  0.00  0.00    -0.382 OA
ATOM     25  C   UNL     1      -2.938 -14.188  12.142  0.00  0.00    +0.194 C 
ENDBRANCH  22   4
ENDBRANCH  21  22
ENDBRANCH  18  21
TORSDOF 5
ENDMDL
