MODEL 1
REMARK VINA RESULT:      -7.5      0.000      0.000
REMARK  Name = 45783785
REMARK  7 active torsions:
REMARK  status: ('A' for Active; 'I' for Inactive)
REMARK    1  A    between atoms: N_5  and  C_14
REMARK    2  A    between atoms: N_9  and  C_28
REMARK    3  A    between atoms: N_9  and  C_29
REMARK    4  A    between atoms: C_10  and  C_15
REMARK    5  A    between atoms: C_14  and  C_16
REMARK    6  A    between atoms: C_19  and  C_23
REMARK    7  A    between atoms: C_22  and  C_24
REMARK                            x       y       z     vdW  Elec       q    Type
REMARK                         _______ _______ _______ _____ _____    ______ ____
ROOT
ATOM      5  N   UNL     1      12.543   8.596  18.509  0.00  0.00    -0.287 NA
ATOM     10  C   UNL     1      13.416   7.467  18.135  0.00  0.00    +0.146 C 
ATOM     11  C   UNL     1      13.987   7.854  16.758  0.00  0.00    +0.030 C 
ATOM     12  C   UNL     1      13.332   9.185  16.415  0.00  0.00    +0.017 C 
ATOM     13  C   UNL     1      12.072   9.189  17.257  0.00  0.00    +0.085 C 
ENDROOT
BRANCH  10  15
ATOM      4  O   UNL     1      14.083   6.714  20.362  0.00  0.00    -0.336 OA
ATOM      6  N   UNL     1      15.790   7.372  19.069  0.00  0.00    -0.190 NA
ATOM      7  N   UNL     1      15.242   6.551  21.132  0.00  0.00    -0.056 NA
ATOM     15  C   UNL     1      14.496   7.200  19.161  0.00  0.00    +0.245 A 
ATOM     19  C   UNL     1      16.205   6.960  20.302  0.00  0.00    +0.204 A 
BRANCH  19  23
ATOM      8  N   UNL     1      19.389   7.993  21.921  0.00  0.00    -0.240 NA
ATOM     23  C   UNL     1      17.591   6.968  20.671  0.00  0.00    +0.041 A 
ATOM     25  C   UNL     1      18.472   6.013  20.174  0.00  0.00    +0.016 A 
ATOM     26  C   UNL     1      18.095   7.929  21.533  0.00  0.00    +0.124 A 
ATOM     27  C   UNL     1      19.810   6.047  20.550  0.00  0.00    +0.044 A 
ATOM     28  C   UNL     1      20.214   7.049  21.418  0.00  0.00    +0.118 A 
BRANCH  28   9
ATOM      9  N   UNL     1      21.580   7.069  21.793  0.00  0.00    -0.332 N 
ATOM     29  C   UNL     1      22.639   6.872  20.858  0.00  0.00    +0.127 C 
ATOM     30  H   UNL     1      21.789   7.000  22.783  0.00  0.00    +0.147 HD
ENDBRANCH  28   9
ENDBRANCH  19  23
ENDBRANCH  10  15
BRANCH   5  14
ATOM     14  C   UNL     1      11.441   8.207  19.379  0.00  0.00    +0.120 C 
BRANCH  14  16
ATOM     16  C   UNL     1      11.378   9.057  20.621  0.00  0.00    -0.033 A 
ATOM     17  C   UNL     1      10.666   8.613  21.734  0.00  0.00    +0.005 A 
ATOM     18  C   UNL     1      12.033  10.287  20.657  0.00  0.00    +0.005 A 
ATOM     20  C   UNL     1      10.609   9.399  22.885  0.00  0.00    +0.012 A 
ATOM     21  C   UNL     1      11.976  11.075  21.807  0.00  0.00    +0.012 A 
ATOM     22  C   UNL     1      11.264  10.630  22.921  0.00  0.00    +0.055 A 
BRANCH  22  24
ATOM      1  F   UNL     1      10.195  12.389  24.141  0.00  0.00    -0.166 F 
ATOM      2  F   UNL     1      12.350  12.187  24.354  0.00  0.00    -0.166 F 
ATOM      3  F   UNL     1      11.019  10.750  25.298  0.00  0.00    -0.166 F 
ATOM     24  C   UNL     1      11.205  11.469  24.152  0.00  0.00    +0.417 C 
ENDBRANCH  22  24
ENDBRANCH  14  16
ENDBRANCH   5  14
TORSDOF 6
ENDMDL
MODEL 2
REMARK VINA RESULT:      -7.3      4.736      8.369
REMARK  Name = 45783785
REMARK  7 active torsions:
REMARK  status: ('A' for Active; 'I' for Inactive)
REMARK    1  A    between atoms: N_5  and  C_14
REMARK    2  A    between atoms: N_9  and  C_28
REMARK    3  A    between atoms: N_9  and  C_29
REMARK    4  A    between atoms: C_10  and  C_15
REMARK    5  A    between atoms: C_14  and  C_16
REMARK    6  A    between atoms: C_19  and  C_23
REMARK    7  A    between atoms: C_22  and  C_24
REMARK                            x       y       z     vdW  Elec       q    Type
REMARK                         _______ _______ _______ _____ _____    ______ ____
ROOT
ATOM      5  N   UNL     1      12.851   7.811  20.645  0.00  0.00    -0.287 NA
ATOM     10  C   UNL     1      11.601   8.595  20.599  0.00  0.00    +0.146 C 
ATOM     11  C   UNL     1      10.546   7.687  21.257  0.00  0.00    +0.030 C 
ATOM     12  C   UNL     1      11.281   6.396  21.584  0.00  0.00    +0.017 C 
ATOM     13  C   UNL     1      12.457   6.402  20.629  0.00  0.00    +0.085 C 
ENDROOT
BRANCH  10  15
ATOM      4  O   UNL     1      12.044  10.996  20.496  0.00  0.00    -0.336 OA
ATOM      6  N   UNL     1      11.585  10.238  22.553  0.00  0.00    -0.190 NA
ATOM      7  N   UNL     1      12.107  12.109  21.345  0.00  0.00    -0.056 NA
ATOM     15  C   UNL     1      11.730   9.937  21.287  0.00  0.00    +0.245 A 
ATOM     19  C   UNL     1      11.825  11.581  22.540  0.00  0.00    +0.204 A 
BRANCH  19  23
ATOM      8  N   UNL     1      12.956  13.464  25.541  0.00  0.00    -0.240 NA
ATOM     23  C   UNL     1      11.774  12.367  23.739  0.00  0.00    +0.041 A 
ATOM     25  C   UNL     1      10.560  12.791  24.268  0.00  0.00    +0.016 A 
ATOM     26  C   UNL     1      12.934  12.726  24.407  0.00  0.00    +0.124 A 
ATOM     27  C   UNL     1      10.543  13.551  25.432  0.00  0.00    +0.044 A 
ATOM     28  C   UNL     1      11.757  13.858  26.024  0.00  0.00    +0.118 A 
BRANCH  28   9
ATOM      9  N   UNL     1      11.723  14.634  27.209  0.00  0.00    -0.332 N 
ATOM     29  C   UNL     1      12.904  15.094  27.863  0.00  0.00    +0.127 C 
ATOM     30  H   UNL     1      10.844  14.667  27.715  0.00  0.00    +0.147 HD
ENDBRANCH  28   9
ENDBRANCH  19  23
ENDBRANCH  10  15
BRANCH   5  14
ATOM     14  C   UNL     1      13.773   8.135  19.564  0.00  0.00    +0.120 C 
BRANCH  14  16
ATOM     16  C   UNL     1      15.160   7.617  19.835  0.00  0.00    -0.033 A 
ATOM     17  C   UNL     1      15.872   8.076  20.943  0.00  0.00    +0.005 A 
ATOM     18  C   UNL     1      15.734   6.678  18.978  0.00  0.00    +0.005 A 
ATOM     20  C   UNL     1      17.157   7.595  21.195  0.00  0.00    +0.012 A 
ATOM     21  C   UNL     1      17.019   6.197  19.229  0.00  0.00    +0.012 A 
ATOM     22  C   UNL     1      17.730   6.656  20.339  0.00  0.00    +0.055 A 
BRANCH  22  24
ATOM      1  F   UNL     1      19.394   6.029  21.939  0.00  0.00    -0.166 F 
ATOM      2  F   UNL     1      20.078   6.942  20.088  0.00  0.00    -0.166 F 
ATOM      3  F   UNL     1      19.334   4.898  20.090  0.00  0.00    -0.166 F 
ATOM     24  C   UNL     1      19.103   6.140  20.609  0.00  0.00    +0.417 C 
ENDBRANCH  22  24
ENDBRANCH  14  16
ENDBRANCH   5  14
TORSDOF 6
ENDMDL
MODEL 3
REMARK VINA RESULT:      -7.3      4.616      7.669
REMARK  Name = 45783785
REMARK  7 active torsions:
REMARK  status: ('A' for Active; 'I' for Inactive)
REMARK    1  A    between atoms: N_5  and  C_14
REMARK    2  A    between atoms: N_9  and  C_28
REMARK    3  A    between atoms: N_9  and  C_29
REMARK    4  A    between atoms: C_10  and  C_15
REMARK    5  A    between atoms: C_14  and  C_16
REMARK    6  A    between atoms: C_19  and  C_23
REMARK    7  A    between atoms: C_22  and  C_24
REMARK                            x       y       z     vdW  Elec       q    Type
REMARK                         _______ _______ _______ _____ _____    ______ ____
ROOT
ATOM      5  N   UNL     1      13.426   7.934  20.579  0.00  0.00    -0.287 NA
ATOM     10  C   UNL     1      12.486   8.743  19.778  0.00  0.00    +0.146 C 
ATOM     11  C   UNL     1      11.559   9.404  20.814  0.00  0.00    +0.030 C 
ATOM     12  C   UNL     1      12.014   8.861  22.160  0.00  0.00    +0.017 C 
ATOM     13  C   UNL     1      12.715   7.566  21.804  0.00  0.00    +0.085 C 
ENDROOT
BRANCH  10  15
ATOM      4  O   UNL     1      13.186  11.040  19.327  0.00  0.00    -0.336 OA
ATOM      6  N   UNL     1      13.813   9.569  17.759  0.00  0.00    -0.190 NA
ATOM      7  N   UNL     1      13.886  11.775  18.360  0.00  0.00    -0.056 NA
ATOM     15  C   UNL     1      13.191   9.751  18.896  0.00  0.00    +0.245 A 
ATOM     19  C   UNL     1      14.223  10.838  17.469  0.00  0.00    +0.204 A 
BRANCH  19  23
ATOM      8  N   UNL     1      15.429  10.653  13.956  0.00  0.00    -0.240 NA
ATOM     23  C   UNL     1      14.969  11.134  16.281  0.00  0.00    +0.041 A 
ATOM     25  C   UNL     1      15.927  12.143  16.268  0.00  0.00    +0.016 A 
ATOM     26  C   UNL     1      14.760  10.424  15.110  0.00  0.00    +0.124 A 
ATOM     27  C   UNL     1      16.635  12.407  15.101  0.00  0.00    +0.044 A 
ATOM     28  C   UNL     1      16.350  11.640  13.983  0.00  0.00    +0.118 A 
BRANCH  28   9
ATOM      9  N   UNL     1      17.079  11.922  12.801  0.00  0.00    -0.332 N 
ATOM     29  C   UNL     1      16.450  12.320  11.584  0.00  0.00    +0.127 C 
ATOM     30  H   UNL     1      18.046  11.615  12.769  0.00  0.00    +0.147 HD
ENDBRANCH  28   9
ENDBRANCH  19  23
ENDBRANCH  10  15
BRANCH   5  14
ATOM     14  C   UNL     1      13.931   6.767  19.867  0.00  0.00    +0.120 C 
BRANCH  14  16
ATOM     16  C   UNL     1      15.410   6.578  20.078  0.00  0.00    -0.033 A 
ATOM     17  C   UNL     1      16.217   6.160  19.021  0.00  0.00    +0.005 A 
ATOM     18  C   UNL     1      15.971   6.819  21.331  0.00  0.00    +0.005 A 
ATOM     20  C   UNL     1      17.588   5.986  19.216  0.00  0.00    +0.012 A 
ATOM     21  C   UNL     1      17.341   6.644  21.528  0.00  0.00    +0.012 A 
ATOM     22  C   UNL     1      18.149   6.228  20.469  0.00  0.00    +0.055 A 
BRANCH  22  24
ATOM      1  F   UNL     1      20.107   4.898  20.121  0.00  0.00    -0.166 F 
ATOM      2  F   UNL     1      19.953   5.983  21.999  0.00  0.00    -0.166 F 
ATOM      3  F   UNL     1      20.373   7.050  20.151  0.00  0.00    -0.166 F 
ATOM     24  C   UNL     1      19.614   6.044  20.678  0.00  0.00    +0.417 C 
ENDBRANCH  22  24
ENDBRANCH  14  16
ENDBRANCH   5  14
TORSDOF 6
ENDMDL
MODEL 4
REMARK VINA RESULT:      -7.2     26.659     30.354
REMARK  Name = 45783785
REMARK  7 active torsions:
REMARK  status: ('A' for Active; 'I' for Inactive)
REMARK    1  A    between atoms: N_5  and  C_14
REMARK    2  A    between atoms: N_9  and  C_28
REMARK    3  A    between atoms: N_9  and  C_29
REMARK    4  A    between atoms: C_10  and  C_15
REMARK    5  A    between atoms: C_14  and  C_16
REMARK    6  A    between atoms: C_19  and  C_23
REMARK    7  A    between atoms: C_22  and  C_24
REMARK                            x       y       z     vdW  Elec       q    Type
REMARK                         _______ _______ _______ _____ _____    ______ ____
ROOT
ATOM      5  N   UNL     1     -15.410   5.780  21.534  0.00  0.00    -0.287 NA
ATOM     10  C   UNL     1     -16.722   5.452  22.125  0.00  0.00    +0.146 C 
ATOM     11  C   UNL     1     -17.635   5.170  20.917  0.00  0.00    +0.030 C 
ATOM     12  C   UNL     1     -16.766   5.423  19.694  0.00  0.00    +0.017 C 
ATOM     13  C   UNL     1     -15.681   6.345  20.212  0.00  0.00    +0.085 C 
ENDROOT
BRANCH  10  15
ATOM      4  O   UNL     1     -16.726   3.044  22.544  0.00  0.00    -0.336 OA
ATOM      6  N   UNL     1     -16.533   4.294  24.392  0.00  0.00    -0.190 NA
ATOM      7  N   UNL     1     -16.642   2.145  23.615  0.00  0.00    -0.056 NA
ATOM     15  C   UNL     1     -16.652   4.287  23.089  0.00  0.00    +0.245 A 
ATOM     19  C   UNL     1     -16.530   2.958  24.670  0.00  0.00    +0.204 A 
BRANCH  19  23
ATOM      8  N   UNL     1     -16.639   0.631  27.569  0.00  0.00    -0.240 NA
ATOM     23  C   UNL     1     -16.413   2.469  26.013  0.00  0.00    +0.041 A 
ATOM     25  C   UNL     1     -15.983   3.297  27.044  0.00  0.00    +0.016 A 
ATOM     26  C   UNL     1     -16.727   1.155  26.324  0.00  0.00    +0.124 A 
ATOM     27  C   UNL     1     -15.880   2.794  28.336  0.00  0.00    +0.044 A 
ATOM     28  C   UNL     1     -16.217   1.466  28.543  0.00  0.00    +0.118 A 
BRANCH  28   9
ATOM      9  N   UNL     1     -16.105   0.967  29.865  0.00  0.00    -0.332 N 
ATOM     29  C   UNL     1     -14.849   0.740  30.500  0.00  0.00    +0.127 C 
ATOM     30  H   UNL     1     -16.937   0.556  30.276  0.00  0.00    +0.147 HD
ENDBRANCH  28   9
ENDBRANCH  19  23
ENDBRANCH  10  15
BRANCH   5  14
ATOM     14  C   UNL     1     -14.616   6.679  22.362  0.00  0.00    +0.120 C 
BRANCH  14  16
ATOM     16  C   UNL     1     -13.538   7.367  21.569  0.00  0.00    -0.033 A 
ATOM     17  C   UNL     1     -13.601   8.744  21.354  0.00  0.00    +0.005 A 
ATOM     18  C   UNL     1     -12.476   6.629  21.048  0.00  0.00    +0.005 A 
ATOM     20  C   UNL     1     -12.601   9.382  20.620  0.00  0.00    +0.012 A 
ATOM     21  C   UNL     1     -11.476   7.266  20.313  0.00  0.00    +0.012 A 
ATOM     22  C   UNL     1     -11.539   8.644  20.100  0.00  0.00    +0.055 A 
BRANCH  22  24
ATOM      1  F   UNL     1     -10.334   8.851  18.043  0.00  0.00    -0.166 F 
ATOM      2  F   UNL     1      -9.236   9.197  19.888  0.00  0.00    -0.166 F 
ATOM      3  F   UNL     1     -10.667  10.671  19.175  0.00  0.00    -0.166 F 
ATOM     24  C   UNL     1     -10.469   9.326  19.317  0.00  0.00    +0.417 C 
ENDBRANCH  22  24
ENDBRANCH  14  16
ENDBRANCH   5  14
TORSDOF 6
ENDMDL
MODEL 5
REMARK VINA RESULT:      -7.1     30.987     32.626
REMARK  Name = 45783785
REMARK  7 active torsions:
REMARK  status: ('A' for Active; 'I' for Inactive)
REMARK    1  A    between atoms: N_5  and  C_14
REMARK    2  A    between atoms: N_9  and  C_28
REMARK    3  A    between atoms: N_9  and  C_29
REMARK    4  A    between atoms: C_10  and  C_15
REMARK    5  A    between atoms: C_14  and  C_16
REMARK    6  A    between atoms: C_19  and  C_23
REMARK    7  A    between atoms: C_22  and  C_24
REMARK                            x       y       z     vdW  Elec       q    Type
REMARK                         _______ _______ _______ _____ _____    ______ ____
ROOT
ATOM      5  N   UNL     1     -14.408   5.702  33.116  0.00  0.00    -0.287 NA
ATOM     10  C   UNL     1     -15.864   5.850  32.924  0.00  0.00    +0.146 C 
ATOM     11  C   UNL     1     -16.105   7.371  32.929  0.00  0.00    +0.030 C 
ATOM     12  C   UNL     1     -14.740   7.990  33.189  0.00  0.00    +0.017 C 
ATOM     13  C   UNL     1     -13.967   6.877  33.867  0.00  0.00    +0.085 C 
ENDROOT
BRANCH  10  15
ATOM      4  O   UNL     1     -17.322   4.240  31.805  0.00  0.00    -0.336 OA
ATOM      6  N   UNL     1     -15.984   5.380  30.417  0.00  0.00    -0.190 NA
ATOM      7  N   UNL     1     -17.609   3.774  30.515  0.00  0.00    -0.056 NA
ATOM     15  C   UNL     1     -16.356   5.184  31.657  0.00  0.00    +0.245 A 
ATOM     19  C   UNL     1     -16.780   4.493  29.753  0.00  0.00    +0.204 A 
BRANCH  19  23
ATOM      8  N   UNL     1     -17.283   5.225  26.142  0.00  0.00    -0.240 NA
ATOM     23  C   UNL     1     -16.724   4.353  28.327  0.00  0.00    +0.041 A 
ATOM     25  C   UNL     1     -16.090   3.264  27.738  0.00  0.00    +0.016 A 
ATOM     26  C   UNL     1     -17.300   5.297  27.493  0.00  0.00    +0.124 A 
ATOM     27  C   UNL     1     -16.052   3.155  26.352  0.00  0.00    +0.044 A 
ATOM     28  C   UNL     1     -16.658   4.153  25.607  0.00  0.00    +0.118 A 
BRANCH  28   9
ATOM      9  N   UNL     1     -16.610   4.029  24.196  0.00  0.00    -0.332 N 
ATOM     29  C   UNL     1     -15.459   4.380  23.430  0.00  0.00    +0.127 C 
ATOM     30  H   UNL     1     -17.493   3.899  23.713  0.00  0.00    +0.147 HD
ENDBRANCH  28   9
ENDBRANCH  19  23
ENDBRANCH  10  15
BRANCH   5  14
ATOM     14  C   UNL     1     -14.039   4.457  33.778  0.00  0.00    +0.120 C 
BRANCH  14  16
ATOM     16  C   UNL     1     -14.110   3.280  32.842  0.00  0.00    -0.033 A 
ATOM     17  C   UNL     1     -14.816   2.136  33.212  0.00  0.00    +0.005 A 
ATOM     18  C   UNL     1     -13.469   3.335  31.605  0.00  0.00    +0.005 A 
ATOM     20  C   UNL     1     -14.882   1.046  32.344  0.00  0.00    +0.012 A 
ATOM     21  C   UNL     1     -13.534   2.244  30.736  0.00  0.00    +0.012 A 
ATOM     22  C   UNL     1     -14.242   1.100  31.107  0.00  0.00    +0.055 A 
BRANCH  22  24
ATOM      1  F   UNL     1     -13.099  -0.620  29.900  0.00  0.00    -0.166 F 
ATOM      2  F   UNL     1     -14.852   0.264  28.966  0.00  0.00    -0.166 F 
ATOM      3  F   UNL     1     -15.078  -1.094  30.649  0.00  0.00    -0.166 F 
ATOM     24  C   UNL     1     -14.315  -0.064  30.178  0.00  0.00    +0.417 C 
ENDBRANCH  22  24
ENDBRANCH  14  16
ENDBRANCH   5  14
TORSDOF 6
ENDMDL
MODEL 6
REMARK VINA RESULT:      -7.0     25.965     27.885
REMARK  Name = 45783785
REMARK  7 active torsions:
REMARK  status: ('A' for Active; 'I' for Inactive)
REMARK    1  A    between atoms: N_5  and  C_14
REMARK    2  A    between atoms: N_9  and  C_28
REMARK    3  A    between atoms: N_9  and  C_29
REMARK    4  A    between atoms: C_10  and  C_15
REMARK    5  A    between atoms: C_14  and  C_16
REMARK    6  A    between atoms: C_19  and  C_23
REMARK    7  A    between atoms: C_22  and  C_24
REMARK                            x       y       z     vdW  Elec       q    Type
REMARK                         _______ _______ _______ _____ _____    ______ ____
ROOT
ATOM      5  N   UNL     1     -11.005   9.461  17.422  0.00  0.00    -0.287 NA
ATOM     10  C   UNL     1     -10.333  10.404  18.337  0.00  0.00    +0.146 C 
ATOM     11  C   UNL     1      -9.952  11.604  17.451  0.00  0.00    +0.030 C 
ATOM     12  C   UNL     1     -10.396  11.220  16.047  0.00  0.00    +0.017 C 
ATOM     13  C   UNL     1     -10.447   9.706  16.091  0.00  0.00    +0.085 C 
ENDROOT
BRANCH  10  15
ATOM      4  O   UNL     1     -11.990  11.892  19.342  0.00  0.00    -0.336 OA
ATOM      6  N   UNL     1     -11.313  10.234  20.688  0.00  0.00    -0.190 NA
ATOM      7  N   UNL     1     -12.690  12.055  20.545  0.00  0.00    -0.056 NA
ATOM     15  C   UNL     1     -11.203  10.797  19.511  0.00  0.00    +0.245 A 
ATOM     19  C   UNL     1     -12.237  11.040  21.287  0.00  0.00    +0.204 A 
BRANCH  19  23
ATOM      8  N   UNL     1     -12.447  11.241  24.994  0.00  0.00    -0.240 NA
ATOM     23  C   UNL     1     -12.686  10.803  22.628  0.00  0.00    +0.041 A 
ATOM     25  C   UNL     1     -13.750   9.945  22.887  0.00  0.00    +0.016 A 
ATOM     26  C   UNL     1     -12.073  11.421  23.706  0.00  0.00    +0.124 A 
ATOM     27  C   UNL     1     -14.162   9.735  24.198  0.00  0.00    +0.044 A 
ATOM     28  C   UNL     1     -13.484  10.401  25.206  0.00  0.00    +0.118 A 
BRANCH  28   9
ATOM      9  N   UNL     1     -13.917  10.177  26.537  0.00  0.00    -0.332 N 
ATOM     29  C   UNL     1     -14.147  11.239  27.461  0.00  0.00    +0.127 C 
ATOM     30  H   UNL     1     -13.841   9.231  26.895  0.00  0.00    +0.147 HD
ENDBRANCH  28   9
ENDBRANCH  19  23
ENDBRANCH  10  15
BRANCH   5  14
ATOM     14  C   UNL     1     -10.865   8.068  17.827  0.00  0.00    +0.120 C 
BRANCH  14  16
ATOM     16  C   UNL     1     -11.895   7.676  18.853  0.00  0.00    -0.033 A 
ATOM     17  C   UNL     1     -11.498   7.060  20.039  0.00  0.00    +0.005 A 
ATOM     18  C   UNL     1     -13.245   7.930  18.617  0.00  0.00    +0.005 A 
ATOM     20  C   UNL     1     -12.452   6.698  20.991  0.00  0.00    +0.012 A 
ATOM     21  C   UNL     1     -14.200   7.567  19.567  0.00  0.00    +0.012 A 
ATOM     22  C   UNL     1     -13.802   6.951  20.755  0.00  0.00    +0.055 A 
BRANCH  22  24
ATOM      1  F   UNL     1     -15.784   7.515  21.971  0.00  0.00    -0.166 F 
ATOM      2  F   UNL     1     -14.276   6.337  23.003  0.00  0.00    -0.166 F 
ATOM      3  F   UNL     1     -15.507   5.427  21.458  0.00  0.00    -0.166 F 
ATOM     24  C   UNL     1     -14.822   6.566  21.772  0.00  0.00    +0.417 C 
ENDBRANCH  22  24
ENDBRANCH  14  16
ENDBRANCH   5  14
TORSDOF 6
ENDMDL
MODEL 7
REMARK VINA RESULT:      -7.0     14.482     17.132
REMARK  Name = 45783785
REMARK  7 active torsions:
REMARK  status: ('A' for Active; 'I' for Inactive)
REMARK    1  A    between atoms: N_5  and  C_14
REMARK    2  A    between atoms: N_9  and  C_28
REMARK    3  A    between atoms: N_9  and  C_29
REMARK    4  A    between atoms: C_10  and  C_15
REMARK    5  A    between atoms: C_14  and  C_16
REMARK    6  A    between atoms: C_19  and  C_23
REMARK    7  A    between atoms: C_22  and  C_24
REMARK                            x       y       z     vdW  Elec       q    Type
REMARK                         _______ _______ _______ _____ _____    ______ ____
ROOT
ATOM      5  N   UNL     1      10.136   8.793   4.643  0.00  0.00    -0.287 NA
ATOM     10  C   UNL     1       9.461   7.494   4.453  0.00  0.00    +0.146 C 
ATOM     11  C   UNL     1       8.220   7.819   3.602  0.00  0.00    +0.030 C 
ATOM     12  C   UNL     1       8.249   9.329   3.415  0.00  0.00    +0.017 C 
ATOM     13  C   UNL     1       9.091   9.816   4.577  0.00  0.00    +0.085 C 
ENDROOT
BRANCH  10  15
ATOM      4  O   UNL     1       9.949   5.167   3.890  0.00  0.00    -0.336 OA
ATOM      6  N   UNL     1      11.491   6.624   3.173  0.00  0.00    -0.190 NA
ATOM      7  N   UNL     1      10.926   4.408   3.232  0.00  0.00    -0.056 NA
ATOM     15  C   UNL     1      10.358   6.460   3.807  0.00  0.00    +0.245 A 
ATOM     19  C   UNL     1      11.801   5.338   2.838  0.00  0.00    +0.204 A 
BRANCH  19  23
ATOM      8  N   UNL     1      15.076   5.755   1.127  0.00  0.00    -0.240 NA
ATOM     23  C   UNL     1      12.993   5.017   2.107  0.00  0.00    +0.041 A 
ATOM     25  C   UNL     1      13.240   3.719   1.673  0.00  0.00    +0.016 A 
ATOM     26  C   UNL     1      13.933   5.991   1.811  0.00  0.00    +0.124 A 
ATOM     27  C   UNL     1      14.405   3.439   0.966  0.00  0.00    +0.044 A 
ATOM     28  C   UNL     1      15.282   4.483   0.722  0.00  0.00    +0.118 A 
BRANCH  28   9
ATOM      9  N   UNL     1      16.465   4.181   0.002  0.00  0.00    -0.332 N 
ATOM     29  C   UNL     1      16.778   4.783  -1.253  0.00  0.00    +0.127 C 
ATOM     30  H   UNL     1      16.980   3.354   0.285  0.00  0.00    +0.147 HD
ENDBRANCH  28   9
ENDBRANCH  19  23
ENDBRANCH  10  15
BRANCH   5  14
ATOM     14  C   UNL     1      10.900   8.869   5.881  0.00  0.00    +0.120 C 
BRANCH  14  16
ATOM     16  C   UNL     1      10.482   7.808   6.864  0.00  0.00    -0.033 A 
ATOM     17  C   UNL     1       9.243   7.895   7.499  0.00  0.00    +0.005 A 
ATOM     18  C   UNL     1      11.333   6.739   7.140  0.00  0.00    +0.005 A 
ATOM     20  C   UNL     1       8.855   6.911   8.409  0.00  0.00    +0.012 A 
ATOM     21  C   UNL     1      10.946   5.755   8.051  0.00  0.00    +0.012 A 
ATOM     22  C   UNL     1       9.706   5.841   8.684  0.00  0.00    +0.055 A 
BRANCH  22  24
ATOM      1  F   UNL     1      10.199   4.573  10.652  0.00  0.00    -0.166 F 
ATOM      2  F   UNL     1       9.103   3.573   9.063  0.00  0.00    -0.166 F 
ATOM      3  F   UNL     1       8.118   5.068  10.297  0.00  0.00    -0.166 F 
ATOM     24  C   UNL     1       9.290   4.789   9.655  0.00  0.00    +0.417 C 
ENDBRANCH  22  24
ENDBRANCH  14  16
ENDBRANCH   5  14
TORSDOF 6
ENDMDL
MODEL 8
REMARK VINA RESULT:      -6.8     27.660     30.962
REMARK  Name = 45783785
REMARK  7 active torsions:
REMARK  status: ('A' for Active; 'I' for Inactive)
REMARK    1  A    between atoms: N_5  and  C_14
REMARK    2  A    between atoms: N_9  and  C_28
REMARK    3  A    between atoms: N_9  and  C_29
REMARK    4  A    between atoms: C_10  and  C_15
REMARK    5  A    between atoms: C_14  and  C_16
REMARK    6  A    between atoms: C_19  and  C_23
REMARK    7  A    between atoms: C_22  and  C_24
REMARK                            x       y       z     vdW  Elec       q    Type
REMARK                         _______ _______ _______ _____ _____    ______ ____
ROOT
ATOM      5  N   UNL     1     -16.602   4.694  22.664  0.00  0.00    -0.287 NA
ATOM     10  C   UNL     1     -17.673   4.197  23.549  0.00  0.00    +0.146 C 
ATOM     11  C   UNL     1     -18.656   3.478  22.607  0.00  0.00    +0.030 C 
ATOM     12  C   UNL     1     -18.086   3.675  21.210  0.00  0.00    +0.017 C 
ATOM     13  C   UNL     1     -17.214   4.906  21.352  0.00  0.00    +0.085 C 
ENDROOT
BRANCH  10  15
ATOM      4  O   UNL     1     -16.838   2.023  24.289  0.00  0.00    -0.336 OA
ATOM      6  N   UNL     1     -16.954   3.559  25.915  0.00  0.00    -0.190 NA
ATOM      7  N   UNL     1     -16.385   1.392  25.455  0.00  0.00    -0.056 NA
ATOM     15  C   UNL     1     -17.151   3.296  24.648  0.00  0.00    +0.245 A 
ATOM     19  C   UNL     1     -16.483   2.361  26.369  0.00  0.00    +0.204 A 
BRANCH  19  23
ATOM      8  N   UNL     1     -15.181   3.077  29.778  0.00  0.00    -0.240 NA
ATOM     23  C   UNL     1     -16.119   2.168  27.742  0.00  0.00    +0.041 A 
ATOM     25  C   UNL     1     -16.326   0.947  28.375  0.00  0.00    +0.016 A 
ATOM     26  C   UNL     1     -15.548   3.193  28.480  0.00  0.00    +0.124 A 
ATOM     27  C   UNL     1     -15.962   0.790  29.708  0.00  0.00    +0.044 A 
ATOM     28  C   UNL     1     -15.398   1.876  30.358  0.00  0.00    +0.118 A 
BRANCH  28   9
ATOM      9  N   UNL     1     -15.033   1.701  31.716  0.00  0.00    -0.332 N 
ATOM     29  C   UNL     1     -13.793   2.164  32.246  0.00  0.00    +0.127 C 
ATOM     30  H   UNL     1     -15.574   1.035  32.258  0.00  0.00    +0.147 HD
ENDBRANCH  28   9
ENDBRANCH  19  23
ENDBRANCH  10  15
BRANCH   5  14
ATOM     14  C   UNL     1     -15.953   5.897  23.168  0.00  0.00    +0.120 C 
BRANCH  14  16
ATOM     16  C   UNL     1     -14.803   6.322  22.293  0.00  0.00    -0.033 A 
ATOM     17  C   UNL     1     -13.680   5.504  22.170  0.00  0.00    +0.005 A 
ATOM     18  C   UNL     1     -14.861   7.534  21.606  0.00  0.00    +0.005 A 
ATOM     20  C   UNL     1     -12.616   5.897  21.359  0.00  0.00    +0.012 A 
ATOM     21  C   UNL     1     -13.796   7.929  20.795  0.00  0.00    +0.012 A 
ATOM     22  C   UNL     1     -12.674   7.109  20.672  0.00  0.00    +0.055 A 
BRANCH  22  24
ATOM      1  F   UNL     1     -11.138   6.566  18.920  0.00  0.00    -0.166 F 
ATOM      2  F   UNL     1     -10.421   7.853  20.518  0.00  0.00    -0.166 F 
ATOM      3  F   UNL     1     -11.810   8.624  19.034  0.00  0.00    -0.166 F 
ATOM     24  C   UNL     1     -11.537   7.528  19.803  0.00  0.00    +0.417 C 
ENDBRANCH  22  24
ENDBRANCH  14  16
ENDBRANCH   5  14
TORSDOF 6
ENDMDL
MODEL 9
REMARK VINA RESULT:      -6.8     27.740     30.003
REMARK  Name = 45783785
REMARK  7 active torsions:
REMARK  status: ('A' for Active; 'I' for Inactive)
REMARK    1  A    between atoms: N_5  and  C_14
REMARK    2  A    between atoms: N_9  and  C_28
REMARK    3  A    between atoms: N_9  and  C_29
REMARK    4  A    between atoms: C_10  and  C_15
REMARK    5  A    between atoms: C_14  and  C_16
REMARK    6  A    between atoms: C_19  and  C_23
REMARK    7  A    between atoms: C_22  and  C_24
REMARK                            x       y       z     vdW  Elec       q    Type
REMARK                         _______ _______ _______ _____ _____    ______ ____
ROOT
ATOM      5  N   UNL     1     -10.316 -11.989  19.057  0.00  0.00    -0.287 NA
ATOM     10  C   UNL     1      -9.118 -12.436  19.794  0.00  0.00    +0.146 C 
ATOM     11  C   UNL     1      -9.112 -13.968  19.638  0.00  0.00    +0.030 C 
ATOM     12  C   UNL     1     -10.374 -14.293  18.852  0.00  0.00    +0.017 C 
ATOM     13  C   UNL     1     -11.270 -13.098  19.106  0.00  0.00    +0.085 C 
ENDROOT
BRANCH  10  15
ATOM      4  O   UNL     1      -7.201 -10.962  20.148  0.00  0.00    -0.336 OA
ATOM      6  N   UNL     1      -7.265 -11.910  18.119  0.00  0.00    -0.190 NA
ATOM      7  N   UNL     1      -6.072 -10.493  19.463  0.00  0.00    -0.056 NA
ATOM     15  C   UNL     1      -7.847 -11.791  19.286  0.00  0.00    +0.245 A 
ATOM     19  C   UNL     1      -6.180 -11.096  18.275  0.00  0.00    +0.204 A 
BRANCH  19  23
ATOM      8  N   UNL     1      -4.776 -10.375  14.908  0.00  0.00    -0.240 NA
ATOM     23  C   UNL     1      -5.223 -10.909  17.224  0.00  0.00    +0.041 A 
ATOM     25  C   UNL     1      -3.861 -11.067  17.457  0.00  0.00    +0.016 A 
ATOM     26  C   UNL     1      -5.626 -10.566  15.944  0.00  0.00    +0.124 A 
ATOM     27  C   UNL     1      -2.957 -10.879  16.418  0.00  0.00    +0.044 A 
ATOM     28  C   UNL     1      -3.461 -10.537  15.174  0.00  0.00    +0.118 A 
BRANCH  28   9
ATOM      9  N   UNL     1      -2.527 -10.347  14.125  0.00  0.00    -0.332 N 
ATOM     29  C   UNL     1      -2.843 -10.598  12.757  0.00  0.00    +0.127 C 
ATOM     30  H   UNL     1      -1.552 -10.247  14.387  0.00  0.00    +0.147 HD
ENDBRANCH  28   9
ENDBRANCH  19  23
ENDBRANCH  10  15
BRANCH   5  14
ATOM     14  C   UNL     1     -10.885 -10.753  19.580  0.00  0.00    +0.120 C 
BRANCH  14  16
ATOM     16  C   UNL     1     -10.961  -9.681  18.526  0.00  0.00    -0.033 A 
ATOM     17  C   UNL     1      -9.797  -9.044  18.094  0.00  0.00    +0.005 A 
ATOM     18  C   UNL     1     -12.194  -9.324  17.982  0.00  0.00    +0.005 A 
ATOM     20  C   UNL     1      -9.867  -8.051  17.117  0.00  0.00    +0.012 A 
ATOM     21  C   UNL     1     -12.265  -8.330  17.006  0.00  0.00    +0.012 A 
ATOM     22  C   UNL     1     -11.101  -7.694  16.573  0.00  0.00    +0.055 A 
BRANCH  22  24
ATOM      1  F   UNL     1     -11.439  -7.116  14.276  0.00  0.00    -0.166 F 
ATOM      2  F   UNL     1     -10.011  -5.930  15.408  0.00  0.00    -0.166 F 
ATOM      3  F   UNL     1     -12.145  -5.701  15.760  0.00  0.00    -0.166 F 
ATOM     24  C   UNL     1     -11.175  -6.634  15.527  0.00  0.00    +0.417 C 
ENDBRANCH  22  24
ENDBRANCH  14  16
ENDBRANCH   5  14
TORSDOF 6
ENDMDL
MODEL 10
REMARK VINA RESULT:      -6.7     26.561     29.311
REMARK  Name = 45783785
REMARK  7 active torsions:
REMARK  status: ('A' for Active; 'I' for Inactive)
REMARK    1  A    between atoms: N_5  and  C_14
REMARK    2  A    between atoms: N_9  and  C_28
REMARK    3  A    between atoms: N_9  and  C_29
REMARK    4  A    between atoms: C_10  and  C_15
REMARK    5  A    between atoms: C_14  and  C_16
REMARK    6  A    between atoms: C_19  and  C_23
REMARK    7  A    between atoms: C_22  and  C_24
REMARK                            x       y       z     vdW  Elec       q    Type
REMARK                         _______ _______ _______ _____ _____    ______ ____
ROOT
ATOM      5  N   UNL     1      -3.072 -10.645  14.417  0.00  0.00    -0.287 NA
ATOM     10  C   UNL     1      -2.932 -11.272  15.746  0.00  0.00    +0.146 C 
ATOM     11  C   UNL     1      -1.637 -10.674  16.326  0.00  0.00    +0.030 C 
ATOM     12  C   UNL     1      -1.090  -9.772  15.229  0.00  0.00    +0.017 C 
ATOM     13  C   UNL     1      -1.717 -10.324  13.966  0.00  0.00    +0.085 C 
ENDROOT
BRANCH  10  15
ATOM      4  O   UNL     1      -3.968 -11.277  17.959  0.00  0.00    -0.336 OA
ATOM      6  N   UNL     1      -5.335 -10.619  16.311  0.00  0.00    -0.190 NA
ATOM      7  N   UNL     1      -5.198 -10.988  18.565  0.00  0.00    -0.056 NA
ATOM     15  C   UNL     1      -4.135 -11.032  16.633  0.00  0.00    +0.245 A 
ATOM     19  C   UNL     1      -5.951 -10.607  17.529  0.00  0.00    +0.204 A 
BRANCH  19  23
ATOM      8  N   UNL     1      -9.474 -10.557  18.720  0.00  0.00    -0.240 NA
ATOM     23  C   UNL     1      -7.321 -10.208  17.675  0.00  0.00    +0.041 A 
ATOM     25  C   UNL     1      -7.836  -9.134  16.957  0.00  0.00    +0.016 A 
ATOM     26  C   UNL     1      -8.173 -10.881  18.536  0.00  0.00    +0.124 A 
ATOM     27  C   UNL     1      -9.168  -8.771  17.120  0.00  0.00    +0.044 A 
ATOM     28  C   UNL     1      -9.938  -9.508  18.006  0.00  0.00    +0.118 A 
BRANCH  28   9
ATOM      9  N   UNL     1     -11.293  -9.125  18.162  0.00  0.00    -0.332 N 
ATOM     29  C   UNL     1     -12.117  -8.743  17.062  0.00  0.00    +0.127 C 
ATOM     30  H   UNL     1     -11.606  -8.907  19.102  0.00  0.00    +0.147 HD
ENDBRANCH  28   9
ENDBRANCH  19  23
ENDBRANCH  10  15
BRANCH   5  14
ATOM     14  C   UNL     1      -3.785 -11.481  13.459  0.00  0.00    +0.120 C 
BRANCH  14  16
ATOM     16  C   UNL     1      -4.470 -10.661  12.399  0.00  0.00    -0.033 A 
ATOM     17  C   UNL     1      -3.933 -10.594  11.114  0.00  0.00    +0.005 A 
ATOM     18  C   UNL     1      -5.642  -9.968  12.703  0.00  0.00    +0.005 A 
ATOM     20  C   UNL     1      -4.569  -9.835  10.131  0.00  0.00    +0.012 A 
ATOM     21  C   UNL     1      -6.278  -9.208  11.721  0.00  0.00    +0.012 A 
ATOM     22  C   UNL     1      -5.741  -9.142  10.434  0.00  0.00    +0.055 A 
BRANCH  22  24
ATOM      1  F   UNL     1      -6.418  -8.921   8.151  0.00  0.00    -0.166 F 
ATOM      2  F   UNL     1      -5.843  -7.109   9.206  0.00  0.00    -0.166 F 
ATOM      3  F   UNL     1      -7.737  -8.079   9.653  0.00  0.00    -0.166 F 
ATOM     24  C   UNL     1      -6.422  -8.332   9.383  0.00  0.00    +0.417 C 
ENDBRANCH  22  24
ENDBRANCH  14  16
ENDBRANCH   5  14
TORSDOF 6
ENDMDL
