MODEL 1
REMARK VINA RESULT:      -7.6      0.000      0.000
REMARK  Name = 45784268
REMARK  4 active torsions:
REMARK  status: ('A' for Active; 'I' for Inactive)
REMARK    1  A    between atoms: N_4  and  C_13
REMARK    2  A    between atoms: C_8  and  C_12
REMARK    3  A    between atoms: C_13  and  C_16
REMARK    4  A    between atoms: C_19  and  C_22
REMARK                            x       y       z     vdW  Elec       q    Type
REMARK                         _______ _______ _______ _____ _____    ______ ____
ROOT
ATOM      5  N   UNL     1      15.542   8.483  20.748  0.00  0.00    -0.342 N 
ATOM      6  N   UNL     1      14.656   7.388  19.029  0.00  0.00    -0.232 NA
ATOM     12  C   UNL     1      14.466   8.336  19.919  0.00  0.00    +0.113 A 
ATOM     14  C   UNL     1      16.492   7.570  20.368  0.00  0.00    +0.067 A 
ATOM     15  C   UNL     1      15.915   6.898  19.293  0.00  0.00    +0.089 A 
ATOM     17  C   UNL     1      17.766   7.282  20.858  0.00  0.00    +0.040 A 
ATOM     18  C   UNL     1      16.640   5.876  18.657  0.00  0.00    +0.030 A 
ATOM     19  C   UNL     1      18.472   6.261  20.212  0.00  0.00    +0.057 A 
ATOM     21  C   UNL     1      17.921   5.570  19.131  0.00  0.00    +0.014 A 
ATOM     26  H   UNL     1      15.627   9.146  21.507  0.00  0.00    +0.167 HD
ENDROOT
BRANCH  12   8
ATOM      4  N   UNL     1      11.486   9.715  21.545  0.00  0.00    -0.296 NA
ATOM      8  C   UNL     1      13.234   9.199  20.070  0.00  0.00    +0.070 C 
ATOM      9  C   UNL     1      11.930   8.556  19.567  0.00  0.00    +0.028 C 
ATOM     10  C   UNL     1      12.943   9.577  21.528  0.00  0.00    +0.096 C 
ATOM     11  C   UNL     1      10.990   8.580  20.765  0.00  0.00    +0.085 C 
BRANCH   4  13
ATOM     13  C   UNL     1      10.945   9.737  22.896  0.00  0.00    +0.139 C 
BRANCH  13  16
ATOM      7  N   UNL     1      10.856  11.245  24.804  0.00  0.00    -0.259 NA
ATOM     16  C   UNL     1      10.894  11.133  23.456  0.00  0.00    +0.055 A 
ATOM     20  C   UNL     1      10.889  12.213  22.589  0.00  0.00    +0.024 A 
ATOM     23  C   UNL     1      10.843  13.490  23.139  0.00  0.00    +0.003 A 
ATOM     24  C   UNL     1      10.812  12.501  25.302  0.00  0.00    +0.111 A 
ATOM     25  C   UNL     1      10.804  13.645  24.520  0.00  0.00    +0.020 A 
ENDBRANCH  13  16
ENDBRANCH   4  13
ENDBRANCH  12   8
BRANCH  19  22
ATOM      1  F   UNL     1      19.956   5.969  22.047  0.00  0.00    -0.166 F 
ATOM      2  F   UNL     1      20.228   4.641  20.346  0.00  0.00    -0.166 F 
ATOM      3  F   UNL     1      20.819   6.723  20.198  0.00  0.00    -0.166 F 
ATOM     22  C   UNL     1      19.842   5.905  20.689  0.00  0.00    +0.417 C 
ENDBRANCH  19  22
TORSDOF 4
ENDMDL
MODEL 2
REMARK VINA RESULT:      -7.2     16.328     19.677
REMARK  Name = 45784268
REMARK  4 active torsions:
REMARK  status: ('A' for Active; 'I' for Inactive)
REMARK    1  A    between atoms: N_4  and  C_13
REMARK    2  A    between atoms: C_8  and  C_12
REMARK    3  A    between atoms: C_13  and  C_16
REMARK    4  A    between atoms: C_19  and  C_22
REMARK                            x       y       z     vdW  Elec       q    Type
REMARK                         _______ _______ _______ _____ _____    ______ ____
ROOT
ATOM      5  N   UNL     1      10.472   4.754   5.058  0.00  0.00    -0.342 N 
ATOM      6  N   UNL     1       9.871   6.863   4.699  0.00  0.00    -0.232 NA
ATOM     12  C   UNL     1      10.371   5.776   4.156  0.00  0.00    +0.113 A 
ATOM     14  C   UNL     1      10.007   5.211   6.264  0.00  0.00    +0.067 A 
ATOM     15  C   UNL     1       9.638   6.530   6.013  0.00  0.00    +0.089 A 
ATOM     17  C   UNL     1       9.881   4.604   7.513  0.00  0.00    +0.040 A 
ATOM     18  C   UNL     1       9.110   7.303   7.061  0.00  0.00    +0.030 A 
ATOM     19  C   UNL     1       9.355   5.389   8.544  0.00  0.00    +0.057 A 
ATOM     21  C   UNL     1       8.975   6.715   8.324  0.00  0.00    +0.014 A 
ATOM     26  H   UNL     1      10.827   3.825   4.873  0.00  0.00    +0.167 HD
ENDROOT
BRANCH  12   8
ATOM      4  N   UNL     1      12.441   4.600   1.370  0.00  0.00    -0.296 NA
ATOM      8  C   UNL     1      10.804   5.601   2.718  0.00  0.00    +0.070 C 
ATOM      9  C   UNL     1      11.773   6.678   2.200  0.00  0.00    +0.028 C 
ATOM     10  C   UNL     1      11.530   4.272   2.469  0.00  0.00    +0.096 C 
ATOM     11  C   UNL     1      12.996   5.909   1.717  0.00  0.00    +0.085 C 
BRANCH   4  13
ATOM     13  C   UNL     1      13.475   3.591   1.186  0.00  0.00    +0.139 C 
BRANCH  13  16
ATOM      7  N   UNL     1      13.805   4.114  -1.167  0.00  0.00    -0.259 NA
ATOM     16  C   UNL     1      14.388   3.930   0.039  0.00  0.00    +0.055 A 
ATOM     20  C   UNL     1      15.751   4.035   0.264  0.00  0.00    +0.024 A 
ATOM     23  C   UNL     1      16.568   4.350  -0.817  0.00  0.00    +0.003 A 
ATOM     24  C   UNL     1      14.630   4.419  -2.194  0.00  0.00    +0.111 A 
ATOM     25  C   UNL     1      16.004   4.548  -2.072  0.00  0.00    +0.020 A 
ENDBRANCH  13  16
ENDBRANCH   4  13
ENDBRANCH  12   8
BRANCH  19  22
ATOM      1  F   UNL     1      10.265   5.048  10.715  0.00  0.00    -0.166 F 
ATOM      2  F   UNL     1       8.105   5.264  10.581  0.00  0.00    -0.166 F 
ATOM      3  F   UNL     1       9.054   3.438   9.895  0.00  0.00    -0.166 F 
ATOM     22  C   UNL     1       9.195   4.796   9.906  0.00  0.00    +0.417 C 
ENDBRANCH  19  22
TORSDOF 4
ENDMDL
MODEL 3
REMARK VINA RESULT:      -7.1     14.212     16.755
REMARK  Name = 45784268
REMARK  4 active torsions:
REMARK  status: ('A' for Active; 'I' for Inactive)
REMARK    1  A    between atoms: N_4  and  C_13
REMARK    2  A    between atoms: C_8  and  C_12
REMARK    3  A    between atoms: C_13  and  C_16
REMARK    4  A    between atoms: C_19  and  C_22
REMARK                            x       y       z     vdW  Elec       q    Type
REMARK                         _______ _______ _______ _____ _____    ______ ____
ROOT
ATOM      5  N   UNL     1      13.045   6.471   6.707  0.00  0.00    -0.342 N 
ATOM      6  N   UNL     1      11.893   8.193   5.902  0.00  0.00    -0.232 NA
ATOM     12  C   UNL     1      13.043   7.558   5.879  0.00  0.00    +0.113 A 
ATOM     14  C   UNL     1      11.813   6.398   7.305  0.00  0.00    +0.067 A 
ATOM     15  C   UNL     1      11.112   7.484   6.786  0.00  0.00    +0.089 A 
ATOM     17  C   UNL     1      11.268   5.504   8.228  0.00  0.00    +0.040 A 
ATOM     18  C   UNL     1       9.788   7.705   7.202  0.00  0.00    +0.030 A 
ATOM     19  C   UNL     1       9.950   5.740   8.629  0.00  0.00    +0.057 A 
ATOM     21  C   UNL     1       9.221   6.821   8.126  0.00  0.00    +0.014 A 
ATOM     26  H   UNL     1      13.814   5.832   6.855  0.00  0.00    +0.167 HD
ENDROOT
BRANCH  12   8
ATOM      4  N   UNL     1      16.328   9.026   5.185  0.00  0.00    -0.296 NA
ATOM      8  C   UNL     1      14.261   7.926   5.063  0.00  0.00    +0.070 C 
ATOM      9  C   UNL     1      14.168   9.279   4.337  0.00  0.00    +0.028 C 
ATOM     10  C   UNL     1      15.539   8.025   5.906  0.00  0.00    +0.096 C 
ATOM     11  C   UNL     1      15.372  10.074   4.826  0.00  0.00    +0.085 C 
BRANCH   4  13
ATOM     13  C   UNL     1      17.437   9.536   5.980  0.00  0.00    +0.139 C 
BRANCH  13  16
ATOM      7  N   UNL     1      18.866   8.190   4.544  0.00  0.00    -0.259 NA
ATOM     16  C   UNL     1      18.692   8.733   5.770  0.00  0.00    +0.055 A 
ATOM     20  C   UNL     1      19.590   8.591   6.815  0.00  0.00    +0.024 A 
ATOM     23  C   UNL     1      20.741   7.844   6.587  0.00  0.00    +0.003 A 
ATOM     24  C   UNL     1      19.996   7.471   4.360  0.00  0.00    +0.111 A 
ATOM     25  C   UNL     1      20.956   7.270   5.339  0.00  0.00    +0.020 A 
ENDBRANCH  13  16
ENDBRANCH   4  13
ENDBRANCH  12   8
BRANCH  19  22
ATOM      1  F   UNL     1      10.121   4.544  10.677  0.00  0.00    -0.166 F 
ATOM      2  F   UNL     1       8.154   5.309  10.151  0.00  0.00    -0.166 F 
ATOM      3  F   UNL     1       8.972   3.606   9.087  0.00  0.00    -0.166 F 
ATOM     22  C   UNL     1       9.310   4.818   9.615  0.00  0.00    +0.417 C 
ENDBRANCH  19  22
TORSDOF 4
ENDMDL
MODEL 4
REMARK VINA RESULT:      -7.1      3.484      5.529
REMARK  Name = 45784268
REMARK  4 active torsions:
REMARK  status: ('A' for Active; 'I' for Inactive)
REMARK    1  A    between atoms: N_4  and  C_13
REMARK    2  A    between atoms: C_8  and  C_12
REMARK    3  A    between atoms: C_13  and  C_16
REMARK    4  A    between atoms: C_19  and  C_22
REMARK                            x       y       z     vdW  Elec       q    Type
REMARK                         _______ _______ _______ _____ _____    ______ ____
ROOT
ATOM      5  N   UNL     1      19.745   5.152  20.203  0.00  0.00    -0.342 N 
ATOM      6  N   UNL     1      19.932   6.573  21.901  0.00  0.00    -0.232 NA
ATOM     12  C   UNL     1      19.253   6.269  20.818  0.00  0.00    +0.113 A 
ATOM     14  C   UNL     1      20.812   4.704  20.938  0.00  0.00    +0.067 A 
ATOM     15  C   UNL     1      20.909   5.608  21.993  0.00  0.00    +0.089 A 
ATOM     17  C   UNL     1      21.675   3.620  20.776  0.00  0.00    +0.040 A 
ATOM     18  C   UNL     1      21.921   5.434  22.952  0.00  0.00    +0.030 A 
ATOM     19  C   UNL     1      22.677   3.464  21.740  0.00  0.00    +0.057 A 
ATOM     21  C   UNL     1      22.799   4.353  22.810  0.00  0.00    +0.014 A 
ATOM     26  H   UNL     1      19.388   4.728  19.357  0.00  0.00    +0.167 HD
ENDROOT
BRANCH  12   8
ATOM      4  N   UNL     1      15.895   7.736  20.783  0.00  0.00    -0.296 NA
ATOM      8  C   UNL     1      18.064   7.016  20.258  0.00  0.00    +0.070 C 
ATOM      9  C   UNL     1      17.038   6.137  19.522  0.00  0.00    +0.028 C 
ATOM     10  C   UNL     1      17.250   7.742  21.337  0.00  0.00    +0.096 C 
ATOM     11  C   UNL     1      15.717   6.390  20.236  0.00  0.00    +0.085 C 
BRANCH   4  13
ATOM     13  C   UNL     1      14.886   8.067  21.779  0.00  0.00    +0.139 C 
BRANCH  13  16
ATOM      7  N   UNL     1      12.537   7.441  21.682  0.00  0.00    -0.259 NA
ATOM     16  C   UNL     1      13.520   8.213  21.164  0.00  0.00    +0.055 A 
ATOM     20  C   UNL     1      13.335   9.108  20.123  0.00  0.00    +0.024 A 
ATOM     23  C   UNL     1      12.060   9.220  19.579  0.00  0.00    +0.003 A 
ATOM     24  C   UNL     1      11.312   7.576  21.127  0.00  0.00    +0.111 A 
ATOM     25  C   UNL     1      11.023   8.443  20.085  0.00  0.00    +0.020 A 
ENDBRANCH  13  16
ENDBRANCH   4  13
ENDBRANCH  12   8
BRANCH  19  22
ATOM      1  F   UNL     1      24.930   2.734  21.530  0.00  0.00    -0.166 F 
ATOM      2  F   UNL     1      23.592   1.465  22.683  0.00  0.00    -0.166 F 
ATOM      3  F   UNL     1      23.415   1.542  20.523  0.00  0.00    -0.166 F 
ATOM     22  C   UNL     1      23.632   2.322  21.621  0.00  0.00    +0.417 C 
ENDBRANCH  19  22
TORSDOF 4
ENDMDL
MODEL 5
REMARK VINA RESULT:      -7.0      3.859      5.369
REMARK  Name = 45784268
REMARK  4 active torsions:
REMARK  status: ('A' for Active; 'I' for Inactive)
REMARK    1  A    between atoms: N_4  and  C_13
REMARK    2  A    between atoms: C_8  and  C_12
REMARK    3  A    between atoms: C_13  and  C_16
REMARK    4  A    between atoms: C_19  and  C_22
REMARK                            x       y       z     vdW  Elec       q    Type
REMARK                         _______ _______ _______ _____ _____    ______ ____
ROOT
ATOM      5  N   UNL     1      16.182   6.040  18.873  0.00  0.00    -0.342 N 
ATOM      6  N   UNL     1      15.762   7.927  19.969  0.00  0.00    -0.232 NA
ATOM     12  C   UNL     1      15.290   7.048  19.114  0.00  0.00    +0.113 A 
ATOM     14  C   UNL     1      17.303   6.283  19.623  0.00  0.00    +0.067 A 
ATOM     15  C   UNL     1      17.016   7.467  20.298  0.00  0.00    +0.089 A 
ATOM     17  C   UNL     1      18.507   5.592  19.764  0.00  0.00    +0.040 A 
ATOM     18  C   UNL     1      17.977   8.007  21.171  0.00  0.00    +0.030 A 
ATOM     19  C   UNL     1      19.451   6.145  20.636  0.00  0.00    +0.057 A 
ATOM     21  C   UNL     1      19.192   7.330  21.329  0.00  0.00    +0.014 A 
ATOM     26  H   UNL     1      16.042   5.253  18.253  0.00  0.00    +0.167 HD
ENDROOT
BRANCH  12   8
ATOM      4  N   UNL     1      12.586   8.384  17.034  0.00  0.00    -0.296 NA
ATOM      8  C   UNL     1      13.939   7.081  18.437  0.00  0.00    +0.070 C 
ATOM      9  C   UNL     1      12.818   7.733  19.265  0.00  0.00    +0.028 C 
ATOM     10  C   UNL     1      13.951   7.861  17.115  0.00  0.00    +0.096 C 
ATOM     11  C   UNL     1      12.280   8.855  18.386  0.00  0.00    +0.085 C 
BRANCH   4  13
ATOM     13  C   UNL     1      12.452   9.437  16.038  0.00  0.00    +0.139 C 
BRANCH  13  16
ATOM      7  N   UNL     1      14.456   9.998  14.777  0.00  0.00    -0.259 NA
ATOM     16  C   UNL     1      13.722  10.231  15.889  0.00  0.00    +0.055 A 
ATOM     20  C   UNL     1      14.073  11.142  16.871  0.00  0.00    +0.024 A 
ATOM     23  C   UNL     1      15.251  11.861  16.703  0.00  0.00    +0.003 A 
ATOM     24  C   UNL     1      15.595  10.715  14.648  0.00  0.00    +0.111 A 
ATOM     25  C   UNL     1      16.032  11.650  15.572  0.00  0.00    +0.020 A 
ENDBRANCH  13  16
ENDBRANCH   4  13
ENDBRANCH  12   8
BRANCH  19  22
ATOM      1  F   UNL     1      21.767   6.026  20.112  0.00  0.00    -0.166 F 
ATOM      2  F   UNL     1      21.188   5.448  22.127  0.00  0.00    -0.166 F 
ATOM      3  F   UNL     1      20.741   4.139  20.456  0.00  0.00    -0.166 F 
ATOM     22  C   UNL     1      20.759   5.452  20.830  0.00  0.00    +0.417 C 
ENDBRANCH  19  22
TORSDOF 4
ENDMDL
MODEL 6
REMARK VINA RESULT:      -6.9      4.754     10.461
REMARK  Name = 45784268
REMARK  4 active torsions:
REMARK  status: ('A' for Active; 'I' for Inactive)
REMARK    1  A    between atoms: N_4  and  C_13
REMARK    2  A    between atoms: C_8  and  C_12
REMARK    3  A    between atoms: C_13  and  C_16
REMARK    4  A    between atoms: C_19  and  C_22
REMARK                            x       y       z     vdW  Elec       q    Type
REMARK                         _______ _______ _______ _____ _____    ______ ____
ROOT
ATOM      5  N   UNL     1      17.569   6.967  21.558  0.00  0.00    -0.342 N 
ATOM      6  N   UNL     1      17.689   6.423  19.406  0.00  0.00    -0.232 NA
ATOM     12  C   UNL     1      18.371   6.589  20.517  0.00  0.00    +0.113 A 
ATOM     14  C   UNL     1      16.284   7.050  21.088  0.00  0.00    +0.067 A 
ATOM     15  C   UNL     1      16.385   6.706  19.742  0.00  0.00    +0.089 A 
ATOM     17  C   UNL     1      15.079   7.386  21.705  0.00  0.00    +0.040 A 
ATOM     18  C   UNL     1      15.224   6.691  18.951  0.00  0.00    +0.030 A 
ATOM     19  C   UNL     1      13.934   7.367  20.902  0.00  0.00    +0.057 A 
ATOM     21  C   UNL     1      14.003   7.026  19.549  0.00  0.00    +0.014 A 
ATOM     26  H   UNL     1      17.868   7.152  22.506  0.00  0.00    +0.167 HD
ENDROOT
BRANCH  12   8
ATOM      4  N   UNL     1      21.485   4.832  21.320  0.00  0.00    -0.296 NA
ATOM      8  C   UNL     1      19.860   6.405  20.699  0.00  0.00    +0.070 C 
ATOM      9  C   UNL     1      20.385   6.736  22.106  0.00  0.00    +0.028 C 
ATOM     10  C   UNL     1      20.321   4.964  20.441  0.00  0.00    +0.096 C 
ATOM     11  C   UNL     1      21.083   5.467  22.577  0.00  0.00    +0.085 C 
BRANCH   4  13
ATOM     13  C   UNL     1      21.888   3.445  21.504  0.00  0.00    +0.139 C 
BRANCH  13  16
ATOM      7  N   UNL     1      23.884   4.167  20.315  0.00  0.00    -0.259 NA
ATOM     16  C   UNL     1      23.320   3.220  21.100  0.00  0.00    +0.055 A 
ATOM     20  C   UNL     1      23.980   2.084  21.538  0.00  0.00    +0.024 A 
ATOM     23  C   UNL     1      25.303   1.907  21.148  0.00  0.00    +0.003 A 
ATOM     24  C   UNL     1      25.171   3.961  19.956  0.00  0.00    +0.111 A 
ATOM     25  C   UNL     1      25.917   2.859  20.342  0.00  0.00    +0.020 A 
ENDBRANCH  13  16
ENDBRANCH   4  13
ENDBRANCH  12   8
BRANCH  19  22
ATOM      1  F   UNL     1      11.985   6.639  22.054  0.00  0.00    -0.166 F 
ATOM      2  F   UNL     1      12.699   8.643  22.505  0.00  0.00    -0.166 F 
ATOM      3  F   UNL     1      11.728   8.243  20.607  0.00  0.00    -0.166 F 
ATOM     22  C   UNL     1      12.613   7.718  21.504  0.00  0.00    +0.417 C 
ENDBRANCH  19  22
TORSDOF 4
ENDMDL
MODEL 7
REMARK VINA RESULT:      -6.8      4.774      9.457
REMARK  Name = 45784268
REMARK  4 active torsions:
REMARK  status: ('A' for Active; 'I' for Inactive)
REMARK    1  A    between atoms: N_4  and  C_13
REMARK    2  A    between atoms: C_8  and  C_12
REMARK    3  A    between atoms: C_13  and  C_16
REMARK    4  A    between atoms: C_19  and  C_22
REMARK                            x       y       z     vdW  Elec       q    Type
REMARK                         _______ _______ _______ _____ _____    ______ ____
ROOT
ATOM      5  N   UNL     1      16.254   7.893  21.773  0.00  0.00    -0.342 N 
ATOM      6  N   UNL     1      16.564   7.209  19.681  0.00  0.00    -0.232 NA
ATOM     12  C   UNL     1      17.154   7.628  20.778  0.00  0.00    +0.113 A 
ATOM     14  C   UNL     1      15.000   7.626  21.286  0.00  0.00    +0.067 A 
ATOM     15  C   UNL     1      15.221   7.200  19.978  0.00  0.00    +0.089 A 
ATOM     17  C   UNL     1      13.731   7.718  21.859  0.00  0.00    +0.040 A 
ATOM     18  C   UNL     1      14.121   6.841  19.181  0.00  0.00    +0.030 A 
ATOM     19  C   UNL     1      12.649   7.356  21.050  0.00  0.00    +0.057 A 
ATOM     21  C   UNL     1      12.838   6.925  19.735  0.00  0.00    +0.014 A 
ATOM     26  H   UNL     1      16.470   8.226  22.703  0.00  0.00    +0.167 HD
ENDROOT
BRANCH  12   8
ATOM      4  N   UNL     1      20.470   7.012  22.208  0.00  0.00    -0.296 NA
ATOM      8  C   UNL     1      18.638   7.821  20.989  0.00  0.00    +0.070 C 
ATOM      9  C   UNL     1      19.008   8.829  22.091  0.00  0.00    +0.028 C 
ATOM     10  C   UNL     1      19.359   6.526  21.389  0.00  0.00    +0.096 C 
ATOM     11  C   UNL     1      19.886   8.049  23.061  0.00  0.00    +0.085 C 
BRANCH   4  13
ATOM     13  C   UNL     1      21.098   5.949  22.980  0.00  0.00    +0.139 C 
BRANCH  13  16
ATOM      7  N   UNL     1      22.984   5.818  21.449  0.00  0.00    -0.259 NA
ATOM     16  C   UNL     1      22.046   5.134  22.142  0.00  0.00    +0.055 A 
ATOM     20  C   UNL     1      21.919   3.754  22.120  0.00  0.00    +0.024 A 
ATOM     23  C   UNL     1      22.812   3.031  21.337  0.00  0.00    +0.003 A 
ATOM     24  C   UNL     1      23.834   5.081  20.700  0.00  0.00    +0.111 A 
ATOM     25  C   UNL     1      23.791   3.699  20.611  0.00  0.00    +0.020 A 
ENDBRANCH  13  16
ENDBRANCH   4  13
ENDBRANCH  12   8
BRANCH  19  22
ATOM      1  F   UNL     1      10.393   8.049  20.756  0.00  0.00    -0.166 F 
ATOM      2  F   UNL     1      10.716   6.212  21.874  0.00  0.00    -0.166 F 
ATOM      3  F   UNL     1      11.187   8.126  22.780  0.00  0.00    -0.166 F 
ATOM     22  C   UNL     1      11.264   7.433  21.606  0.00  0.00    +0.417 C 
ENDBRANCH  19  22
TORSDOF 4
ENDMDL
MODEL 8
REMARK VINA RESULT:      -6.8     15.594     18.839
REMARK  Name = 45784268
REMARK  4 active torsions:
REMARK  status: ('A' for Active; 'I' for Inactive)
REMARK    1  A    between atoms: N_4  and  C_13
REMARK    2  A    between atoms: C_8  and  C_12
REMARK    3  A    between atoms: C_13  and  C_16
REMARK    4  A    between atoms: C_19  and  C_22
REMARK                            x       y       z     vdW  Elec       q    Type
REMARK                         _______ _______ _______ _____ _____    ______ ____
ROOT
ATOM      5  N   UNL     1      11.892   6.338   5.741  0.00  0.00    -0.342 N 
ATOM      6  N   UNL     1      10.717   8.202   5.454  0.00  0.00    -0.232 NA
ATOM     12  C   UNL     1      11.713   7.475   5.003  0.00  0.00    +0.113 A 
ATOM     14  C   UNL     1      10.947   6.330   6.734  0.00  0.00    +0.067 A 
ATOM     15  C   UNL     1      10.226   7.505   6.534  0.00  0.00    +0.089 A 
ATOM     17  C   UNL     1      10.670   5.425   7.759  0.00  0.00    +0.040 A 
ATOM     18  C   UNL     1       9.161   7.809   7.399  0.00  0.00    +0.030 A 
ATOM     19  C   UNL     1       9.607   5.746   8.611  0.00  0.00    +0.057 A 
ATOM     21  C   UNL     1       8.865   6.916   8.435  0.00  0.00    +0.014 A 
ATOM     26  H   UNL     1      12.594   5.627   5.584  0.00  0.00    +0.167 HD
ENDROOT
BRANCH  12   8
ATOM      4  N   UNL     1      14.246   6.877   2.424  0.00  0.00    -0.296 NA
ATOM      8  C   UNL     1      12.600   7.791   3.820  0.00  0.00    +0.070 C 
ATOM      9  C   UNL     1      13.971   8.388   4.182  0.00  0.00    +0.028 C 
ATOM     10  C   UNL     1      12.926   6.557   2.969  0.00  0.00    +0.096 C 
ATOM     11  C   UNL     1      14.989   7.451   3.546  0.00  0.00    +0.085 C 
BRANCH   4  13
ATOM     13  C   UNL     1      14.911   5.712   1.857  0.00  0.00    +0.139 C 
BRANCH  13  16
ATOM      7  N   UNL     1      13.864   5.848  -0.334  0.00  0.00    -0.259 NA
ATOM     16  C   UNL     1      14.099   5.084   0.757  0.00  0.00    +0.055 A 
ATOM     20  C   UNL     1      13.641   3.785   0.906  0.00  0.00    +0.024 A 
ATOM     23  C   UNL     1      12.895   3.234  -0.131  0.00  0.00    +0.003 A 
ATOM     24  C   UNL     1      13.135   5.279  -1.321  0.00  0.00    +0.111 A 
ATOM     25  C   UNL     1      12.633   3.988  -1.269  0.00  0.00    +0.020 A 
ENDBRANCH  13  16
ENDBRANCH   4  13
ENDBRANCH  12   8
BRANCH  19  22
ATOM      1  F   UNL     1      10.238   4.756  10.679  0.00  0.00    -0.166 F 
ATOM      2  F   UNL     1       8.121   5.165  10.393  0.00  0.00    -0.166 F 
ATOM      3  F   UNL     1       9.060   3.529   9.323  0.00  0.00    -0.166 F 
ATOM     22  C   UNL     1       9.261   4.817   9.728  0.00  0.00    +0.417 C 
ENDBRANCH  19  22
TORSDOF 4
ENDMDL
MODEL 9
REMARK VINA RESULT:      -6.7     28.030     30.094
REMARK  Name = 45784268
REMARK  4 active torsions:
REMARK  status: ('A' for Active; 'I' for Inactive)
REMARK    1  A    between atoms: N_4  and  C_13
REMARK    2  A    between atoms: C_8  and  C_12
REMARK    3  A    between atoms: C_13  and  C_16
REMARK    4  A    between atoms: C_19  and  C_22
REMARK                            x       y       z     vdW  Elec       q    Type
REMARK                         _______ _______ _______ _____ _____    ______ ____
ROOT
ATOM      5  N   UNL     1      -8.613  -8.679  16.221  0.00  0.00    -0.342 N 
ATOM      6  N   UNL     1      -9.629  -9.559  17.991  0.00  0.00    -0.232 NA
ATOM     12  C   UNL     1      -9.766  -8.769  16.950  0.00  0.00    +0.113 A 
ATOM     14  C   UNL     1      -7.669  -9.464  16.831  0.00  0.00    +0.067 A 
ATOM     15  C   UNL     1      -8.328 -10.002  17.934  0.00  0.00    +0.089 A 
ATOM     17  C   UNL     1      -6.337  -9.741  16.523  0.00  0.00    +0.040 A 
ATOM     18  C   UNL     1      -7.630 -10.871  18.790  0.00  0.00    +0.030 A 
ATOM     19  C   UNL     1      -5.659 -10.607  17.387  0.00  0.00    +0.057 A 
ATOM     21  C   UNL     1      -6.292 -11.164  18.501  0.00  0.00    +0.014 A 
ATOM     26  H   UNL     1      -8.477  -8.133  15.381  0.00  0.00    +0.167 HD
ENDROOT
BRANCH  12   8
ATOM      4  N   UNL     1     -12.062  -6.988  14.717  0.00  0.00    -0.296 NA
ATOM      8  C   UNL     1     -11.013  -8.016  16.545  0.00  0.00    +0.070 C 
ATOM      9  C   UNL     1     -10.920  -6.487  16.691  0.00  0.00    +0.028 C 
ATOM     10  C   UNL     1     -11.399  -8.243  15.078  0.00  0.00    +0.096 C 
ATOM     11  C   UNL     1     -11.228  -5.939  15.304  0.00  0.00    +0.085 C 
BRANCH   4  13
ATOM     13  C   UNL     1     -12.214  -6.834  13.277  0.00  0.00    +0.139 C 
BRANCH  13  16
ATOM      7  N   UNL     1     -14.250  -5.504  13.352  0.00  0.00    -0.259 NA
ATOM     16  C   UNL     1     -12.969  -5.581  12.925  0.00  0.00    +0.055 A 
ATOM     20  C   UNL     1     -12.333  -4.587  12.199  0.00  0.00    +0.024 A 
ATOM     23  C   UNL     1     -13.058  -3.440  11.892  0.00  0.00    +0.003 A 
ATOM     24  C   UNL     1     -14.922  -4.375  13.034  0.00  0.00    +0.111 A 
ATOM     25  C   UNL     1     -14.377  -3.324  12.314  0.00  0.00    +0.020 A 
ENDBRANCH  13  16
ENDBRANCH   4  13
ENDBRANCH  12   8
BRANCH  19  22
ATOM      1  F   UNL     1      -3.564 -11.353  18.230  0.00  0.00    -0.166 F 
ATOM      2  F   UNL     1      -4.071 -11.946  16.199  0.00  0.00    -0.166 F 
ATOM      3  F   UNL     1      -3.509  -9.893  16.618  0.00  0.00    -0.166 F 
ATOM     22  C   UNL     1      -4.230 -10.943  17.112  0.00  0.00    +0.417 C 
ENDBRANCH  19  22
TORSDOF 4
ENDMDL
MODEL 10
REMARK VINA RESULT:      -6.6     27.226     29.249
REMARK  Name = 45784268
REMARK  4 active torsions:
REMARK  status: ('A' for Active; 'I' for Inactive)
REMARK    1  A    between atoms: N_4  and  C_13
REMARK    2  A    between atoms: C_8  and  C_12
REMARK    3  A    between atoms: C_13  and  C_16
REMARK    4  A    between atoms: C_19  and  C_22
REMARK                            x       y       z     vdW  Elec       q    Type
REMARK                         _______ _______ _______ _____ _____    ______ ____
ROOT
ATOM      5  N   UNL     1      -7.030  -9.730  15.409  0.00  0.00    -0.342 N 
ATOM      6  N   UNL     1      -7.332 -10.187  17.563  0.00  0.00    -0.232 NA
ATOM     12  C   UNL     1      -7.905  -9.762  16.459  0.00  0.00    +0.113 A 
ATOM     14  C   UNL     1      -5.812 -10.164  15.864  0.00  0.00    +0.067 A 
ATOM     15  C   UNL     1      -6.026 -10.442  17.212  0.00  0.00    +0.089 A 
ATOM     17  C   UNL     1      -4.578 -10.330  15.234  0.00  0.00    +0.040 A 
ATOM     18  C   UNL     1      -4.957 -10.917  17.991  0.00  0.00    +0.030 A 
ATOM     19  C   UNL     1      -3.526 -10.803  16.026  0.00  0.00    +0.057 A 
ATOM     21  C   UNL     1      -3.710 -11.092  17.380  0.00  0.00    +0.014 A 
ATOM     26  H   UNL     1      -7.240  -9.440  14.463  0.00  0.00    +0.167 HD
ENDROOT
BRANCH  12   8
ATOM      4  N   UNL     1     -10.723  -7.466  16.006  0.00  0.00    -0.296 NA
ATOM      8  C   UNL     1      -9.347  -9.342  16.293  0.00  0.00    +0.070 C 
ATOM      9  C   UNL     1     -10.087  -9.042  17.608  0.00  0.00    +0.028 C 
ATOM     10  C   UNL     1      -9.506  -8.065  15.457  0.00  0.00    +0.096 C 
ATOM     11  C   UNL     1     -10.596  -7.614  17.457  0.00  0.00    +0.085 C 
BRANCH   4  13
ATOM     13  C   UNL     1     -10.889  -6.076  15.604  0.00  0.00    +0.139 C 
BRANCH  13  16
ATOM      7  N   UNL     1     -12.135  -5.059  13.779  0.00  0.00    -0.259 NA
ATOM     16  C   UNL     1     -12.185  -5.856  14.871  0.00  0.00    +0.055 A 
ATOM     20  C   UNL     1     -13.340  -6.463  15.335  0.00  0.00    +0.024 A 
ATOM     23  C   UNL     1     -14.520  -6.241  14.633  0.00  0.00    +0.003 A 
ATOM     24  C   UNL     1     -13.302  -4.865  13.124  0.00  0.00    +0.111 A 
ATOM     25  C   UNL     1     -14.509  -5.428  13.506  0.00  0.00    +0.020 A 
ENDBRANCH  13  16
ENDBRANCH   4  13
ENDBRANCH  12   8
BRANCH  19  22
ATOM      1  F   UNL     1      -2.034 -12.243  14.862  0.00  0.00    -0.166 F 
ATOM      2  F   UNL     1      -1.906 -10.121  14.402  0.00  0.00    -0.166 F 
ATOM      3  F   UNL     1      -1.150 -10.865  16.294  0.00  0.00    -0.166 F 
ATOM     22  C   UNL     1      -2.180 -11.002  15.409  0.00  0.00    +0.417 C 
ENDBRANCH  19  22
TORSDOF 4
ENDMDL
