MODEL 1
REMARK VINA RESULT:      -7.5      0.000      0.000
REMARK  Name = 40777502
REMARK  6 active torsions:
REMARK  status: ('A' for Active; 'I' for Inactive)
REMARK    1  A    between atoms: N_5  and  C_21
REMARK    2  A    between atoms: C_7  and  C_11
REMARK    3  A    between atoms: C_8  and  C_13
REMARK    4  A    between atoms: C_11  and  C_14
REMARK    5  A    between atoms: C_13  and  C_15
REMARK    6  A    between atoms: C_22  and  C_25
REMARK                            x       y       z     vdW  Elec       q    Type
REMARK                         _______ _______ _______ _____ _____    ______ ____
ROOT
ATOM      3  N   UNL     1     -14.109 -10.199  18.421  0.00  0.00    -0.316 NA
ATOM      7  C   UNL     1     -11.221  -9.668  18.700  0.00  0.00    +0.004 C 
ATOM      8  C   UNL     1     -12.063  -9.113  17.527  0.00  0.00    +0.012 C 
ATOM      9  C   UNL     1     -12.146  -9.941  19.898  0.00  0.00    +0.019 C 
ATOM     10  C   UNL     1     -13.280 -10.006  17.231  0.00  0.00    +0.085 C 
ATOM     12  C   UNL     1     -13.352 -10.798  19.519  0.00  0.00    +0.081 C 
ATOM     34  H   UNL     1     -14.899 -10.801  18.188  0.00  0.00    +0.122 HD
ENDROOT
BRANCH   7  11
ATOM     11  C   UNL     1     -10.403 -10.916  18.346  0.00  0.00    +0.100 C 
BRANCH  11  14
ATOM      1  O   UNL     1      -9.026 -10.976  20.280  0.00  0.00    -0.276 OA
ATOM      4  N   UNL     1      -7.946 -10.726  18.237  0.00  0.00    -0.298 N 
ATOM      5  N   UNL     1      -5.539 -10.631  16.632  0.00  0.00    -0.327 N 
ATOM     14  C   UNL     1      -9.069 -10.878  19.051  0.00  0.00    +0.216 C 
ATOM     16  C   UNL     1      -6.618 -10.676  18.844  0.00  0.00    +0.126 C 
ATOM     17  C   UNL     1      -7.999 -10.621  16.777  0.00  0.00    +0.126 C 
ATOM     18  C   UNL     1      -5.553 -11.292  17.940  0.00  0.00    +0.124 C 
ATOM     19  C   UNL     1      -6.758  -9.951  16.186  0.00  0.00    +0.124 C 
BRANCH   5  21
ATOM     21  C   UNL     1      -4.385 -10.621  15.852  0.00  0.00    +0.030 A 
ATOM     23  C   UNL     1      -4.483 -10.626  14.461  0.00  0.00    +0.023 A 
ATOM     24  C   UNL     1      -3.131 -10.605  16.462  0.00  0.00    +0.023 A 
ATOM     26  C   UNL     1      -3.328 -10.617  13.680  0.00  0.00    +0.002 A 
ATOM     27  C   UNL     1      -1.975 -10.595  15.682  0.00  0.00    +0.002 A 
ATOM     28  C   UNL     1      -2.073 -10.600  14.290  0.00  0.00    +0.000 A 
ENDBRANCH   5  21
ENDBRANCH  11  14
ENDBRANCH   7  11
BRANCH   8  13
ATOM     13  C   UNL     1     -11.243  -8.884  16.257  0.00  0.00    +0.064 C 
BRANCH  13  15
ATOM      2  O   UNL     1     -11.550  -5.421  15.323  0.00  0.00    -0.354 OA
ATOM      6  N   UNL     1     -11.053  -6.437  16.129  0.00  0.00    -0.083 NA
ATOM     15  C   UNL     1     -11.570  -7.561  15.625  0.00  0.00    +0.085 A 
ATOM     20  C   UNL     1     -12.393  -7.319  14.512  0.00  0.00    +0.076 A 
ATOM     22  C   UNL     1     -12.346  -5.958  14.364  0.00  0.00    +0.167 A 
BRANCH  22  25
ATOM     25  C   UNL     1     -12.935  -5.023  13.450  0.00  0.00    +0.020 A 
ATOM     29  C   UNL     1     -14.316  -4.819  13.453  0.00  0.00    +0.011 A 
ATOM     30  C   UNL     1     -12.129  -4.317  12.558  0.00  0.00    +0.011 A 
ATOM     31  C   UNL     1     -14.888  -3.909  12.564  0.00  0.00    +0.001 A 
ATOM     32  C   UNL     1     -12.701  -3.408  11.667  0.00  0.00    +0.001 A 
ATOM     33  C   UNL     1     -14.082  -3.205  11.672  0.00  0.00    +0.000 A 
ENDBRANCH  22  25
ENDBRANCH  13  15
ENDBRANCH   8  13
TORSDOF 6
ENDMDL
MODEL 2
REMARK VINA RESULT:      -7.2     28.808     34.511
REMARK  Name = 40777502
REMARK  6 active torsions:
REMARK  status: ('A' for Active; 'I' for Inactive)
REMARK    1  A    between atoms: N_5  and  C_21
REMARK    2  A    between atoms: C_7  and  C_11
REMARK    3  A    between atoms: C_8  and  C_13
REMARK    4  A    between atoms: C_11  and  C_14
REMARK    5  A    between atoms: C_13  and  C_15
REMARK    6  A    between atoms: C_22  and  C_25
REMARK                            x       y       z     vdW  Elec       q    Type
REMARK                         _______ _______ _______ _____ _____    ______ ____
ROOT
ATOM      3  N   UNL     1      22.344   7.559  23.293  0.00  0.00    -0.316 NA
ATOM      7  C   UNL     1      20.103   6.156  21.982  0.00  0.00    +0.004 C 
ATOM      8  C   UNL     1      21.554   5.621  21.957  0.00  0.00    +0.012 C 
ATOM      9  C   UNL     1      19.925   7.065  23.210  0.00  0.00    +0.019 C 
ATOM     10  C   UNL     1      22.582   6.757  22.092  0.00  0.00    +0.085 C 
ATOM     12  C   UNL     1      21.004   8.143  23.299  0.00  0.00    +0.081 C 
ATOM     34  H   UNL     1      23.037   8.305  23.343  0.00  0.00    +0.122 HD
ENDROOT
BRANCH   7  11
ATOM     11  C   UNL     1      19.685   6.884  20.699  0.00  0.00    +0.100 C 
BRANCH  11  14
ATOM      1  O   UNL     1      18.623   5.153  19.468  0.00  0.00    -0.276 OA
ATOM      4  N   UNL     1      17.254   6.847  20.277  0.00  0.00    -0.298 N 
ATOM      5  N   UNL     1      14.635   7.971  20.788  0.00  0.00    -0.327 N 
ATOM     14  C   UNL     1      18.480   6.208  20.090  0.00  0.00    +0.216 C 
ATOM     16  C   UNL     1      16.042   6.258  19.715  0.00  0.00    +0.126 C 
ATOM     17  C   UNL     1      17.084   8.095  21.027  0.00  0.00    +0.126 C 
ATOM     18  C   UNL     1      14.817   6.530  20.585  0.00  0.00    +0.124 C 
ATOM     19  C   UNL     1      15.804   8.842  20.651  0.00  0.00    +0.124 C 
BRANCH   5  21
ATOM     21  C   UNL     1      13.376   8.496  21.067  0.00  0.00    +0.030 A 
ATOM     23  C   UNL     1      13.248   9.569  21.949  0.00  0.00    +0.023 A 
ATOM     24  C   UNL     1      12.243   7.952  20.463  0.00  0.00    +0.023 A 
ATOM     26  C   UNL     1      11.988  10.095  22.229  0.00  0.00    +0.002 A 
ATOM     27  C   UNL     1      10.982   8.478  20.743  0.00  0.00    +0.002 A 
ATOM     28  C   UNL     1      10.854   9.550  21.625  0.00  0.00    +0.000 A 
ENDBRANCH   5  21
ENDBRANCH  11  14
ENDBRANCH   7  11
BRANCH   8  13
ATOM     13  C   UNL     1      21.856   4.767  20.724  0.00  0.00    +0.064 C 
BRANCH  13  15
ATOM      2  O   UNL     1      24.653   2.501  20.770  0.00  0.00    -0.354 OA
ATOM      6  N   UNL     1      23.917   3.534  20.203  0.00  0.00    -0.083 NA
ATOM     15  C   UNL     1      22.881   3.712  21.027  0.00  0.00    +0.085 A 
ATOM     20  C   UNL     1      22.910   2.828  22.120  0.00  0.00    +0.076 A 
ATOM     22  C   UNL     1      24.044   2.089  21.910  0.00  0.00    +0.167 A 
BRANCH  22  25
ATOM     25  C   UNL     1      24.694   1.020  22.611  0.00  0.00    +0.020 A 
ATOM     29  C   UNL     1      24.361   0.752  23.939  0.00  0.00    +0.011 A 
ATOM     30  C   UNL     1      25.658   0.247  21.964  0.00  0.00    +0.011 A 
ATOM     31  C   UNL     1      24.993  -0.289  24.620  0.00  0.00    +0.001 A 
ATOM     32  C   UNL     1      26.291  -0.793  22.645  0.00  0.00    +0.001 A 
ATOM     33  C   UNL     1      25.958  -1.061  23.973  0.00  0.00    +0.000 A 
ENDBRANCH  22  25
ENDBRANCH  13  15
ENDBRANCH   8  13
TORSDOF 6
ENDMDL
MODEL 3
REMARK VINA RESULT:      -7.2     22.890     24.867
REMARK  Name = 40777502
REMARK  6 active torsions:
REMARK  status: ('A' for Active; 'I' for Inactive)
REMARK    1  A    between atoms: N_5  and  C_21
REMARK    2  A    between atoms: C_7  and  C_11
REMARK    3  A    between atoms: C_8  and  C_13
REMARK    4  A    between atoms: C_11  and  C_14
REMARK    5  A    between atoms: C_13  and  C_15
REMARK    6  A    between atoms: C_22  and  C_25
REMARK                            x       y       z     vdW  Elec       q    Type
REMARK                         _______ _______ _______ _____ _____    ______ ____
ROOT
ATOM      3  N   UNL     1     -13.645   9.606  31.087  0.00  0.00    -0.316 NA
ATOM      7  C   UNL     1     -12.168   8.434  33.356  0.00  0.00    +0.004 C 
ATOM      8  C   UNL     1     -13.494   7.840  32.826  0.00  0.00    +0.012 C 
ATOM      9  C   UNL     1     -11.487   9.229  32.229  0.00  0.00    +0.019 C 
ATOM     10  C   UNL     1     -14.368   8.913  32.154  0.00  0.00    +0.085 C 
ATOM     12  C   UNL     1     -12.428  10.245  31.583  0.00  0.00    +0.081 C 
ATOM     34  H   UNL     1     -14.253  10.314  30.673  0.00  0.00    +0.122 HD
ENDROOT
BRANCH   7  11
ATOM     11  C   UNL     1     -12.329   9.298  34.613  0.00  0.00    +0.100 C 
BRANCH  11  14
ATOM      1  O   UNL     1     -12.401   7.819  36.469  0.00  0.00    -0.276 OA
ATOM      4  N   UNL     1     -10.383   8.900  36.075  0.00  0.00    -0.298 N 
ATOM      5  N   UNL     1      -7.561   9.283  36.600  0.00  0.00    -0.327 N 
ATOM     14  C   UNL     1     -11.718   8.599  35.803  0.00  0.00    +0.216 C 
ATOM     16  C   UNL     1      -9.719   8.268  37.212  0.00  0.00    +0.126 C 
ATOM     17  C   UNL     1      -9.568   9.819  35.275  0.00  0.00    +0.126 C 
ATOM     18  C   UNL     1      -8.235   8.028  36.948  0.00  0.00    +0.124 C 
ATOM     19  C   UNL     1      -8.369  10.372  36.046  0.00  0.00    +0.124 C 
BRANCH   5  21
ATOM     21  C   UNL     1      -6.196   9.444  36.826  0.00  0.00    +0.030 A 
ATOM     23  C   UNL     1      -5.612   8.907  37.973  0.00  0.00    +0.023 A 
ATOM     24  C   UNL     1      -5.414  10.140  35.906  0.00  0.00    +0.023 A 
ATOM     26  C   UNL     1      -4.245   9.068  38.200  0.00  0.00    +0.002 A 
ATOM     27  C   UNL     1      -4.048  10.302  36.132  0.00  0.00    +0.002 A 
ATOM     28  C   UNL     1      -3.463   9.765  37.279  0.00  0.00    +0.000 A 
ENDBRANCH   5  21
ENDBRANCH  11  14
ENDBRANCH   7  11
BRANCH   8  13
ATOM     13  C   UNL     1     -14.288   7.095  33.899  0.00  0.00    +0.064 C 
BRANCH  13  15
ATOM      2  O   UNL     1     -14.441   3.501  34.053  0.00  0.00    -0.354 OA
ATOM      6  N   UNL     1     -14.447   4.757  34.644  0.00  0.00    -0.083 NA
ATOM     15  C   UNL     1     -14.320   5.617  33.629  0.00  0.00    +0.085 A 
ATOM     20  C   UNL     1     -14.230   4.967  32.386  0.00  0.00    +0.076 A 
ATOM     22  C   UNL     1     -14.311   3.638  32.709  0.00  0.00    +0.167 A 
BRANCH  22  25
ATOM     25  C   UNL     1     -14.289   2.416  31.958  0.00  0.00    +0.020 A 
ATOM     29  C   UNL     1     -13.691   2.382  30.698  0.00  0.00    +0.011 A 
ATOM     30  C   UNL     1     -14.864   1.262  32.488  0.00  0.00    +0.011 A 
ATOM     31  C   UNL     1     -13.669   1.193  29.968  0.00  0.00    +0.001 A 
ATOM     32  C   UNL     1     -14.843   0.073  31.759  0.00  0.00    +0.001 A 
ATOM     33  C   UNL     1     -14.245   0.040  30.498  0.00  0.00    +0.000 A 
ENDBRANCH  22  25
ENDBRANCH  13  15
ENDBRANCH   8  13
TORSDOF 6
ENDMDL
MODEL 4
REMARK VINA RESULT:      -7.1      7.321     11.994
REMARK  Name = 40777502
REMARK  6 active torsions:
REMARK  status: ('A' for Active; 'I' for Inactive)
REMARK    1  A    between atoms: N_5  and  C_21
REMARK    2  A    between atoms: C_7  and  C_11
REMARK    3  A    between atoms: C_8  and  C_13
REMARK    4  A    between atoms: C_11  and  C_14
REMARK    5  A    between atoms: C_13  and  C_15
REMARK    6  A    between atoms: C_22  and  C_25
REMARK                            x       y       z     vdW  Elec       q    Type
REMARK                         _______ _______ _______ _____ _____    ______ ____
ROOT
ATOM      3  N   UNL     1      -6.192  -8.595   8.457  0.00  0.00    -0.316 NA
ATOM      7  C   UNL     1      -4.049 -10.374   9.430  0.00  0.00    +0.004 C 
ATOM      8  C   UNL     1      -4.813 -10.631   8.110  0.00  0.00    +0.012 C 
ATOM      9  C   UNL     1      -4.116  -8.875   9.766  0.00  0.00    +0.019 C 
ATOM     10  C   UNL     1      -6.227 -10.025   8.145  0.00  0.00    +0.085 C 
ATOM     12  C   UNL     1      -5.545  -8.335   9.742  0.00  0.00    +0.081 C 
ATOM     34  H   UNL     1      -7.146  -8.233   8.480  0.00  0.00    +0.122 HD
ENDROOT
BRANCH   7  11
ATOM     11  C   UNL     1      -4.540 -11.220  10.611  0.00  0.00    +0.100 C 
BRANCH  11  14
ATOM      1  O   UNL     1      -2.293 -11.257  11.377  0.00  0.00    -0.276 OA
ATOM      4  N   UNL     1      -3.950 -11.320  13.004  0.00  0.00    -0.298 N 
ATOM      5  N   UNL     1      -4.800 -11.214  15.770  0.00  0.00    -0.327 N 
ATOM     14  C   UNL     1      -3.486 -11.265  11.689  0.00  0.00    +0.216 C 
ATOM     16  C   UNL     1      -2.992 -11.369  14.105  0.00  0.00    +0.126 C 
ATOM     17  C   UNL     1      -5.368 -11.318  13.374  0.00  0.00    +0.126 C 
ATOM     18  C   UNL     1      -3.512 -10.653  15.349  0.00  0.00    +0.124 C 
ATOM     19  C   UNL     1      -5.617 -11.900  14.766  0.00  0.00    +0.124 C 
BRANCH   5  21
ATOM     21  C   UNL     1      -5.214 -11.128  17.097  0.00  0.00    +0.030 A 
ATOM     23  C   UNL     1      -4.488 -11.776  18.097  0.00  0.00    +0.023 A 
ATOM     24  C   UNL     1      -6.352 -10.394  17.426  0.00  0.00    +0.023 A 
ATOM     26  C   UNL     1      -4.902 -11.691  19.426  0.00  0.00    +0.002 A 
ATOM     27  C   UNL     1      -6.767 -10.308  18.755  0.00  0.00    +0.002 A 
ATOM     28  C   UNL     1      -6.041 -10.956  19.755  0.00  0.00    +0.000 A 
ENDBRANCH   5  21
ENDBRANCH  11  14
ENDBRANCH   7  11
BRANCH   8  13
ATOM     13  C   UNL     1      -4.872 -12.111   7.731  0.00  0.00    +0.064 C 
BRANCH  13  15
ATOM      2  O   UNL     1      -3.470 -12.174   4.415  0.00  0.00    -0.354 OA
ATOM      6  N   UNL     1      -4.344 -11.671   5.371  0.00  0.00    -0.083 NA
ATOM     15  C   UNL     1      -4.098 -12.385   6.473  0.00  0.00    +0.085 A 
ATOM     20  C   UNL     1      -3.090 -13.344   6.274  0.00  0.00    +0.076 A 
ATOM     22  C   UNL     1      -2.729 -13.169   4.964  0.00  0.00    +0.167 A 
BRANCH  22  25
ATOM     25  C   UNL     1      -1.776 -13.789   4.091  0.00  0.00    +0.020 A 
ATOM     29  C   UNL     1      -0.658 -14.432   4.622  0.00  0.00    +0.011 A 
ATOM     30  C   UNL     1      -1.968 -13.751   2.710  0.00  0.00    +0.011 A 
ATOM     31  C   UNL     1       0.269 -15.036   3.771  0.00  0.00    +0.001 A 
ATOM     32  C   UNL     1      -1.040 -14.353   1.859  0.00  0.00    +0.001 A 
ATOM     33  C   UNL     1       0.078 -14.996   2.391  0.00  0.00    +0.000 A 
ENDBRANCH  22  25
ENDBRANCH  13  15
ENDBRANCH   8  13
TORSDOF 6
ENDMDL
MODEL 5
REMARK VINA RESULT:      -7.0      2.099     10.120
REMARK  Name = 40777502
REMARK  6 active torsions:
REMARK  status: ('A' for Active; 'I' for Inactive)
REMARK    1  A    between atoms: N_5  and  C_21
REMARK    2  A    between atoms: C_7  and  C_11
REMARK    3  A    between atoms: C_8  and  C_13
REMARK    4  A    between atoms: C_11  and  C_14
REMARK    5  A    between atoms: C_13  and  C_15
REMARK    6  A    between atoms: C_22  and  C_25
REMARK                            x       y       z     vdW  Elec       q    Type
REMARK                         _______ _______ _______ _____ _____    ______ ____
ROOT
ATOM      3  N   UNL     1     -14.311 -10.391  16.218  0.00  0.00    -0.316 NA
ATOM      7  C   UNL     1     -12.475  -8.322  15.192  0.00  0.00    +0.004 C 
ATOM      8  C   UNL     1     -12.176  -9.148  16.465  0.00  0.00    +0.012 C 
ATOM      9  C   UNL     1     -13.435  -9.118  14.291  0.00  0.00    +0.019 C 
ATOM     10  C   UNL     1     -13.468  -9.633  17.144  0.00  0.00    +0.085 C 
ATOM     12  C   UNL     1     -14.674  -9.601  15.043  0.00  0.00    +0.081 C 
ATOM     34  H   UNL     1     -15.160 -10.687  16.700  0.00  0.00    +0.122 HD
ENDROOT
BRANCH   7  11
ATOM     11  C   UNL     1     -13.028  -6.920  15.473  0.00  0.00    +0.100 C 
BRANCH  11  14
ATOM      1  O   UNL     1     -11.003  -5.758  15.038  0.00  0.00    -0.276 OA
ATOM      4  N   UNL     1     -12.861  -5.113  13.801  0.00  0.00    -0.298 N 
ATOM      5  N   UNL     1     -14.082  -3.611  11.648  0.00  0.00    -0.327 N 
ATOM     14  C   UNL     1     -12.197  -5.883  14.757  0.00  0.00    +0.216 C 
ATOM     16  C   UNL     1     -12.127  -4.086  13.067  0.00  0.00    +0.126 C 
ATOM     17  C   UNL     1     -14.277  -5.271  13.459  0.00  0.00    +0.126 C 
ATOM     18  C   UNL     1     -12.649  -3.918  11.642  0.00  0.00    +0.124 C 
ATOM     19  C   UNL     1     -14.872  -4.020  12.812  0.00  0.00    +0.124 C 
BRANCH   5  21
ATOM     21  C   UNL     1     -14.666  -2.918  10.591  0.00  0.00    +0.030 A 
ATOM     23  C   UNL     1     -15.799  -2.134  10.812  0.00  0.00    +0.023 A 
ATOM     24  C   UNL     1     -14.118  -3.005   9.312  0.00  0.00    +0.023 A 
ATOM     26  C   UNL     1     -16.384  -1.440   9.754  0.00  0.00    +0.002 A 
ATOM     27  C   UNL     1     -14.702  -2.311   8.253  0.00  0.00    +0.002 A 
ATOM     28  C   UNL     1     -15.835  -1.527   8.474  0.00  0.00    +0.000 A 
ENDBRANCH   5  21
ENDBRANCH  11  14
ENDBRANCH   7  11
BRANCH   8  13
ATOM     13  C   UNL     1     -11.290  -8.405  17.466  0.00  0.00    +0.064 C 
BRANCH  13  15
ATOM      2  O   UNL     1      -8.699 -10.616  18.632  0.00  0.00    -0.354 OA
ATOM      6  N   UNL     1     -10.006 -10.146  18.633  0.00  0.00    -0.083 NA
ATOM     15  C   UNL     1     -10.018  -9.157  17.734  0.00  0.00    +0.085 A 
ATOM     20  C   UNL     1      -8.759  -8.959  17.141  0.00  0.00    +0.076 A 
ATOM     22  C   UNL     1      -7.966  -9.902  17.740  0.00  0.00    +0.167 A 
BRANCH  22  25
ATOM     25  C   UNL     1      -6.586 -10.275  17.629  0.00  0.00    +0.020 A 
ATOM     29  C   UNL     1      -5.848  -9.892  16.509  0.00  0.00    +0.011 A 
ATOM     30  C   UNL     1      -5.982 -11.021  18.640  0.00  0.00    +0.011 A 
ATOM     31  C   UNL     1      -4.505 -10.256  16.401  0.00  0.00    +0.001 A 
ATOM     32  C   UNL     1      -4.639 -11.386  18.533  0.00  0.00    +0.001 A 
ATOM     33  C   UNL     1      -3.902 -11.003  17.412  0.00  0.00    +0.000 A 
ENDBRANCH  22  25
ENDBRANCH  13  15
ENDBRANCH   8  13
TORSDOF 6
ENDMDL
MODEL 6
REMARK VINA RESULT:      -7.0     26.387     30.312
REMARK  Name = 40777502
REMARK  6 active torsions:
REMARK  status: ('A' for Active; 'I' for Inactive)
REMARK    1  A    between atoms: N_5  and  C_21
REMARK    2  A    between atoms: C_7  and  C_11
REMARK    3  A    between atoms: C_8  and  C_13
REMARK    4  A    between atoms: C_11  and  C_14
REMARK    5  A    between atoms: C_13  and  C_15
REMARK    6  A    between atoms: C_22  and  C_25
REMARK                            x       y       z     vdW  Elec       q    Type
REMARK                         _______ _______ _______ _____ _____    ______ ____
ROOT
ATOM      3  N   UNL     1      15.420   3.721   1.508  0.00  0.00    -0.316 NA
ATOM      7  C   UNL     1      13.308   4.630  -0.340  0.00  0.00    +0.004 C 
ATOM      8  C   UNL     1      13.036   4.314   1.150  0.00  0.00    +0.012 C 
ATOM      9  C   UNL     1      14.792   4.994  -0.513  0.00  0.00    +0.019 C 
ATOM     10  C   UNL     1      14.037   3.286   1.704  0.00  0.00    +0.085 C 
ATOM     12  C   UNL     1      15.724   3.947   0.097  0.00  0.00    +0.081 C 
ATOM     34  H   UNL     1      16.052   3.011   1.880  0.00  0.00    +0.122 HD
ENDROOT
BRANCH   7  11
ATOM     11  C   UNL     1      12.906   3.504  -1.300  0.00  0.00    +0.100 C 
BRANCH  11  14
ATOM      1  O   UNL     1      13.550   4.038  -3.522  0.00  0.00    -0.276 OA
ATOM      4  N   UNL     1      11.381   4.594  -2.904  0.00  0.00    -0.298 N 
ATOM      5  N   UNL     1       8.714   5.517  -3.548  0.00  0.00    -0.327 N 
ATOM     14  C   UNL     1      12.652   4.065  -2.678  0.00  0.00    +0.216 C 
ATOM     16  C   UNL     1      11.058   5.159  -4.211  0.00  0.00    +0.126 C 
ATOM     17  C   UNL     1      10.311   4.614  -1.903  0.00  0.00    +0.126 C 
ATOM     18  C   UNL     1       9.590   4.951  -4.577  0.00  0.00    +0.124 C 
ATOM     19  C   UNL     1       9.249   5.675  -2.194  0.00  0.00    +0.124 C 
BRANCH   5  21
ATOM     21  C   UNL     1       7.420   5.927  -3.862  0.00  0.00    +0.030 A 
ATOM     23  C   UNL     1       6.698   6.709  -2.960  0.00  0.00    +0.023 A 
ATOM     24  C   UNL     1       6.847   5.557  -5.078  0.00  0.00    +0.023 A 
ATOM     26  C   UNL     1       5.403   7.119  -3.273  0.00  0.00    +0.002 A 
ATOM     27  C   UNL     1       5.551   5.967  -5.392  0.00  0.00    +0.002 A 
ATOM     28  C   UNL     1       4.830   6.749  -4.490  0.00  0.00    +0.000 A 
ENDBRANCH   5  21
ENDBRANCH  11  14
ENDBRANCH   7  11
BRANCH   8  13
ATOM     13  C   UNL     1      11.599   3.862   1.413  0.00  0.00    +0.064 C 
BRANCH  13  15
ATOM      2  O   UNL     1       9.757   6.425   3.145  0.00  0.00    -0.354 OA
ATOM      6  N   UNL     1      10.254   5.837   1.989  0.00  0.00    -0.083 NA
ATOM     15  C   UNL     1      10.918   4.756   2.409  0.00  0.00    +0.085 A 
ATOM     20  C   UNL     1      10.874   4.613   3.807  0.00  0.00    +0.076 A 
ATOM     22  C   UNL     1      10.132   5.687   4.220  0.00  0.00    +0.167 A 
BRANCH  22  25
ATOM     25  C   UNL     1       9.689   6.175   5.494  0.00  0.00    +0.020 A 
ATOM     29  C   UNL     1       9.820   5.377   6.631  0.00  0.00    +0.011 A 
ATOM     30  C   UNL     1       9.128   7.448   5.597  0.00  0.00    +0.011 A 
ATOM     31  C   UNL     1       9.389   5.852   7.870  0.00  0.00    +0.001 A 
ATOM     32  C   UNL     1       8.696   7.923   6.835  0.00  0.00    +0.001 A 
ATOM     33  C   UNL     1       8.827   7.124   7.972  0.00  0.00    +0.000 A 
ENDBRANCH  22  25
ENDBRANCH  13  15
ENDBRANCH   8  13
TORSDOF 6
ENDMDL
MODEL 7
REMARK VINA RESULT:      -6.8      1.978      9.071
REMARK  Name = 40777502
REMARK  6 active torsions:
REMARK  status: ('A' for Active; 'I' for Inactive)
REMARK    1  A    between atoms: N_5  and  C_21
REMARK    2  A    between atoms: C_7  and  C_11
REMARK    3  A    between atoms: C_8  and  C_13
REMARK    4  A    between atoms: C_11  and  C_14
REMARK    5  A    between atoms: C_13  and  C_15
REMARK    6  A    between atoms: C_22  and  C_25
REMARK                            x       y       z     vdW  Elec       q    Type
REMARK                         _______ _______ _______ _____ _____    ______ ____
ROOT
ATOM      3  N   UNL     1     -13.503 -13.125  18.123  0.00  0.00    -0.316 NA
ATOM      7  C   UNL     1     -11.669 -10.910  17.464  0.00  0.00    +0.004 C 
ATOM      8  C   UNL     1     -11.409 -11.892  18.631  0.00  0.00    +0.012 C 
ATOM      9  C   UNL     1     -12.570 -11.595  16.423  0.00  0.00    +0.019 C 
ATOM     10  C   UNL     1     -12.719 -12.483  19.179  0.00  0.00    +0.085 C 
ATOM     12  C   UNL     1     -13.831 -12.193  17.047  0.00  0.00    +0.081 C 
ATOM     34  H   UNL     1     -14.365 -13.496  18.523  0.00  0.00    +0.122 HD
ENDROOT
BRANCH   7  11
ATOM     11  C   UNL     1     -12.264  -9.566  17.900  0.00  0.00    +0.100 C 
BRANCH  11  14
ATOM      1  O   UNL     1     -10.215  -8.367  17.942  0.00  0.00    -0.276 OA
ATOM      4  N   UNL     1     -11.888  -7.522  16.570  0.00  0.00    -0.298 N 
ATOM      5  N   UNL     1     -12.816  -5.693  14.526  0.00  0.00    -0.327 N 
ATOM     14  C   UNL     1     -11.355  -8.437  17.479  0.00  0.00    +0.216 C 
ATOM     16  C   UNL     1     -11.073  -6.399  16.116  0.00  0.00    +0.126 C 
ATOM     17  C   UNL     1     -13.240  -7.613  16.011  0.00  0.00    +0.126 C 
ATOM     18  C   UNL     1     -11.391  -6.006  14.676  0.00  0.00    +0.124 C 
ATOM     19  C   UNL     1     -13.756  -6.272  15.489  0.00  0.00    +0.124 C 
BRANCH   5  21
ATOM     21  C   UNL     1     -13.254  -4.838  13.518  0.00  0.00    +0.030 A 
ATOM     23  C   UNL     1     -12.327  -4.156  12.730  0.00  0.00    +0.023 A 
ATOM     24  C   UNL     1     -14.619  -4.665  13.295  0.00  0.00    +0.023 A 
ATOM     26  C   UNL     1     -12.765  -3.299  11.721  0.00  0.00    +0.002 A 
ATOM     27  C   UNL     1     -15.059  -3.809  12.286  0.00  0.00    +0.002 A 
ATOM     28  C   UNL     1     -14.131  -3.126  11.498  0.00  0.00    +0.000 A 
ENDBRANCH   5  21
ENDBRANCH  11  14
ENDBRANCH   7  11
BRANCH   8  13
ATOM     13  C   UNL     1     -10.584 -11.273  19.761  0.00  0.00    +0.064 C 
BRANCH  13  15
ATOM      2  O   UNL     1      -7.176 -12.434  19.828  0.00  0.00    -0.354 OA
ATOM      6  N   UNL     1      -8.500 -12.485  20.244  0.00  0.00    -0.083 NA
ATOM     15  C   UNL     1      -9.115 -11.515  19.561  0.00  0.00    +0.085 A 
ATOM     20  C   UNL     1      -8.237 -10.824  18.707  0.00  0.00    +0.076 A 
ATOM     22  C   UNL     1      -7.032 -11.442  18.913  0.00  0.00    +0.167 A 
BRANCH  22  25
ATOM     25  C   UNL     1      -5.708 -11.268  18.389  0.00  0.00    +0.020 A 
ATOM     29  C   UNL     1      -5.504 -10.479  17.256  0.00  0.00    +0.011 A 
ATOM     30  C   UNL     1      -4.625 -11.886  19.012  0.00  0.00    +0.011 A 
ATOM     31  C   UNL     1      -4.217 -10.310  16.747  0.00  0.00    +0.001 A 
ATOM     32  C   UNL     1      -3.337 -11.718  18.502  0.00  0.00    +0.001 A 
ATOM     33  C   UNL     1      -3.134 -10.930  17.370  0.00  0.00    +0.000 A 
ENDBRANCH  22  25
ENDBRANCH  13  15
ENDBRANCH   8  13
TORSDOF 6
ENDMDL
MODEL 8
REMARK VINA RESULT:      -6.8     26.718     30.807
REMARK  Name = 40777502
REMARK  6 active torsions:
REMARK  status: ('A' for Active; 'I' for Inactive)
REMARK    1  A    between atoms: N_5  and  C_21
REMARK    2  A    between atoms: C_7  and  C_11
REMARK    3  A    between atoms: C_8  and  C_13
REMARK    4  A    between atoms: C_11  and  C_14
REMARK    5  A    between atoms: C_13  and  C_15
REMARK    6  A    between atoms: C_22  and  C_25
REMARK                            x       y       z     vdW  Elec       q    Type
REMARK                         _______ _______ _______ _____ _____    ______ ____
ROOT
ATOM      3  N   UNL     1       7.841   6.445   5.501  0.00  0.00    -0.316 NA
ATOM      7  C   UNL     1       9.958   7.395   3.680  0.00  0.00    +0.004 C 
ATOM      8  C   UNL     1       9.752   5.899   4.014  0.00  0.00    +0.012 C 
ATOM      9  C   UNL     1       8.632   8.144   3.893  0.00  0.00    +0.019 C 
ATOM     10  C   UNL     1       9.102   5.709   5.395  0.00  0.00    +0.085 C 
ATOM     12  C   UNL     1       8.026   7.876   5.269  0.00  0.00    +0.081 C 
ATOM     34  H   UNL     1       7.446   6.302   6.431  0.00  0.00    +0.122 HD
ENDROOT
BRANCH   7  11
ATOM     11  C   UNL     1      11.093   8.060   4.468  0.00  0.00    +0.100 C 
BRANCH  11  14
ATOM      1  O   UNL     1      11.687   9.289   2.525  0.00  0.00    -0.276 OA
ATOM      4  N   UNL     1      13.436   8.507   3.839  0.00  0.00    -0.298 N 
ATOM      5  N   UNL     1      16.248   8.398   4.523  0.00  0.00    -0.327 N 
ATOM     14  C   UNL     1      12.089   8.679   3.518  0.00  0.00    +0.216 C 
ATOM     16  C   UNL     1      14.463   9.073   2.967  0.00  0.00    +0.126 C 
ATOM     17  C   UNL     1      13.913   7.791   5.025  0.00  0.00    +0.126 C 
ATOM     18  C   UNL     1      15.697   9.515   3.749  0.00  0.00    +0.124 C 
ATOM     19  C   UNL     1      15.352   7.295   4.880  0.00  0.00    +0.124 C 
BRANCH   5  21
ATOM     21  C   UNL     1      17.595   8.372   4.876  0.00  0.00    +0.030 A 
ATOM     23  C   UNL     1      17.989   8.774   6.152  0.00  0.00    +0.023 A 
ATOM     24  C   UNL     1      18.549   7.944   3.954  0.00  0.00    +0.023 A 
ATOM     26  C   UNL     1      19.337   8.749   6.506  0.00  0.00    +0.002 A 
ATOM     27  C   UNL     1      19.898   7.919   4.307  0.00  0.00    +0.002 A 
ATOM     28  C   UNL     1      20.292   8.321   5.584  0.00  0.00    +0.000 A 
ENDBRANCH   5  21
ENDBRANCH  11  14
ENDBRANCH   7  11
BRANCH   8  13
ATOM     13  C   UNL     1      11.039   5.079   3.909  0.00  0.00    +0.064 C 
BRANCH  13  15
ATOM      2  O   UNL     1      12.662   4.987   0.697  0.00  0.00    -0.354 OA
ATOM      6  N   UNL     1      12.609   5.348   2.037  0.00  0.00    -0.083 NA
ATOM     15  C   UNL     1      11.441   4.872   2.477  0.00  0.00    +0.085 A 
ATOM     20  C   UNL     1      10.721   4.208   1.468  0.00  0.00    +0.076 A 
ATOM     22  C   UNL     1      11.533   4.309   0.370  0.00  0.00    +0.167 A 
BRANCH  22  25
ATOM     25  C   UNL     1      11.445   3.868  -0.992  0.00  0.00    +0.020 A 
ATOM     29  C   UNL     1      12.334   2.907  -1.474  0.00  0.00    +0.011 A 
ATOM     30  C   UNL     1      10.470   4.400  -1.835  0.00  0.00    +0.011 A 
ATOM     31  C   UNL     1      12.247   2.478  -2.799  0.00  0.00    +0.001 A 
ATOM     32  C   UNL     1      10.384   3.973  -3.161  0.00  0.00    +0.001 A 
ATOM     33  C   UNL     1      11.273   3.012  -3.641  0.00  0.00    +0.000 A 
ENDBRANCH  22  25
ENDBRANCH  13  15
ENDBRANCH   8  13
TORSDOF 6
ENDMDL
MODEL 9
REMARK VINA RESULT:      -6.7     27.583     30.397
REMARK  Name = 40777502
REMARK  6 active torsions:
REMARK  status: ('A' for Active; 'I' for Inactive)
REMARK    1  A    between atoms: N_5  and  C_21
REMARK    2  A    between atoms: C_7  and  C_11
REMARK    3  A    between atoms: C_8  and  C_13
REMARK    4  A    between atoms: C_11  and  C_14
REMARK    5  A    between atoms: C_13  and  C_15
REMARK    6  A    between atoms: C_22  and  C_25
REMARK                            x       y       z     vdW  Elec       q    Type
REMARK                         _______ _______ _______ _____ _____    ______ ____
ROOT
ATOM      3  N   UNL     1      15.552   3.779   1.430  0.00  0.00    -0.316 NA
ATOM      7  C   UNL     1      13.319   4.585  -0.322  0.00  0.00    +0.004 C 
ATOM      8  C   UNL     1      13.125   4.239   1.173  0.00  0.00    +0.012 C 
ATOM      9  C   UNL     1      14.772   5.035  -0.549  0.00  0.00    +0.019 C 
ATOM     10  C   UNL     1      14.204   3.263   1.675  0.00  0.00    +0.085 C 
ATOM     12  C   UNL     1      15.785   4.037   0.011  0.00  0.00    +0.081 C 
ATOM     34  H   UNL     1      16.237   3.102   1.767  0.00  0.00    +0.122 HD
ENDROOT
BRANCH   7  11
ATOM     11  C   UNL     1      12.943   3.448  -1.279  0.00  0.00    +0.100 C 
BRANCH  11  14
ATOM      1  O   UNL     1      13.504   3.952  -3.531  0.00  0.00    -0.276 OA
ATOM      4  N   UNL     1      11.375   4.559  -2.826  0.00  0.00    -0.298 N 
ATOM      5  N   UNL     1       8.703   5.535  -3.365  0.00  0.00    -0.327 N 
ATOM     14  C   UNL     1      12.643   4.004  -2.650  0.00  0.00    +0.216 C 
ATOM     16  C   UNL     1      11.009   5.121  -4.124  0.00  0.00    +0.126 C 
ATOM     17  C   UNL     1      10.349   4.610  -1.782  0.00  0.00    +0.126 C 
ATOM     18  C   UNL     1       9.523   4.942  -4.426  0.00  0.00    +0.124 C 
ATOM     19  C   UNL     1       9.299   5.692  -2.036  0.00  0.00    +0.124 C 
BRANCH   5  21
ATOM     21  C   UNL     1       7.407   5.971  -3.628  0.00  0.00    +0.030 A 
ATOM     23  C   UNL     1       6.740   5.527  -4.770  0.00  0.00    +0.023 A 
ATOM     24  C   UNL     1       6.774   6.849  -2.749  0.00  0.00    +0.023 A 
ATOM     26  C   UNL     1       5.442   5.963  -5.034  0.00  0.00    +0.002 A 
ATOM     27  C   UNL     1       5.476   7.285  -3.012  0.00  0.00    +0.002 A 
ATOM     28  C   UNL     1       4.809   6.841  -4.154  0.00  0.00    +0.000 A 
ENDBRANCH   5  21
ENDBRANCH  11  14
ENDBRANCH   7  11
BRANCH   8  13
ATOM     13  C   UNL     1      11.728   3.703   1.488  0.00  0.00    +0.064 C 
BRANCH  13  15
ATOM      2  O   UNL     1      10.022   5.578   4.044  0.00  0.00    -0.354 OA
ATOM      6  N   UNL     1      10.799   4.510   3.616  0.00  0.00    -0.083 NA
ATOM     15  C   UNL     1      10.934   4.687   2.298  0.00  0.00    +0.085 A 
ATOM     20  C   UNL     1      10.269   5.839   1.843  0.00  0.00    +0.076 A 
ATOM     22  C   UNL     1       9.713   6.363   2.980  0.00  0.00    +0.167 A 
BRANCH  22  25
ATOM     25  C   UNL     1       8.908   7.514   3.270  0.00  0.00    +0.020 A 
ATOM     29  C   UNL     1       8.448   8.323   2.231  0.00  0.00    +0.011 A 
ATOM     30  C   UNL     1       8.584   7.824   4.590  0.00  0.00    +0.011 A 
ATOM     31  C   UNL     1       7.665   9.443   2.513  0.00  0.00    +0.001 A 
ATOM     32  C   UNL     1       7.802   8.944   4.873  0.00  0.00    +0.001 A 
ATOM     33  C   UNL     1       7.342   9.753   3.834  0.00  0.00    +0.000 A 
ENDBRANCH  22  25
ENDBRANCH  13  15
ENDBRANCH   8  13
TORSDOF 6
ENDMDL
MODEL 10
REMARK VINA RESULT:      -6.6     27.658     31.169
REMARK  Name = 40777502
REMARK  6 active torsions:
REMARK  status: ('A' for Active; 'I' for Inactive)
REMARK    1  A    between atoms: N_5  and  C_21
REMARK    2  A    between atoms: C_7  and  C_11
REMARK    3  A    between atoms: C_8  and  C_13
REMARK    4  A    between atoms: C_11  and  C_14
REMARK    5  A    between atoms: C_13  and  C_15
REMARK    6  A    between atoms: C_22  and  C_25
REMARK                            x       y       z     vdW  Elec       q    Type
REMARK                         _______ _______ _______ _____ _____    ______ ____
ROOT
ATOM      3  N   UNL     1       8.765   9.331   7.098  0.00  0.00    -0.316 NA
ATOM      7  C   UNL     1      11.457   9.679   5.942  0.00  0.00    +0.004 C 
ATOM      8  C   UNL     1      10.732   8.313   5.975  0.00  0.00    +0.012 C 
ATOM      9  C   UNL     1      10.410  10.805   5.992  0.00  0.00    +0.019 C 
ATOM     10  C   UNL     1       9.729   8.230   7.138  0.00  0.00    +0.085 C 
ATOM     12  C   UNL     1       9.425  10.634   7.148  0.00  0.00    +0.081 C 
ATOM     34  H   UNL     1       8.124   9.247   7.887  0.00  0.00    +0.122 HD
ENDROOT
BRANCH   7  11
ATOM     11  C   UNL     1      12.503   9.857   7.049  0.00  0.00    +0.100 C 
BRANCH  11  14
ATOM      1  O   UNL     1      13.401  11.978   6.472  0.00  0.00    -0.276 OA
ATOM      4  N   UNL     1      14.825  10.154   6.270  0.00  0.00    -0.298 N 
ATOM      5  N   UNL     1      17.450   9.018   5.822  0.00  0.00    -0.327 N 
ATOM     14  C   UNL     1      13.609  10.767   6.574  0.00  0.00    +0.216 C 
ATOM     16  C   UNL     1      15.945  10.966   5.801  0.00  0.00    +0.126 C 
ATOM     17  C   UNL     1      15.075   8.716   6.404  0.00  0.00    +0.126 C 
ATOM     18  C   UNL     1      17.289  10.407   6.260  0.00  0.00    +0.124 C 
ATOM     19  C   UNL     1      16.244   8.236   5.543  0.00  0.00    +0.124 C 
BRANCH   5  21
ATOM     21  C   UNL     1      18.719   8.471   5.642  0.00  0.00    +0.030 A 
ATOM     23  C   UNL     1      19.628   8.456   6.700  0.00  0.00    +0.023 A 
ATOM     24  C   UNL     1      19.079   7.938   4.406  0.00  0.00    +0.023 A 
ATOM     26  C   UNL     1      20.898   7.910   6.521  0.00  0.00    +0.002 A 
ATOM     27  C   UNL     1      20.350   7.391   4.226  0.00  0.00    +0.002 A 
ATOM     28  C   UNL     1      21.259   7.376   5.284  0.00  0.00    +0.000 A 
ENDBRANCH   5  21
ENDBRANCH  11  14
ENDBRANCH   7  11
BRANCH   8  13
ATOM     13  C   UNL     1      11.694   7.125   6.009  0.00  0.00    +0.064 C 
BRANCH  13  15
ATOM      2  O   UNL     1      10.621   4.563   3.719  0.00  0.00    -0.354 OA
ATOM      6  N   UNL     1      10.583   5.206   4.950  0.00  0.00    -0.083 NA
ATOM     15  C   UNL     1      11.466   6.203   4.846  0.00  0.00    +0.085 A 
ATOM     20  C   UNL     1      12.087   6.237   3.585  0.00  0.00    +0.076 A 
ATOM     22  C   UNL     1      11.520   5.186   2.915  0.00  0.00    +0.167 A 
BRANCH  22  25
ATOM     25  C   UNL     1      11.670   4.629   1.602  0.00  0.00    +0.020 A 
ATOM     29  C   UNL     1      12.804   3.880   1.287  0.00  0.00    +0.011 A 
ATOM     30  C   UNL     1      10.682   4.836   0.640  0.00  0.00    +0.011 A 
ATOM     31  C   UNL     1      12.949   3.339   0.009  0.00  0.00    +0.001 A 
ATOM     32  C   UNL     1      10.827   4.296  -0.638  0.00  0.00    +0.001 A 
ATOM     33  C   UNL     1      11.961   3.547  -0.952  0.00  0.00    +0.000 A 
ENDBRANCH  22  25
ENDBRANCH  13  15
ENDBRANCH   8  13
TORSDOF 6
ENDMDL
