MODEL 1
REMARK VINA RESULT:      -7.0      0.000      0.000
REMARK  Name = 45361414
REMARK  13 active torsions:
REMARK  status: ('A' for Active; 'I' for Inactive)
REMARK    1  A    between atoms: O_1  and  C_9
REMARK    2  A    between atoms: N_4  and  C_13
REMARK    3  A    between atoms: N_5  and  C_22
REMARK    4  A    between atoms: C_6  and  C_16
REMARK    5  A    between atoms: C_8  and  C_18
REMARK    6  A    between atoms: C_11  and  C_17
REMARK    7  A    between atoms: C_17  and  C_19
REMARK    8  A    between atoms: C_17  and  C_20
REMARK    9  A    between atoms: C_21  and  C_23
REMARK   10  A    between atoms: C_23  and  C_24
REMARK   11  A    between atoms: C_24  and  C_30
REMARK   12  A    between atoms: C_24  and  C_31
REMARK   13  A    between atoms: C_24  and  C_32
REMARK                            x       y       z     vdW  Elec       q    Type
REMARK                         _______ _______ _______ _____ _____    ______ ____
ROOT
ATOM      6  C   UNL     1      -3.592 -10.588  10.628  0.00  0.00    -0.027 C 
ATOM      7  C   UNL     1      -4.898 -10.318  11.445  0.00  0.00    +0.028 C 
ATOM      8  C   UNL     1      -5.726  -9.147  10.803  0.00  0.00    +0.012 C 
ATOM      9  C   UNL     1      -4.594 -10.166  12.963  0.00  0.00    +0.122 C 
ATOM     10  C   UNL     1      -2.859 -11.817  11.219  0.00  0.00    +0.007 C 
ATOM     11  C   UNL     1      -3.771 -11.349  13.526  0.00  0.00    +0.029 C 
ATOM     12  C   UNL     1      -3.970 -10.923   9.168  0.00  0.00    +0.009 C 
ATOM     13  C   UNL     1      -6.036  -9.462   9.313  0.00  0.00    +0.076 C 
ATOM     14  C   UNL     1      -2.524 -11.656  12.696  0.00  0.00    +0.007 C 
ATOM     15  C   UNL     1      -4.797  -9.835   8.499  0.00  0.00    +0.023 C 
ATOM     16  C   UNL     1      -2.623  -9.379  10.640  0.00  0.00    +0.011 C 
ATOM     18  C   UNL     1      -7.042  -8.847  11.541  0.00  0.00    +0.010 C 
ENDROOT
BRANCH  13   4
ATOM      3  O   UNL     1      -8.140  -9.596   7.327  0.00  0.00    -0.276 OA
ATOM      4  N   UNL     1      -6.698  -8.353   8.658  0.00  0.00    -0.312 N 
ATOM     21  C   UNL     1      -7.698  -8.518   7.716  0.00  0.00    +0.214 C 
ATOM     33  H   UNL     1      -6.379  -7.415   8.883  0.00  0.00    +0.149 HD
BRANCH  21  23
ATOM     23  C   UNL     1      -8.224  -7.199   7.172  0.00  0.00    +0.102 C 
BRANCH  23  24
ATOM     24  C   UNL     1      -9.445  -6.627   7.932  0.00  0.00    -0.029 C 
ATOM     30  C   UNL     1      -9.852  -7.533   9.105  0.00  0.00    +0.011 C 
ATOM     31  C   UNL     1     -10.626  -6.549   6.945  0.00  0.00    +0.011 C 
ATOM     32  C   UNL     1      -9.156  -5.212   8.459  0.00  0.00    +0.011 C 
ENDBRANCH  23  24
ENDBRANCH  21  23
ENDBRANCH  13   4
BRANCH   9   1
ATOM      1  O   UNL     1      -5.820 -10.138  13.696  0.00  0.00    -0.391 OA
ATOM     34  H   UNL     1      -6.459  -9.603  13.196  0.00  0.00    +0.210 HD
ENDBRANCH   9   1
BRANCH  11  17
ATOM     17  C   UNL     1      -3.370 -11.119  14.988  0.00  0.00    +0.077 C 
ATOM     19  C   UNL     1      -1.852 -11.145  15.126  0.00  0.00    +0.017 C 
BRANCH  17  20
ATOM      2  O   UNL     1      -4.146 -13.346  15.542  0.00  0.00    -0.276 OA
ATOM      5  N   UNL     1      -4.464 -11.644  17.086  0.00  0.00    -0.312 N 
ATOM     20  C   UNL     1      -4.027 -12.169  15.879  0.00  0.00    +0.216 C 
ATOM     35  H   UNL     1      -4.307 -10.663  17.289  0.00  0.00    +0.149 HD
BRANCH   5  22
ATOM     22  C   UNL     1      -5.120 -12.445  18.095  0.00  0.00    +0.073 C 
ATOM     25  C   UNL     1      -5.108 -11.737  19.454  0.00  0.00    +0.022 C 
ATOM     26  C   UNL     1      -6.549 -12.806  17.671  0.00  0.00    +0.022 C 
ATOM     27  C   UNL     1      -6.055 -10.538  19.498  0.00  0.00    +0.002 C 
ATOM     28  C   UNL     1      -7.493 -11.605  17.718  0.00  0.00    +0.002 C 
ATOM     29  C   UNL     1      -7.471 -10.924  19.082  0.00  0.00    +0.000 C 
ENDBRANCH   5  22
ENDBRANCH  17  20
ENDBRANCH  11  17
TORSDOF 7
ENDMDL
MODEL 2
REMARK VINA RESULT:      -6.7      2.999      7.870
REMARK  Name = 45361414
REMARK  13 active torsions:
REMARK  status: ('A' for Active; 'I' for Inactive)
REMARK    1  A    between atoms: O_1  and  C_9
REMARK    2  A    between atoms: N_4  and  C_13
REMARK    3  A    between atoms: N_5  and  C_22
REMARK    4  A    between atoms: C_6  and  C_16
REMARK    5  A    between atoms: C_8  and  C_18
REMARK    6  A    between atoms: C_11  and  C_17
REMARK    7  A    between atoms: C_17  and  C_19
REMARK    8  A    between atoms: C_17  and  C_20
REMARK    9  A    between atoms: C_21  and  C_23
REMARK   10  A    between atoms: C_23  and  C_24
REMARK   11  A    between atoms: C_24  and  C_30
REMARK   12  A    between atoms: C_24  and  C_31
REMARK   13  A    between atoms: C_24  and  C_32
REMARK                            x       y       z     vdW  Elec       q    Type
REMARK                         _______ _______ _______ _____ _____    ______ ____
ROOT
ATOM      6  C   UNL     1      -4.696 -11.018  16.982  0.00  0.00    -0.027 C 
ATOM      7  C   UNL     1      -5.551 -10.424  15.814  0.00  0.00    +0.028 C 
ATOM      8  C   UNL     1      -7.086 -10.576  16.113  0.00  0.00    +0.012 C 
ATOM      9  C   UNL     1      -5.081 -10.970  14.435  0.00  0.00    +0.122 C 
ATOM     10  C   UNL     1      -3.196 -10.751  16.711  0.00  0.00    +0.007 C 
ATOM     11  C   UNL     1      -3.560 -10.794  14.213  0.00  0.00    +0.029 C 
ATOM     12  C   UNL     1      -5.071 -10.300  18.298  0.00  0.00    +0.009 C 
ATOM     13  C   UNL     1      -7.437  -9.915  17.475  0.00  0.00    +0.076 C 
ATOM     14  C   UNL     1      -2.722 -11.319  15.379  0.00  0.00    +0.007 C 
ATOM     15  C   UNL     1      -6.554 -10.391  18.628  0.00  0.00    +0.023 C 
ATOM     16  C   UNL     1      -4.906 -12.543  17.155  0.00  0.00    +0.011 C 
ATOM     18  C   UNL     1      -7.988  -9.984  15.015  0.00  0.00    +0.010 C 
ENDROOT
BRANCH  13   4
ATOM      3  O   UNL     1      -9.591  -7.978  17.458  0.00  0.00    -0.276 OA
ATOM      4  N   UNL     1      -8.822 -10.137  17.837  0.00  0.00    -0.312 N 
ATOM     21  C   UNL     1      -9.783  -9.143  17.796  0.00  0.00    +0.214 C 
ATOM     33  H   UNL     1      -9.079 -11.062  18.167  0.00  0.00    +0.149 HD
BRANCH  21  23
ATOM     23  C   UNL     1     -11.156  -9.629  18.231  0.00  0.00    +0.102 C 
BRANCH  23  24
ATOM     24  C   UNL     1     -12.185  -9.770  17.084  0.00  0.00    -0.029 C 
ATOM     30  C   UNL     1     -12.815  -8.415  16.723  0.00  0.00    +0.011 C 
ATOM     31  C   UNL     1     -13.305 -10.715  17.562  0.00  0.00    +0.011 C 
ATOM     32  C   UNL     1     -11.537 -10.379  15.830  0.00  0.00    +0.011 C 
ENDBRANCH  23  24
ENDBRANCH  21  23
ENDBRANCH  13   4
BRANCH   9   1
ATOM      1  O   UNL     1      -5.732 -10.248  13.389  0.00  0.00    -0.391 OA
ATOM     34  H   UNL     1      -5.088  -9.633  12.999  0.00  0.00    +0.210 HD
ENDBRANCH   9   1
BRANCH  11  17
ATOM     17  C   UNL     1      -3.096 -11.454  12.910  0.00  0.00    +0.077 C 
ATOM     19  C   UNL     1      -1.844 -12.287  13.160  0.00  0.00    +0.017 C 
BRANCH  17  20
ATOM      2  O   UNL     1      -1.736  -9.922  11.618  0.00  0.00    -0.276 OA
ATOM      5  N   UNL     1      -4.013 -10.019  11.185  0.00  0.00    -0.312 N 
ATOM     20  C   UNL     1      -2.850 -10.388  11.845  0.00  0.00    +0.216 C 
ATOM     35  H   UNL     1      -4.888 -10.472  11.425  0.00  0.00    +0.149 HD
BRANCH   5  22
ATOM     22  C   UNL     1      -4.034  -9.025  10.135  0.00  0.00    +0.073 C 
ATOM     25  C   UNL     1      -4.082  -9.684   8.752  0.00  0.00    +0.022 C 
ATOM     26  C   UNL     1      -5.200  -8.048  10.325  0.00  0.00    +0.022 C 
ATOM     27  C   UNL     1      -5.439 -10.323   8.455  0.00  0.00    +0.002 C 
ATOM     28  C   UNL     1      -6.555  -8.689  10.025  0.00  0.00    +0.002 C 
ATOM     29  C   UNL     1      -6.581  -9.329   8.641  0.00  0.00    +0.000 C 
ENDBRANCH   5  22
ENDBRANCH  17  20
ENDBRANCH  11  17
TORSDOF 7
ENDMDL
MODEL 3
REMARK VINA RESULT:      -6.7     23.259     26.977
REMARK  Name = 45361414
REMARK  13 active torsions:
REMARK  status: ('A' for Active; 'I' for Inactive)
REMARK    1  A    between atoms: O_1  and  C_9
REMARK    2  A    between atoms: N_4  and  C_13
REMARK    3  A    between atoms: N_5  and  C_22
REMARK    4  A    between atoms: C_6  and  C_16
REMARK    5  A    between atoms: C_8  and  C_18
REMARK    6  A    between atoms: C_11  and  C_17
REMARK    7  A    between atoms: C_17  and  C_19
REMARK    8  A    between atoms: C_17  and  C_20
REMARK    9  A    between atoms: C_21  and  C_23
REMARK   10  A    between atoms: C_23  and  C_24
REMARK   11  A    between atoms: C_24  and  C_30
REMARK   12  A    between atoms: C_24  and  C_31
REMARK   13  A    between atoms: C_24  and  C_32
REMARK                            x       y       z     vdW  Elec       q    Type
REMARK                         _______ _______ _______ _____ _____    ______ ____
ROOT
ATOM      6  C   UNL     1      13.667   5.072   0.831  0.00  0.00    -0.027 C 
ATOM      7  C   UNL     1      12.109   5.100   0.972  0.00  0.00    +0.028 C 
ATOM      8  C   UNL     1      11.685   5.079   2.485  0.00  0.00    +0.012 C 
ATOM      9  C   UNL     1      11.441   4.019   0.076  0.00  0.00    +0.122 C 
ATOM     10  C   UNL     1      14.052   5.209  -0.662  0.00  0.00    +0.007 C 
ATOM     11  C   UNL     1      11.909   4.094  -1.397  0.00  0.00    +0.029 C 
ATOM     12  C   UNL     1      14.264   6.283   1.583  0.00  0.00    +0.009 C 
ATOM     13  C   UNL     1      12.352   6.258   3.247  0.00  0.00    +0.076 C 
ATOM     14  C   UNL     1      13.431   4.128  -1.537  0.00  0.00    +0.007 C 
ATOM     15  C   UNL     1      13.866   6.331   3.051  0.00  0.00    +0.023 C 
ATOM     16  C   UNL     1      14.290   3.767   1.387  0.00  0.00    +0.011 C 
ATOM     18  C   UNL     1      10.163   5.135   2.698  0.00  0.00    +0.010 C 
ENDROOT
BRANCH  13   4
ATOM      3  O   UNL     1      10.925   8.213   4.839  0.00  0.00    -0.276 OA
ATOM      4  N   UNL     1      12.076   6.202   4.668  0.00  0.00    -0.312 N 
ATOM     21  C   UNL     1      11.383   7.190   5.344  0.00  0.00    +0.214 C 
ATOM     33  H   UNL     1      12.445   5.411   5.187  0.00  0.00    +0.149 HD
BRANCH  21  23
ATOM     23  C   UNL     1      11.233   6.900   6.828  0.00  0.00    +0.102 C 
BRANCH  23  24
ATOM     24  C   UNL     1       9.812   6.466   7.261  0.00  0.00    -0.029 C 
ATOM     30  C   UNL     1       9.039   5.826   6.097  0.00  0.00    +0.011 C 
ATOM     31  C   UNL     1       9.048   7.725   7.718  0.00  0.00    +0.011 C 
ATOM     32  C   UNL     1       9.868   5.478   8.438  0.00  0.00    +0.011 C 
ENDBRANCH  23  24
ENDBRANCH  21  23
ENDBRANCH  13   4
BRANCH   9   1
ATOM      1  O   UNL     1      10.026   4.216   0.064  0.00  0.00    -0.391 OA
ATOM     34  H   UNL     1       9.627   3.581   0.682  0.00  0.00    +0.210 HD
ENDBRANCH   9   1
BRANCH  11  17
ATOM     17  C   UNL     1      11.342   2.942  -2.234  0.00  0.00    +0.077 C 
ATOM     19  C   UNL     1      12.418   2.388  -3.161  0.00  0.00    +0.017 C 
BRANCH  17  20
ATOM      2  O   UNL     1       9.323   2.645  -3.538  0.00  0.00    -0.276 OA
ATOM      5  N   UNL     1      10.036   4.803  -3.075  0.00  0.00    -0.312 N 
ATOM     20  C   UNL     1      10.124   3.420  -3.019  0.00  0.00    +0.216 C 
ATOM     35  H   UNL     1      10.733   5.367  -2.600  0.00  0.00    +0.149 HD
BRANCH   5  22
ATOM     22  C   UNL     1       8.968   5.492  -3.765  0.00  0.00    +0.073 C 
ATOM     25  C   UNL     1       8.040   6.203  -2.774  0.00  0.00    +0.022 C 
ATOM     26  C   UNL     1       9.525   6.471  -4.804  0.00  0.00    +0.022 C 
ATOM     27  C   UNL     1       8.694   7.428  -2.136  0.00  0.00    +0.002 C 
ATOM     28  C   UNL     1      10.176   7.697  -4.163  0.00  0.00    +0.002 C 
ATOM     29  C   UNL     1       9.231   8.392  -3.189  0.00  0.00    +0.000 C 
ENDBRANCH   5  22
ENDBRANCH  17  20
ENDBRANCH  11  17
TORSDOF 7
ENDMDL
MODEL 4
REMARK VINA RESULT:      -6.5     28.533     31.800
REMARK  Name = 45361414
REMARK  13 active torsions:
REMARK  status: ('A' for Active; 'I' for Inactive)
REMARK    1  A    between atoms: O_1  and  C_9
REMARK    2  A    between atoms: N_4  and  C_13
REMARK    3  A    between atoms: N_5  and  C_22
REMARK    4  A    between atoms: C_6  and  C_16
REMARK    5  A    between atoms: C_8  and  C_18
REMARK    6  A    between atoms: C_11  and  C_17
REMARK    7  A    between atoms: C_17  and  C_19
REMARK    8  A    between atoms: C_17  and  C_20
REMARK    9  A    between atoms: C_21  and  C_23
REMARK   10  A    between atoms: C_23  and  C_24
REMARK   11  A    between atoms: C_24  and  C_30
REMARK   12  A    between atoms: C_24  and  C_31
REMARK   13  A    between atoms: C_24  and  C_32
REMARK                            x       y       z     vdW  Elec       q    Type
REMARK                         _______ _______ _______ _____ _____    ______ ____
ROOT
ATOM      6  C   UNL     1      15.958   7.012  19.653  0.00  0.00    -0.027 C 
ATOM      7  C   UNL     1      16.725   8.263  20.194  0.00  0.00    +0.028 C 
ATOM      8  C   UNL     1      17.836   7.838  21.220  0.00  0.00    +0.012 C 
ATOM      9  C   UNL     1      15.739   9.359  20.692  0.00  0.00    +0.122 C 
ATOM     10  C   UNL     1      14.951   7.454  18.564  0.00  0.00    +0.007 C 
ATOM     11  C   UNL     1      14.671   9.723  19.634  0.00  0.00    +0.029 C 
ATOM     12  C   UNL     1      16.968   6.045  18.996  0.00  0.00    +0.009 C 
ATOM     13  C   UNL     1      18.802   6.808  20.571  0.00  0.00    +0.076 C 
ATOM     14  C   UNL     1      13.959   8.497  19.059  0.00  0.00    +0.007 C 
ATOM     15  C   UNL     1      18.085   5.617  19.937  0.00  0.00    +0.023 C 
ATOM     16  C   UNL     1      15.185   6.262  20.768  0.00  0.00    +0.011 C 
ATOM     18  C   UNL     1      18.651   9.020  21.771  0.00  0.00    +0.010 C 
ENDROOT
BRANCH  13   4
ATOM      3  O   UNL     1      21.676   6.650  20.242  0.00  0.00    -0.276 OA
ATOM      4  N   UNL     1      19.769   6.306  21.525  0.00  0.00    -0.312 N 
ATOM     21  C   UNL     1      21.130   6.270  21.276  0.00  0.00    +0.214 C 
ATOM     33  H   UNL     1      19.416   5.933  22.401  0.00  0.00    +0.149 HD
BRANCH  21  23
ATOM     23  C   UNL     1      21.929   5.691  22.431  0.00  0.00    +0.102 C 
BRANCH  23  24
ATOM     24  C   UNL     1      22.534   4.293  22.162  0.00  0.00    -0.029 C 
ATOM     30  C   UNL     1      21.634   3.459  21.236  0.00  0.00    +0.011 C 
ATOM     31  C   UNL     1      22.656   3.558  23.512  0.00  0.00    +0.011 C 
ATOM     32  C   UNL     1      23.936   4.405  21.541  0.00  0.00    +0.011 C 
ENDBRANCH  23  24
ENDBRANCH  21  23
ENDBRANCH  13   4
BRANCH   9   1
ATOM      1  O   UNL     1      16.461  10.559  20.972  0.00  0.00    -0.391 OA
ATOM     34  H   UNL     1      17.165  10.651  20.308  0.00  0.00    +0.210 HD
ENDBRANCH   9   1
BRANCH  11  17
ATOM     17  C   UNL     1      13.632  10.705  20.189  0.00  0.00    +0.077 C 
ATOM     19  C   UNL     1      12.281  10.013  20.337  0.00  0.00    +0.017 C 
BRANCH  17  20
ATOM      2  O   UNL     1      12.778  12.868  19.512  0.00  0.00    -0.276 OA
ATOM      5  N   UNL     1      14.383  11.845  18.186  0.00  0.00    -0.312 N 
ATOM     20  C   UNL     1      13.535  11.927  19.280  0.00  0.00    +0.216 C 
ATOM     35  H   UNL     1      14.989  11.038  18.084  0.00  0.00    +0.149 HD
BRANCH   5  22
ATOM     22  C   UNL     1      14.468  12.883  17.183  0.00  0.00    +0.073 C 
ATOM     25  C   UNL     1      15.738  13.722  17.363  0.00  0.00    +0.022 C 
ATOM     26  C   UNL     1      14.390  12.292  15.770  0.00  0.00    +0.022 C 
ATOM     27  C   UNL     1      17.003  12.959  16.975  0.00  0.00    +0.002 C 
ATOM     28  C   UNL     1      15.659  11.531  15.384  0.00  0.00    +0.002 C 
ATOM     29  C   UNL     1      16.906  12.390  15.563  0.00  0.00    +0.000 C 
ENDBRANCH   5  22
ENDBRANCH  17  20
ENDBRANCH  11  17
TORSDOF 7
ENDMDL
MODEL 5
REMARK VINA RESULT:      -6.4      1.699      9.123
REMARK  Name = 45361414
REMARK  13 active torsions:
REMARK  status: ('A' for Active; 'I' for Inactive)
REMARK    1  A    between atoms: O_1  and  C_9
REMARK    2  A    between atoms: N_4  and  C_13
REMARK    3  A    between atoms: N_5  and  C_22
REMARK    4  A    between atoms: C_6  and  C_16
REMARK    5  A    between atoms: C_8  and  C_18
REMARK    6  A    between atoms: C_11  and  C_17
REMARK    7  A    between atoms: C_17  and  C_19
REMARK    8  A    between atoms: C_17  and  C_20
REMARK    9  A    between atoms: C_21  and  C_23
REMARK   10  A    between atoms: C_23  and  C_24
REMARK   11  A    between atoms: C_24  and  C_30
REMARK   12  A    between atoms: C_24  and  C_31
REMARK   13  A    between atoms: C_24  and  C_32
REMARK                            x       y       z     vdW  Elec       q    Type
REMARK                         _______ _______ _______ _____ _____    ______ ____
ROOT
ATOM      6  C   UNL     1      -4.264 -10.516  10.812  0.00  0.00    -0.027 C 
ATOM      7  C   UNL     1      -5.752 -10.136  11.110  0.00  0.00    +0.028 C 
ATOM      8  C   UNL     1      -6.246 -10.813  12.440  0.00  0.00    +0.012 C 
ATOM      9  C   UNL     1      -6.655 -10.370   9.866  0.00  0.00    +0.122 C 
ATOM     10  C   UNL     1      -3.775  -9.746   9.562  0.00  0.00    +0.007 C 
ATOM     11  C   UNL     1      -6.106  -9.683   8.594  0.00  0.00    +0.029 C 
ATOM     12  C   UNL     1      -3.383 -10.084  12.006  0.00  0.00    +0.009 C 
ATOM     13  C   UNL     1      -5.308 -10.431  13.619  0.00  0.00    +0.076 C 
ATOM     14  C   UNL     1      -4.634 -10.004   8.332  0.00  0.00    +0.007 C 
ATOM     15  C   UNL     1      -3.830 -10.689  13.329  0.00  0.00    +0.023 C 
ATOM     16  C   UNL     1      -4.078 -12.035  10.564  0.00  0.00    +0.011 C 
ATOM     18  C   UNL     1      -7.696 -10.457  12.810  0.00  0.00    +0.010 C 
ENDROOT
BRANCH  13   4
ATOM      3  O   UNL     1      -6.039  -9.261  16.166  0.00  0.00    -0.276 OA
ATOM      4  N   UNL     1      -5.666 -11.129  14.836  0.00  0.00    -0.312 N 
ATOM     21  C   UNL     1      -6.002 -10.480  16.010  0.00  0.00    +0.214 C 
ATOM     33  H   UNL     1      -5.630 -12.144  14.823  0.00  0.00    +0.149 HD
BRANCH  21  23
ATOM     23  C   UNL     1      -6.329 -11.437  17.144  0.00  0.00    +0.102 C 
BRANCH  23  24
ATOM     24  C   UNL     1      -5.099 -11.946  17.935  0.00  0.00    -0.029 C 
ATOM     30  C   UNL     1      -4.938 -13.469  17.805  0.00  0.00    +0.011 C 
ATOM     31  C   UNL     1      -5.315 -11.605  19.423  0.00  0.00    +0.011 C 
ATOM     32  C   UNL     1      -3.810 -11.257  17.459  0.00  0.00    +0.011 C 
ENDBRANCH  23  24
ENDBRANCH  21  23
ENDBRANCH  13   4
BRANCH   9   1
ATOM      1  O   UNL     1      -7.949  -9.814  10.103  0.00  0.00    -0.391 OA
ATOM     34  H   UNL     1      -8.605 -10.526  10.020  0.00  0.00    +0.210 HD
ENDBRANCH   9   1
BRANCH  11  17
ATOM     17  C   UNL     1      -6.936 -10.032   7.354  0.00  0.00    +0.077 C 
ATOM     19  C   UNL     1      -6.124 -10.913   6.410  0.00  0.00    +0.017 C 
BRANCH  17  20
ATOM      2  O   UNL     1      -7.041  -8.448   5.525  0.00  0.00    -0.276 OA
ATOM      5  N   UNL     1      -8.252  -7.999   7.452  0.00  0.00    -0.312 N 
ATOM     20  C   UNL     1      -7.399  -8.754   6.660  0.00  0.00    +0.216 C 
ATOM     35  H   UNL     1      -8.510  -8.339   8.373  0.00  0.00    +0.149 HD
BRANCH   5  22
ATOM     22  C   UNL     1      -8.821  -6.745   7.013  0.00  0.00    +0.073 C 
ATOM     25  C   UNL     1     -10.068  -6.977   6.153  0.00  0.00    +0.022 C 
ATOM     26  C   UNL     1      -9.131  -5.833   8.205  0.00  0.00    +0.022 C 
ATOM     27  C   UNL     1     -11.262  -7.467   6.972  0.00  0.00    +0.002 C 
ATOM     28  C   UNL     1     -10.327  -6.324   9.022  0.00  0.00    +0.002 C 
ATOM     29  C   UNL     1     -11.557  -6.538   8.146  0.00  0.00    +0.000 C 
ENDBRANCH   5  22
ENDBRANCH  17  20
ENDBRANCH  11  17
TORSDOF 7
ENDMDL
MODEL 6
REMARK VINA RESULT:      -6.3     25.279     29.027
REMARK  Name = 45361414
REMARK  13 active torsions:
REMARK  status: ('A' for Active; 'I' for Inactive)
REMARK    1  A    between atoms: O_1  and  C_9
REMARK    2  A    between atoms: N_4  and  C_13
REMARK    3  A    between atoms: N_5  and  C_22
REMARK    4  A    between atoms: C_6  and  C_16
REMARK    5  A    between atoms: C_8  and  C_18
REMARK    6  A    between atoms: C_11  and  C_17
REMARK    7  A    between atoms: C_17  and  C_19
REMARK    8  A    between atoms: C_17  and  C_20
REMARK    9  A    between atoms: C_21  and  C_23
REMARK   10  A    between atoms: C_23  and  C_24
REMARK   11  A    between atoms: C_24  and  C_30
REMARK   12  A    between atoms: C_24  and  C_31
REMARK   13  A    between atoms: C_24  and  C_32
REMARK                            x       y       z     vdW  Elec       q    Type
REMARK                         _______ _______ _______ _____ _____    ______ ____
ROOT
ATOM      6  C   UNL     1      16.785  -3.510  30.675  0.00  0.00    -0.027 C 
ATOM      7  C   UNL     1      16.606  -4.326  29.351  0.00  0.00    +0.028 C 
ATOM      8  C   UNL     1      16.002  -5.745  29.647  0.00  0.00    +0.012 C 
ATOM      9  C   UNL     1      17.910  -4.318  28.502  0.00  0.00    +0.122 C 
ATOM     10  C   UNL     1      17.274  -2.081  30.338  0.00  0.00    +0.007 C 
ATOM     11  C   UNL     1      18.451  -2.890  28.256  0.00  0.00    +0.029 C 
ATOM     12  C   UNL     1      15.416  -3.386  31.380  0.00  0.00    +0.009 C 
ATOM     13  C   UNL     1      14.662  -5.609  30.423  0.00  0.00    +0.076 C 
ATOM     14  C   UNL     1      18.571  -2.069  29.541  0.00  0.00    +0.007 C 
ATOM     15  C   UNL     1      14.768  -4.732  31.670  0.00  0.00    +0.023 C 
ATOM     16  C   UNL     1      17.801  -4.167  31.643  0.00  0.00    +0.011 C 
ATOM     18  C   UNL     1      15.772  -6.592  28.383  0.00  0.00    +0.010 C 
ENDROOT
BRANCH  13   4
ATOM      3  O   UNL     1      11.910  -6.501  30.281  0.00  0.00    -0.276 OA
ATOM      4  N   UNL     1      14.136  -6.900  30.814  0.00  0.00    -0.312 N 
ATOM     21  C   UNL     1      12.798  -7.236  30.708  0.00  0.00    +0.214 C 
ATOM     33  H   UNL     1      14.785  -7.570  31.216  0.00  0.00    +0.149 HD
BRANCH  21  23
ATOM     23  C   UNL     1      12.500  -8.645  31.192  0.00  0.00    +0.102 C 
BRANCH  23  24
ATOM     24  C   UNL     1      11.672  -8.719  32.497  0.00  0.00    -0.029 C 
ATOM     30  C   UNL     1      12.045  -7.586  33.465  0.00  0.00    +0.011 C 
ATOM     31  C   UNL     1      11.981 -10.066  33.182  0.00  0.00    +0.011 C 
ATOM     32  C   UNL     1      10.164  -8.659  32.201  0.00  0.00    +0.011 C 
ENDBRANCH  23  24
ENDBRANCH  21  23
ENDBRANCH  13   4
BRANCH   9   1
ATOM      1  O   UNL     1      17.645  -4.880  27.216  0.00  0.00    -0.391 OA
ATOM     34  H   UNL     1      18.369  -5.491  26.998  0.00  0.00    +0.210 HD
ENDBRANCH   9   1
BRANCH  11  17
ATOM     17  C   UNL     1      19.802  -2.910  27.532  0.00  0.00    +0.077 C 
ATOM     19  C   UNL     1      20.886  -2.316  28.426  0.00  0.00    +0.017 C 
BRANCH  17  20
ATOM      2  O   UNL     1      20.204  -1.049  26.035  0.00  0.00    -0.276 OA
ATOM      5  N   UNL     1      18.969  -2.852  25.257  0.00  0.00    -0.312 N 
ATOM     20  C   UNL     1      19.696  -2.154  26.211  0.00  0.00    +0.216 C 
ATOM     35  H   UNL     1      18.600  -3.769  25.483  0.00  0.00    +0.149 HD
BRANCH   5  22
ATOM     22  C   UNL     1      18.730  -2.338  23.926  0.00  0.00    +0.073 C 
ATOM     25  C   UNL     1      18.482  -3.478  22.932  0.00  0.00    +0.022 C 
ATOM     26  C   UNL     1      17.570  -1.336  23.922  0.00  0.00    +0.022 C 
ATOM     27  C   UNL     1      17.124  -4.149  23.139  0.00  0.00    +0.002 C 
ATOM     28  C   UNL     1      16.214  -2.010  24.126  0.00  0.00    +0.002 C 
ATOM     29  C   UNL     1      15.986  -3.133  23.120  0.00  0.00    +0.000 C 
ENDBRANCH   5  22
ENDBRANCH  17  20
ENDBRANCH  11  17
TORSDOF 7
ENDMDL
MODEL 7
REMARK VINA RESULT:      -6.3      3.566      7.980
REMARK  Name = 45361414
REMARK  13 active torsions:
REMARK  status: ('A' for Active; 'I' for Inactive)
REMARK    1  A    between atoms: O_1  and  C_9
REMARK    2  A    between atoms: N_4  and  C_13
REMARK    3  A    between atoms: N_5  and  C_22
REMARK    4  A    between atoms: C_6  and  C_16
REMARK    5  A    between atoms: C_8  and  C_18
REMARK    6  A    between atoms: C_11  and  C_17
REMARK    7  A    between atoms: C_17  and  C_19
REMARK    8  A    between atoms: C_17  and  C_20
REMARK    9  A    between atoms: C_21  and  C_23
REMARK   10  A    between atoms: C_23  and  C_24
REMARK   11  A    between atoms: C_24  and  C_30
REMARK   12  A    between atoms: C_24  and  C_31
REMARK   13  A    between atoms: C_24  and  C_32
REMARK                            x       y       z     vdW  Elec       q    Type
REMARK                         _______ _______ _______ _____ _____    ______ ____
ROOT
ATOM      6  C   UNL     1      -6.162 -11.555  18.559  0.00  0.00    -0.027 C 
ATOM      7  C   UNL     1      -6.240 -10.534  17.376  0.00  0.00    +0.028 C 
ATOM      8  C   UNL     1      -7.704 -10.442  16.813  0.00  0.00    +0.012 C 
ATOM      9  C   UNL     1      -5.134 -10.808  16.317  0.00  0.00    +0.122 C 
ATOM     10  C   UNL     1      -4.737 -11.537  19.162  0.00  0.00    +0.007 C 
ATOM     11  C   UNL     1      -3.721 -10.893  16.942  0.00  0.00    +0.029 C 
ATOM     12  C   UNL     1      -7.147 -11.120  19.667  0.00  0.00    +0.009 C 
ATOM     13  C   UNL     1      -8.697 -10.078  17.953  0.00  0.00    +0.076 C 
ATOM     14  C   UNL     1      -3.654 -11.845  18.136  0.00  0.00    +0.007 C 
ATOM     15  C   UNL     1      -8.581 -10.989  19.175  0.00  0.00    +0.023 C 
ATOM     16  C   UNL     1      -6.496 -13.002  18.116  0.00  0.00    +0.011 C 
ATOM     18  C   UNL     1      -7.860  -9.431  15.664  0.00  0.00    +0.010 C 
ENDROOT
BRANCH  13   4
ATOM      3  O   UNL     1     -10.485  -7.818  17.655  0.00  0.00    -0.276 OA
ATOM      4  N   UNL     1     -10.070 -10.099  17.494  0.00  0.00    -0.312 N 
ATOM     21  C   UNL     1     -10.849  -8.960  17.385  0.00  0.00    +0.214 C 
ATOM     33  H   UNL     1     -10.480 -11.002  17.279  0.00  0.00    +0.149 HD
BRANCH  21  23
ATOM     23  C   UNL     1     -12.256  -9.250  16.889  0.00  0.00    +0.102 C 
BRANCH  23  24
ATOM     24  C   UNL     1     -13.198  -9.878  17.944  0.00  0.00    -0.029 C 
ATOM     30  C   UNL     1     -13.389 -11.384  17.703  0.00  0.00    +0.011 C 
ATOM     31  C   UNL     1     -14.571  -9.188  17.828  0.00  0.00    +0.011 C 
ATOM     32  C   UNL     1     -12.660  -9.656  19.368  0.00  0.00    +0.011 C 
ENDBRANCH  23  24
ENDBRANCH  21  23
ENDBRANCH  13   4
BRANCH   9   1
ATOM      1  O   UNL     1      -5.099  -9.737  15.373  0.00  0.00    -0.391 OA
ATOM     34  H   UNL     1      -4.881  -8.919  15.852  0.00  0.00    +0.210 HD
ENDBRANCH   9   1
BRANCH  11  17
ATOM     17  C   UNL     1      -2.664 -11.294  15.906  0.00  0.00    +0.077 C 
ATOM     19  C   UNL     1      -1.869 -10.069  15.466  0.00  0.00    +0.017 C 
BRANCH  17  20
ATOM      2  O   UNL     1      -3.787 -13.120  14.779  0.00  0.00    -0.276 OA
ATOM      5  N   UNL     1      -3.362 -11.175  13.588  0.00  0.00    -0.312 N 
ATOM     20  C   UNL     1      -3.333 -11.979  14.718  0.00  0.00    +0.216 C 
ATOM     35  H   UNL     1      -2.980 -10.236  13.634  0.00  0.00    +0.149 HD
BRANCH   5  22
ATOM     22  C   UNL     1      -3.944 -11.606  12.336  0.00  0.00    +0.073 C 
ATOM     25  C   UNL     1      -5.303 -10.937  12.101  0.00  0.00    +0.022 C 
ATOM     26  C   UNL     1      -2.988 -11.348  11.166  0.00  0.00    +0.022 C 
ATOM     27  C   UNL     1      -5.173  -9.452  11.765  0.00  0.00    +0.002 C 
ATOM     28  C   UNL     1      -2.862  -9.861  10.831  0.00  0.00    +0.002 C 
ATOM     29  C   UNL     1      -4.225  -9.221  10.591  0.00  0.00    +0.000 C 
ENDBRANCH   5  22
ENDBRANCH  17  20
ENDBRANCH  11  17
TORSDOF 7
ENDMDL
MODEL 8
REMARK VINA RESULT:      -6.3     23.681     27.411
REMARK  Name = 45361414
REMARK  13 active torsions:
REMARK  status: ('A' for Active; 'I' for Inactive)
REMARK    1  A    between atoms: O_1  and  C_9
REMARK    2  A    between atoms: N_4  and  C_13
REMARK    3  A    between atoms: N_5  and  C_22
REMARK    4  A    between atoms: C_6  and  C_16
REMARK    5  A    between atoms: C_8  and  C_18
REMARK    6  A    between atoms: C_11  and  C_17
REMARK    7  A    between atoms: C_17  and  C_19
REMARK    8  A    between atoms: C_17  and  C_20
REMARK    9  A    between atoms: C_21  and  C_23
REMARK   10  A    between atoms: C_23  and  C_24
REMARK   11  A    between atoms: C_24  and  C_30
REMARK   12  A    between atoms: C_24  and  C_31
REMARK   13  A    between atoms: C_24  and  C_32
REMARK                            x       y       z     vdW  Elec       q    Type
REMARK                         _______ _______ _______ _____ _____    ______ ____
ROOT
ATOM      6  C   UNL     1      13.705   6.686   1.650  0.00  0.00    -0.027 C 
ATOM      7  C   UNL     1      12.701   5.551   1.259  0.00  0.00    +0.028 C 
ATOM      8  C   UNL     1      12.130   4.845   2.540  0.00  0.00    +0.012 C 
ATOM      9  C   UNL     1      13.311   4.602   0.188  0.00  0.00    +0.122 C 
ATOM     10  C   UNL     1      14.161   7.434   0.375  0.00  0.00    +0.007 C 
ATOM     11  C   UNL     1      13.860   5.365  -1.041  0.00  0.00    +0.029 C 
ATOM     12  C   UNL     1      12.985   7.705   2.562  0.00  0.00    +0.009 C 
ATOM     13  C   UNL     1      11.474   5.891   3.485  0.00  0.00    +0.076 C 
ATOM     14  C   UNL     1      14.795   6.514  -0.660  0.00  0.00    +0.007 C 
ATOM     15  C   UNL     1      12.386   7.073   3.810  0.00  0.00    +0.023 C 
ATOM     16  C   UNL     1      14.958   6.143   2.382  0.00  0.00    +0.011 C 
ATOM     18  C   UNL     1      11.110   3.735   2.228  0.00  0.00    +0.010 C 
ENDROOT
BRANCH  13   4
ATOM      3  O   UNL     1       8.959   6.318   4.857  0.00  0.00    -0.276 OA
ATOM      4  N   UNL     1      11.040   5.291   4.729  0.00  0.00    -0.312 N 
ATOM     21  C   UNL     1       9.813   5.559   5.310  0.00  0.00    +0.214 C 
ATOM     33  H   UNL     1      11.690   4.674   5.205  0.00  0.00    +0.149 HD
BRANCH  21  23
ATOM     23  C   UNL     1       9.600   4.811   6.616  0.00  0.00    +0.102 C 
BRANCH  23  24
ATOM     24  C   UNL     1       9.878   5.643   7.891  0.00  0.00    -0.029 C 
ATOM     30  C   UNL     1       9.608   4.827   9.165  0.00  0.00    +0.011 C 
ATOM     31  C   UNL     1       8.931   6.860   7.881  0.00  0.00    +0.011 C 
ATOM     32  C   UNL     1      11.328   6.155   7.913  0.00  0.00    +0.011 C 
ENDBRANCH  23  24
ENDBRANCH  21  23
ENDBRANCH  13   4
BRANCH   9   1
ATOM      1  O   UNL     1      12.299   3.719  -0.299  0.00  0.00    -0.391 OA
ATOM     34  H   UNL     1      11.906   3.260   0.462  0.00  0.00    +0.210 HD
ENDBRANCH   9   1
BRANCH  11  17
ATOM     17  C   UNL     1      14.572   4.428  -2.022  0.00  0.00    +0.077 C 
ATOM     19  C   UNL     1      16.065   4.734  -2.051  0.00  0.00    +0.017 C 
BRANCH  17  20
ATOM      2  O   UNL     1      14.620   4.758  -4.421  0.00  0.00    -0.276 OA
ATOM      5  N   UNL     1      12.570   4.425  -3.388  0.00  0.00    -0.312 N 
ATOM     20  C   UNL     1      13.951   4.557  -3.410  0.00  0.00    +0.216 C 
ATOM     35  H   UNL     1      12.100   4.241  -2.508  0.00  0.00    +0.149 HD
BRANCH   5  22
ATOM     22  C   UNL     1      11.758   4.512  -4.582  0.00  0.00    +0.073 C 
ATOM     25  C   UNL     1      11.162   3.146  -4.943  0.00  0.00    +0.022 C 
ATOM     26  C   UNL     1      10.661   5.571  -4.426  0.00  0.00    +0.022 C 
ATOM     27  C   UNL     1      10.060   2.714  -3.977  0.00  0.00    +0.002 C 
ATOM     28  C   UNL     1       9.559   5.135  -3.460  0.00  0.00    +0.002 C 
ATOM     29  C   UNL     1       8.976   3.780  -3.847  0.00  0.00    +0.000 C 
ENDBRANCH   5  22
ENDBRANCH  17  20
ENDBRANCH  11  17
TORSDOF 7
ENDMDL
MODEL 9
REMARK VINA RESULT:      -6.2     25.950     28.953
REMARK  Name = 45361414
REMARK  13 active torsions:
REMARK  status: ('A' for Active; 'I' for Inactive)
REMARK    1  A    between atoms: O_1  and  C_9
REMARK    2  A    between atoms: N_4  and  C_13
REMARK    3  A    between atoms: N_5  and  C_22
REMARK    4  A    between atoms: C_6  and  C_16
REMARK    5  A    between atoms: C_8  and  C_18
REMARK    6  A    between atoms: C_11  and  C_17
REMARK    7  A    between atoms: C_17  and  C_19
REMARK    8  A    between atoms: C_17  and  C_20
REMARK    9  A    between atoms: C_21  and  C_23
REMARK   10  A    between atoms: C_23  and  C_24
REMARK   11  A    between atoms: C_24  and  C_30
REMARK   12  A    between atoms: C_24  and  C_31
REMARK   13  A    between atoms: C_24  and  C_32
REMARK                            x       y       z     vdW  Elec       q    Type
REMARK                         _______ _______ _______ _____ _____    ______ ____
ROOT
ATOM      6  C   UNL     1      16.931  -3.699  30.375  0.00  0.00    -0.027 C 
ATOM      7  C   UNL     1      16.055  -4.747  29.611  0.00  0.00    +0.028 C 
ATOM      8  C   UNL     1      15.181  -5.582  30.614  0.00  0.00    +0.012 C 
ATOM      9  C   UNL     1      16.911  -5.581  28.616  0.00  0.00    +0.122 C 
ATOM     10  C   UNL     1      17.691  -2.819  29.353  0.00  0.00    +0.007 C 
ATOM     11  C   UNL     1      17.749  -4.694  27.664  0.00  0.00    +0.029 C 
ATOM     12  C   UNL     1      16.007  -2.773  31.198  0.00  0.00    +0.009 C 
ATOM     13  C   UNL     1      14.312  -4.636  31.489  0.00  0.00    +0.076 C 
ATOM     14  C   UNL     1      18.561  -3.629  28.402  0.00  0.00    +0.007 C 
ATOM     15  C   UNL     1      15.116  -3.530  32.172  0.00  0.00    +0.023 C 
ATOM     16  C   UNL     1      17.962  -4.364  31.321  0.00  0.00    +0.011 C 
ATOM     18  C   UNL     1      14.271  -6.614  29.927  0.00  0.00    +0.010 C 
ENDROOT
BRANCH  13   4
ATOM      3  O   UNL     1      11.521  -4.334  32.202  0.00  0.00    -0.276 OA
ATOM      4  N   UNL     1      13.581  -5.365  32.504  0.00  0.00    -0.312 N 
ATOM     21  C   UNL     1      12.241  -5.150  32.774  0.00  0.00    +0.214 C 
ATOM     33  H   UNL     1      14.096  -6.040  33.061  0.00  0.00    +0.149 HD
BRANCH  21  23
ATOM     23  C   UNL     1      11.711  -6.036  33.888  0.00  0.00    +0.102 C 
BRANCH  23  24
ATOM     24  C   UNL     1      10.851  -7.231  33.411  0.00  0.00    -0.029 C 
ATOM     30  C   UNL     1       9.349  -6.920  33.513  0.00  0.00    +0.011 C 
ATOM     31  C   UNL     1      11.161  -8.435  34.321  0.00  0.00    +0.011 C 
ATOM     32  C   UNL     1      11.192  -7.615  31.962  0.00  0.00    +0.011 C 
ENDBRANCH  23  24
ENDBRANCH  21  23
ENDBRANCH  13   4
BRANCH   9   1
ATOM      1  O   UNL     1      16.052  -6.367  27.789  0.00  0.00    -0.391 OA
ATOM     34  H   UNL     1      15.379  -5.779  27.407  0.00  0.00    +0.210 HD
ENDBRANCH   9   1
BRANCH  11  17
ATOM     17  C   UNL     1      18.683  -5.531  26.782  0.00  0.00    +0.077 C 
ATOM     19  C   UNL     1      19.680  -6.293  27.647  0.00  0.00    +0.017 C 
BRANCH  17  20
ATOM      2  O   UNL     1      20.607  -4.679  25.583  0.00  0.00    -0.276 OA
ATOM      5  N   UNL     1      18.524  -3.768  25.126  0.00  0.00    -0.312 N 
ATOM     20  C   UNL     1      19.394  -4.630  25.776  0.00  0.00    +0.216 C 
ATOM     35  H   UNL     1      17.532  -3.809  25.335  0.00  0.00    +0.149 HD
BRANCH   5  22
ATOM     22  C   UNL     1      18.964  -2.817  24.130  0.00  0.00    +0.073 C 
ATOM     25  C   UNL     1      18.299  -3.090  22.776  0.00  0.00    +0.022 C 
ATOM     26  C   UNL     1      18.710  -1.377  24.592  0.00  0.00    +0.022 C 
ATOM     27  C   UNL     1      16.816  -2.723  22.767  0.00  0.00    +0.002 C 
ATOM     28  C   UNL     1      17.225  -1.012  24.580  0.00  0.00    +0.002 C 
ATOM     29  C   UNL     1      16.590  -1.284  23.220  0.00  0.00    +0.000 C 
ENDBRANCH   5  22
ENDBRANCH  17  20
ENDBRANCH  11  17
TORSDOF 7
ENDMDL
MODEL 10
REMARK VINA RESULT:      -6.1     29.375     32.038
REMARK  Name = 45361414
REMARK  13 active torsions:
REMARK  status: ('A' for Active; 'I' for Inactive)
REMARK    1  A    between atoms: O_1  and  C_9
REMARK    2  A    between atoms: N_4  and  C_13
REMARK    3  A    between atoms: N_5  and  C_22
REMARK    4  A    between atoms: C_6  and  C_16
REMARK    5  A    between atoms: C_8  and  C_18
REMARK    6  A    between atoms: C_11  and  C_17
REMARK    7  A    between atoms: C_17  and  C_19
REMARK    8  A    between atoms: C_17  and  C_20
REMARK    9  A    between atoms: C_21  and  C_23
REMARK   10  A    between atoms: C_23  and  C_24
REMARK   11  A    between atoms: C_24  and  C_30
REMARK   12  A    between atoms: C_24  and  C_31
REMARK   13  A    between atoms: C_24  and  C_32
REMARK                            x       y       z     vdW  Elec       q    Type
REMARK                         _______ _______ _______ _____ _____    ______ ____
ROOT
ATOM      6  C   UNL     1      19.586   9.685  21.513  0.00  0.00    -0.027 C 
ATOM      7  C   UNL     1      18.816   8.357  21.208  0.00  0.00    +0.028 C 
ATOM      8  C   UNL     1      17.296   8.495  21.578  0.00  0.00    +0.012 C 
ATOM      9  C   UNL     1      19.545   7.128  21.823  0.00  0.00    +0.122 C 
ATOM     10  C   UNL     1      21.051   9.554  21.033  0.00  0.00    +0.007 C 
ATOM     11  C   UNL     1      21.038   7.060  21.423  0.00  0.00    +0.029 C 
ATOM     12  C   UNL     1      18.933  10.840  20.721  0.00  0.00    +0.009 C 
ATOM     13  C   UNL     1      16.668   9.706  20.832  0.00  0.00    +0.076 C 
ATOM     14  C   UNL     1      21.780   8.375  21.664  0.00  0.00    +0.007 C 
ATOM     15  C   UNL     1      17.450  11.007  21.019  0.00  0.00    +0.023 C 
ATOM     16  C   UNL     1      19.586  10.037  23.022  0.00  0.00    +0.011 C 
ATOM     18  C   UNL     1      16.471   7.232  21.275  0.00  0.00    +0.010 C 
ENDROOT
BRANCH  13   4
ATOM      3  O   UNL     1      14.303   9.615  19.163  0.00  0.00    -0.276 OA
ATOM      4  N   UNL     1      15.297   9.934  21.239  0.00  0.00    -0.312 N 
ATOM     21  C   UNL     1      14.228   9.868  20.364  0.00  0.00    +0.214 C 
ATOM     33  H   UNL     1      15.130  10.187  22.208  0.00  0.00    +0.149 HD
BRANCH  21  23
ATOM     23  C   UNL     1      12.894  10.154  21.034  0.00  0.00    +0.102 C 
BRANCH  23  24
ATOM     24  C   UNL     1      11.995   8.911  21.241  0.00  0.00    -0.029 C 
ATOM     30  C   UNL     1      12.830   7.651  21.519  0.00  0.00    +0.011 C 
ATOM     31  C   UNL     1      11.190   8.685  19.946  0.00  0.00    +0.011 C 
ATOM     32  C   UNL     1      11.005   9.129  22.397  0.00  0.00    +0.011 C 
ENDBRANCH  23  24
ENDBRANCH  21  23
ENDBRANCH  13   4
BRANCH   9   1
ATOM      1  O   UNL     1      18.939   5.926  21.345  0.00  0.00    -0.391 OA
ATOM     34  H   UNL     1      19.646   5.331  21.043  0.00  0.00    +0.210 HD
ENDBRANCH   9   1
BRANCH  11  17
ATOM     17  C   UNL     1      21.768   5.920  22.142  0.00  0.00    +0.077 C 
ATOM     19  C   UNL     1      23.043   6.442  22.795  0.00  0.00    +0.017 C 
BRANCH  17  20
ATOM      2  O   UNL     1      21.424   4.623  20.126  0.00  0.00    -0.276 OA
ATOM      5  N   UNL     1      23.130   3.999  21.567  0.00  0.00    -0.312 N 
ATOM     20  C   UNL     1      22.068   4.792  21.159  0.00  0.00    +0.216 C 
ATOM     35  H   UNL     1      23.619   4.224  22.428  0.00  0.00    +0.149 HD
BRANCH   5  22
ATOM     22  C   UNL     1      23.601   2.867  20.801  0.00  0.00    +0.073 C 
ATOM     25  C   UNL     1      24.727   3.277  19.846  0.00  0.00    +0.022 C 
ATOM     26  C   UNL     1      24.044   1.724  21.722  0.00  0.00    +0.022 C 
ATOM     27  C   UNL     1      26.033   3.585  20.578  0.00  0.00    +0.002 C 
ATOM     28  C   UNL     1      25.351   2.034  22.451  0.00  0.00    +0.002 C 
ATOM     29  C   UNL     1      26.458   2.430  21.479  0.00  0.00    +0.000 C 
ENDBRANCH   5  22
ENDBRANCH  17  20
ENDBRANCH  11  17
TORSDOF 7
ENDMDL
