MODEL 1
REMARK VINA RESULT:      -7.6      0.000      0.000
REMARK  Name = 45784233
REMARK  5 active torsions:
REMARK  status: ('A' for Active; 'I' for Inactive)
REMARK    1  A    between atoms: O_2  and  C_15
REMARK    2  A    between atoms: O_2  and  C_24
REMARK    3  A    between atoms: N_3  and  C_11
REMARK    4  A    between atoms: C_6  and  C_10
REMARK    5  A    between atoms: C_11  and  C_12
REMARK                            x       y       z     vdW  Elec       q    Type
REMARK                         _______ _______ _______ _____ _____    ______ ____
ROOT
ATOM      3  N   UNL     1      11.931   4.200   1.870  0.00  0.00    -0.297 NA
ATOM      6  C   UNL     1      10.417   5.213   3.347  0.00  0.00    +0.070 C 
ATOM      7  C   UNL     1      11.381   6.275   2.788  0.00  0.00    +0.028 C 
ATOM      8  C   UNL     1      11.085   3.872   3.021  0.00  0.00    +0.096 C 
ATOM      9  C   UNL     1      12.545   5.484   2.208  0.00  0.00    +0.085 C 
ENDROOT
BRANCH   6  10
ATOM      1  F   UNL     1       9.304   4.345  10.473  0.00  0.00    -0.205 F 
ATOM      4  N   UNL     1      10.240   4.324   5.687  0.00  0.00    -0.341 N 
ATOM      5  N   UNL     1       9.634   6.445   5.411  0.00  0.00    -0.232 NA
ATOM     10  C   UNL     1      10.086   5.365   4.814  0.00  0.00    +0.113 A 
ATOM     13  C   UNL     1       9.862   4.761   6.931  0.00  0.00    +0.069 A 
ATOM     14  C   UNL     1       9.489   6.088   6.732  0.00  0.00    +0.089 A 
ATOM     17  C   UNL     1       9.817   4.131   8.175  0.00  0.00    +0.066 A 
ATOM     18  C   UNL     1       9.041   6.845   7.828  0.00  0.00    +0.032 A 
ATOM     21  C   UNL     1       9.369   4.899   9.254  0.00  0.00    +0.125 A 
ATOM     22  C   UNL     1       8.987   6.233   9.086  0.00  0.00    +0.040 A 
ATOM     25  H   UNL     1      10.572   3.395   5.461  0.00  0.00    +0.167 HD
ENDBRANCH   6  10
BRANCH   3  11
ATOM     11  C   UNL     1      12.919   3.167   1.594  0.00  0.00    +0.123 C 
BRANCH  11  12
ATOM     12  C   UNL     1      13.885   3.590   0.519  0.00  0.00    +0.008 A 
ATOM     15  C   UNL     1      13.469   3.710  -0.806  0.00  0.00    +0.124 A 
ATOM     16  C   UNL     1      15.210   3.861   0.861  0.00  0.00    +0.008 A 
ATOM     19  C   UNL     1      14.377   4.102  -1.790  0.00  0.00    +0.046 A 
ATOM     20  C   UNL     1      16.119   4.252  -0.123  0.00  0.00    +0.001 A 
ATOM     23  C   UNL     1      15.702   4.373  -1.448  0.00  0.00    +0.004 A 
BRANCH  15   2
ATOM      2  O   UNL     1      12.178   3.449  -1.158  0.00  0.00    -0.495 OA
ATOM     24  C   UNL     1      11.968   2.460  -2.163  0.00  0.00    +0.277 C 
ENDBRANCH  15   2
ENDBRANCH  11  12
ENDBRANCH   3  11
TORSDOF 4
ENDMDL
MODEL 2
REMARK VINA RESULT:      -6.8     22.410     25.233
REMARK  Name = 45784233
REMARK  5 active torsions:
REMARK  status: ('A' for Active; 'I' for Inactive)
REMARK    1  A    between atoms: O_2  and  C_15
REMARK    2  A    between atoms: O_2  and  C_24
REMARK    3  A    between atoms: N_3  and  C_11
REMARK    4  A    between atoms: C_6  and  C_10
REMARK    5  A    between atoms: C_11  and  C_12
REMARK                            x       y       z     vdW  Elec       q    Type
REMARK                         _______ _______ _______ _____ _____    ______ ____
ROOT
ATOM      3  N   UNL     1      -2.053 -10.997  13.659  0.00  0.00    -0.297 NA
ATOM      6  C   UNL     1      -3.067 -10.226  15.627  0.00  0.00    +0.070 C 
ATOM      7  C   UNL     1      -1.686 -10.818  15.957  0.00  0.00    +0.028 C 
ATOM      8  C   UNL     1      -3.383 -10.739  14.216  0.00  0.00    +0.096 C 
ATOM      9  C   UNL     1      -1.312 -11.650  14.738  0.00  0.00    +0.085 C 
ENDROOT
BRANCH   6  10
ATOM      1  F   UNL     1      -9.155 -10.658  19.567  0.00  0.00    -0.205 F 
ATOM      4  N   UNL     1      -5.375  -9.938  16.573  0.00  0.00    -0.341 N 
ATOM      5  N   UNL     1      -4.076 -11.406  17.622  0.00  0.00    -0.232 NA
ATOM     10  C   UNL     1      -4.153 -10.550  16.628  0.00  0.00    +0.113 A 
ATOM     13  C   UNL     1      -6.137 -10.432  17.600  0.00  0.00    +0.069 A 
ATOM     14  C   UNL     1      -5.305 -11.347  18.240  0.00  0.00    +0.089 A 
ATOM     17  C   UNL     1      -7.444 -10.168  18.011  0.00  0.00    +0.066 A 
ATOM     18  C   UNL     1      -5.788 -12.047  19.358  0.00  0.00    +0.032 A 
ATOM     21  C   UNL     1      -7.908 -10.873  19.126  0.00  0.00    +0.125 A 
ATOM     22  C   UNL     1      -7.096 -11.797  19.790  0.00  0.00    +0.040 A 
ATOM     25  H   UNL     1      -5.668  -9.245  15.897  0.00  0.00    +0.167 HD
ENDBRANCH   6  10
BRANCH   3  11
ATOM     11  C   UNL     1      -2.105 -11.809  12.451  0.00  0.00    +0.123 C 
BRANCH  11  12
ATOM     12  C   UNL     1      -2.824 -11.103  11.332  0.00  0.00    +0.008 A 
ATOM     15  C   UNL     1      -3.805 -11.759  10.590  0.00  0.00    +0.124 A 
ATOM     16  C   UNL     1      -2.499  -9.778  11.042  0.00  0.00    +0.008 A 
ATOM     19  C   UNL     1      -4.460 -11.090   9.555  0.00  0.00    +0.046 A 
ATOM     20  C   UNL     1      -3.154  -9.110  10.008  0.00  0.00    +0.001 A 
ATOM     23  C   UNL     1      -4.135  -9.766   9.265  0.00  0.00    +0.004 A 
BRANCH  15   2
ATOM      2  O   UNL     1      -4.136 -13.054  10.860  0.00  0.00    -0.495 OA
ATOM     24  C   UNL     1      -5.416 -13.286  11.445  0.00  0.00    +0.277 C 
ENDBRANCH  15   2
ENDBRANCH  11  12
ENDBRANCH   3  11
TORSDOF 4
ENDMDL
MODEL 3
REMARK VINA RESULT:      -6.8     23.024     25.936
REMARK  Name = 45784233
REMARK  5 active torsions:
REMARK  status: ('A' for Active; 'I' for Inactive)
REMARK    1  A    between atoms: O_2  and  C_15
REMARK    2  A    between atoms: O_2  and  C_24
REMARK    3  A    between atoms: N_3  and  C_11
REMARK    4  A    between atoms: C_6  and  C_10
REMARK    5  A    between atoms: C_11  and  C_12
REMARK                            x       y       z     vdW  Elec       q    Type
REMARK                         _______ _______ _______ _____ _____    ______ ____
ROOT
ATOM      3  N   UNL     1      -3.934 -10.767  14.750  0.00  0.00    -0.297 NA
ATOM      6  C   UNL     1      -5.246  -9.840  16.459  0.00  0.00    +0.070 C 
ATOM      7  C   UNL     1      -4.197 -10.786  17.070  0.00  0.00    +0.028 C 
ATOM      8  C   UNL     1      -5.265 -10.194  14.966  0.00  0.00    +0.096 C 
ATOM      9  C   UNL     1      -3.706 -11.635  15.905  0.00  0.00    +0.085 C 
ENDROOT
BRANCH   6  10
ATOM      1  F   UNL     1     -12.181  -8.971  18.438  0.00  0.00    -0.205 F 
ATOM      4  N   UNL     1      -7.633  -9.099  16.684  0.00  0.00    -0.341 N 
ATOM      5  N   UNL     1      -6.986 -10.707  18.075  0.00  0.00    -0.232 NA
ATOM     10  C   UNL     1      -6.614  -9.910  17.098  0.00  0.00    +0.113 A 
ATOM     13  C   UNL     1      -8.737  -9.391  17.444  0.00  0.00    +0.069 A 
ATOM     14  C   UNL     1      -8.307 -10.398  18.304  0.00  0.00    +0.089 A 
ATOM     17  C   UNL     1     -10.034  -8.879  17.451  0.00  0.00    +0.066 A 
ATOM     18  C   UNL     1      -9.212 -10.936  19.234  0.00  0.00    +0.032 A 
ATOM     21  C   UNL     1     -10.922  -9.426  18.384  0.00  0.00    +0.125 A 
ATOM     22  C   UNL     1     -10.520 -10.436  19.262  0.00  0.00    +0.040 A 
ATOM     25  H   UNL     1      -7.586  -8.405  15.948  0.00  0.00    +0.167 HD
ENDBRANCH   6  10
BRANCH   3  11
ATOM     11  C   UNL     1      -3.838 -11.486  13.488  0.00  0.00    +0.123 C 
BRANCH  11  12
ATOM     12  C   UNL     1      -3.276 -10.621  12.392  0.00  0.00    +0.008 A 
ATOM     15  C   UNL     1      -4.113 -10.056  11.430  0.00  0.00    +0.124 A 
ATOM     16  C   UNL     1      -1.902 -10.386  12.345  0.00  0.00    +0.008 A 
ATOM     19  C   UNL     1      -3.575  -9.257  10.421  0.00  0.00    +0.046 A 
ATOM     20  C   UNL     1      -1.364  -9.587  11.336  0.00  0.00    +0.001 A 
ATOM     23  C   UNL     1      -2.201  -9.023  10.374  0.00  0.00    +0.004 A 
BRANCH  15   2
ATOM      2  O   UNL     1      -5.458 -10.274  11.461  0.00  0.00    -0.495 OA
ATOM     24  C   UNL     1      -6.299  -9.124  11.513  0.00  0.00    +0.277 C 
ENDBRANCH  15   2
ENDBRANCH  11  12
ENDBRANCH   3  11
TORSDOF 4
ENDMDL
MODEL 4
REMARK VINA RESULT:      -6.7     25.744     28.422
REMARK  Name = 45784233
REMARK  5 active torsions:
REMARK  status: ('A' for Active; 'I' for Inactive)
REMARK    1  A    between atoms: O_2  and  C_15
REMARK    2  A    between atoms: O_2  and  C_24
REMARK    3  A    between atoms: N_3  and  C_11
REMARK    4  A    between atoms: C_6  and  C_10
REMARK    5  A    between atoms: C_11  and  C_12
REMARK                            x       y       z     vdW  Elec       q    Type
REMARK                         _______ _______ _______ _____ _____    ______ ____
ROOT
ATOM      3  N   UNL     1      -9.372  -8.913  16.749  0.00  0.00    -0.297 NA
ATOM      6  C   UNL     1     -10.984  -7.217  16.599  0.00  0.00    +0.070 C 
ATOM      7  C   UNL     1     -11.612  -8.469  17.235  0.00  0.00    +0.028 C 
ATOM      8  C   UNL     1      -9.680  -7.715  15.963  0.00  0.00    +0.096 C 
ATOM      9  C   UNL     1     -10.652  -9.603  16.901  0.00  0.00    +0.085 C 
ENDROOT
BRANCH   6  10
ATOM      1  F   UNL     1     -13.841  -2.956  11.455  0.00  0.00    -0.205 F 
ATOM      4  N   UNL     1     -11.369  -5.549  14.763  0.00  0.00    -0.341 N 
ATOM      5  N   UNL     1     -13.171  -6.641  15.469  0.00  0.00    -0.232 NA
ATOM     10  C   UNL     1     -11.874  -6.486  15.620  0.00  0.00    +0.113 A 
ATOM     13  C   UNL     1     -12.407  -5.067  14.008  0.00  0.00    +0.069 A 
ATOM     14  C   UNL     1     -13.521  -5.764  14.467  0.00  0.00    +0.089 A 
ATOM     17  C   UNL     1     -12.466  -4.111  12.993  0.00  0.00    +0.066 A 
ATOM     18  C   UNL     1     -14.776  -5.505  13.893  0.00  0.00    +0.032 A 
ATOM     21  C   UNL     1     -13.724  -3.865  12.433  0.00  0.00    +0.125 A 
ATOM     22  C   UNL     1     -14.861  -4.549  12.873  0.00  0.00    +0.040 A 
ATOM     25  H   UNL     1     -10.401  -5.259  14.694  0.00  0.00    +0.167 HD
ENDBRANCH   6  10
BRANCH   3  11
ATOM     11  C   UNL     1      -8.363  -9.748  16.115  0.00  0.00    +0.123 C 
BRANCH  11  12
ATOM     12  C   UNL     1      -7.244 -10.092  17.063  0.00  0.00    +0.008 A 
ATOM     15  C   UNL     1      -5.931 -10.199  16.606  0.00  0.00    +0.124 A 
ATOM     16  C   UNL     1      -7.534 -10.305  18.410  0.00  0.00    +0.008 A 
ATOM     19  C   UNL     1      -4.907 -10.520  17.498  0.00  0.00    +0.046 A 
ATOM     20  C   UNL     1      -6.510 -10.626  19.302  0.00  0.00    +0.001 A 
ATOM     23  C   UNL     1      -5.196 -10.732  18.846  0.00  0.00    +0.004 A 
BRANCH  15   2
ATOM      2  O   UNL     1      -5.630  -9.994  15.293  0.00  0.00    -0.495 OA
ATOM     24  C   UNL     1      -4.429 -10.587  14.804  0.00  0.00    +0.277 C 
ENDBRANCH  15   2
ENDBRANCH  11  12
ENDBRANCH   3  11
TORSDOF 4
ENDMDL
MODEL 5
REMARK VINA RESULT:      -6.7     17.106     19.762
REMARK  Name = 45784233
REMARK  5 active torsions:
REMARK  status: ('A' for Active; 'I' for Inactive)
REMARK    1  A    between atoms: O_2  and  C_15
REMARK    2  A    between atoms: O_2  and  C_24
REMARK    3  A    between atoms: N_3  and  C_11
REMARK    4  A    between atoms: C_6  and  C_10
REMARK    5  A    between atoms: C_11  and  C_12
REMARK                            x       y       z     vdW  Elec       q    Type
REMARK                         _______ _______ _______ _____ _____    ______ ____
ROOT
ATOM      3  N   UNL     1      15.924   7.835  20.623  0.00  0.00    -0.297 NA
ATOM      6  C   UNL     1      18.037   6.962  20.103  0.00  0.00    +0.070 C 
ATOM      7  C   UNL     1      16.946   6.072  19.483  0.00  0.00    +0.028 C 
ATOM      8  C   UNL     1      17.298   7.825  21.134  0.00  0.00    +0.096 C 
ATOM      9  C   UNL     1      15.665   6.456  20.212  0.00  0.00    +0.085 C 
ENDROOT
BRANCH   6  10
ATOM      1  F   UNL     1      23.369   2.294  21.703  0.00  0.00    -0.205 F 
ATOM      4  N   UNL     1      19.655   5.043  20.145  0.00  0.00    -0.341 N 
ATOM      5  N   UNL     1      19.910   6.557  21.752  0.00  0.00    -0.232 NA
ATOM     10  C   UNL     1      19.208   6.212  20.696  0.00  0.00    +0.113 A 
ATOM     13  C   UNL     1      20.716   4.604  20.896  0.00  0.00    +0.069 A 
ATOM     14  C   UNL     1      20.855   5.566  21.892  0.00  0.00    +0.089 A 
ATOM     17  C   UNL     1      21.541   3.484  20.791  0.00  0.00    +0.066 A 
ATOM     18  C   UNL     1      21.872   5.417  22.850  0.00  0.00    +0.032 A 
ATOM     21  C   UNL     1      22.547   3.351  21.753  0.00  0.00    +0.125 A 
ATOM     22  C   UNL     1      22.712   4.300  22.766  0.00  0.00    +0.040 A 
ATOM     25  H   UNL     1      19.274   4.580  19.330  0.00  0.00    +0.167 HD
ENDBRANCH   6  10
BRANCH   3  11
ATOM     11  C   UNL     1      14.968   8.308  21.613  0.00  0.00    +0.123 C 
BRANCH  11  12
ATOM     12  C   UNL     1      13.569   8.362  21.060  0.00  0.00    +0.008 A 
ATOM     15  C   UNL     1      13.237   9.261  20.047  0.00  0.00    +0.124 A 
ATOM     16  C   UNL     1      12.599   7.499  21.570  0.00  0.00    +0.008 A 
ATOM     19  C   UNL     1      11.936   9.298  19.546  0.00  0.00    +0.046 A 
ATOM     20  C   UNL     1      11.298   7.536  21.069  0.00  0.00    +0.001 A 
ATOM     23  C   UNL     1      10.966   8.435  20.057  0.00  0.00    +0.004 A 
BRANCH  15   2
ATOM      2  O   UNL     1      14.172  10.112  19.536  0.00  0.00    -0.495 OA
ATOM     24  C   UNL     1      14.409  10.045  18.131  0.00  0.00    +0.277 C 
ENDBRANCH  15   2
ENDBRANCH  11  12
ENDBRANCH   3  11
TORSDOF 4
ENDMDL
MODEL 6
REMARK VINA RESULT:      -6.5     23.758     26.770
REMARK  Name = 45784233
REMARK  5 active torsions:
REMARK  status: ('A' for Active; 'I' for Inactive)
REMARK    1  A    between atoms: O_2  and  C_15
REMARK    2  A    between atoms: O_2  and  C_24
REMARK    3  A    between atoms: N_3  and  C_11
REMARK    4  A    between atoms: C_6  and  C_10
REMARK    5  A    between atoms: C_11  and  C_12
REMARK                            x       y       z     vdW  Elec       q    Type
REMARK                         _______ _______ _______ _____ _____    ______ ____
ROOT
ATOM      3  N   UNL     1      -4.848 -10.672  15.425  0.00  0.00    -0.297 NA
ATOM      6  C   UNL     1      -6.332  -9.571  16.868  0.00  0.00    +0.070 C 
ATOM      7  C   UNL     1      -5.249 -10.289  17.693  0.00  0.00    +0.028 C 
ATOM      8  C   UNL     1      -6.231 -10.192  15.469  0.00  0.00    +0.096 C 
ATOM      9  C   UNL     1      -4.621 -11.289  16.731  0.00  0.00    +0.085 C 
ENDROOT
BRANCH   6  10
ATOM      1  F   UNL     1     -12.294 -10.887  20.803  0.00  0.00    -0.205 F 
ATOM      4  N   UNL     1      -7.984 -10.359  18.585  0.00  0.00    -0.341 N 
ATOM      5  N   UNL     1      -8.809  -9.078  16.967  0.00  0.00    -0.232 NA
ATOM     10  C   UNL     1      -7.726  -9.647  17.447  0.00  0.00    +0.113 A 
ATOM     13  C   UNL     1      -9.323 -10.242  18.858  0.00  0.00    +0.069 A 
ATOM     14  C   UNL     1      -9.816  -9.437  17.834  0.00  0.00    +0.089 A 
ATOM     17  C   UNL     1     -10.121 -10.754  19.882  0.00  0.00    +0.066 A 
ATOM     18  C   UNL     1     -11.183  -9.114  17.814  0.00  0.00    +0.032 A 
ATOM     21  C   UNL     1     -11.480 -10.422  19.846  0.00  0.00    +0.125 A 
ATOM     22  C   UNL     1     -12.003  -9.618  18.831  0.00  0.00    +0.040 A 
ATOM     25  H   UNL     1      -7.311 -10.881  19.131  0.00  0.00    +0.167 HD
ENDBRANCH   6  10
BRANCH   3  11
ATOM     11  C   UNL     1      -4.616 -11.598  14.326  0.00  0.00    +0.123 C 
BRANCH  11  12
ATOM     12  C   UNL     1      -3.838 -10.958  13.207  0.00  0.00    +0.008 A 
ATOM     15  C   UNL     1      -2.454 -10.810  13.295  0.00  0.00    +0.124 A 
ATOM     16  C   UNL     1      -4.517 -10.509  12.074  0.00  0.00    +0.008 A 
ATOM     19  C   UNL     1      -1.749 -10.213  12.250  0.00  0.00    +0.046 A 
ATOM     20  C   UNL     1      -3.812  -9.912  11.029  0.00  0.00    +0.001 A 
ATOM     23  C   UNL     1      -2.428  -9.764  11.117  0.00  0.00    +0.004 A 
BRANCH  15   2
ATOM      2  O   UNL     1      -1.775 -11.243  14.395  0.00  0.00    -0.495 OA
ATOM     24  C   UNL     1      -1.244 -10.243  15.263  0.00  0.00    +0.277 C 
ENDBRANCH  15   2
ENDBRANCH  11  12
ENDBRANCH   3  11
TORSDOF 4
ENDMDL
MODEL 7
REMARK VINA RESULT:      -6.4     23.992     27.239
REMARK  Name = 45784233
REMARK  5 active torsions:
REMARK  status: ('A' for Active; 'I' for Inactive)
REMARK    1  A    between atoms: O_2  and  C_15
REMARK    2  A    between atoms: O_2  and  C_24
REMARK    3  A    between atoms: N_3  and  C_11
REMARK    4  A    between atoms: C_6  and  C_10
REMARK    5  A    between atoms: C_11  and  C_12
REMARK                            x       y       z     vdW  Elec       q    Type
REMARK                         _______ _______ _______ _____ _____    ______ ____
ROOT
ATOM      3  N   UNL     1      -4.966 -11.613  17.453  0.00  0.00    -0.297 NA
ATOM      6  C   UNL     1      -6.710 -10.250  18.227  0.00  0.00    +0.070 C 
ATOM      7  C   UNL     1      -6.613 -11.509  19.106  0.00  0.00    +0.028 C 
ATOM      8  C   UNL     1      -5.894 -10.586  16.972  0.00  0.00    +0.096 C 
ATOM      9  C   UNL     1      -5.779 -12.492  18.293  0.00  0.00    +0.085 C 
ENDROOT
BRANCH   6  10
ATOM      1  F   UNL     1     -12.727  -6.683  16.267  0.00  0.00    -0.205 F 
ATOM      4  N   UNL     1      -8.374  -8.551  17.423  0.00  0.00    -0.341 N 
ATOM      5  N   UNL     1      -9.218 -10.509  18.053  0.00  0.00    -0.232 NA
ATOM     10  C   UNL     1      -8.119  -9.803  17.911  0.00  0.00    +0.113 A 
ATOM     13  C   UNL     1      -9.728  -8.442  17.237  0.00  0.00    +0.069 A 
ATOM     14  C   UNL     1     -10.233  -9.677  17.637  0.00  0.00    +0.089 A 
ATOM     17  C   UNL     1     -10.531  -7.402  16.767  0.00  0.00    +0.066 A 
ATOM     18  C   UNL     1     -11.618  -9.904  17.572  0.00  0.00    +0.032 A 
ATOM     21  C   UNL     1     -11.907  -7.646  16.709  0.00  0.00    +0.125 A 
ATOM     22  C   UNL     1     -12.443  -8.874  17.104  0.00  0.00    +0.040 A 
ATOM     25  H   UNL     1      -7.689  -7.832  17.231  0.00  0.00    +0.167 HD
ENDBRANCH   6  10
BRANCH   3  11
ATOM     11  C   UNL     1      -4.318 -12.330  16.364  0.00  0.00    +0.123 C 
BRANCH  11  12
ATOM     12  C   UNL     1      -3.276 -11.486  15.680  0.00  0.00    +0.008 A 
ATOM     15  C   UNL     1      -3.376 -11.194  14.320  0.00  0.00    +0.124 A 
ATOM     16  C   UNL     1      -2.202 -10.994  16.421  0.00  0.00    +0.008 A 
ATOM     19  C   UNL     1      -2.401 -10.411  13.701  0.00  0.00    +0.046 A 
ATOM     20  C   UNL     1      -1.227 -10.211  15.803  0.00  0.00    +0.001 A 
ATOM     23  C   UNL     1      -1.327  -9.920  14.443  0.00  0.00    +0.004 A 
BRANCH  15   2
ATOM      2  O   UNL     1      -4.419 -11.666  13.580  0.00  0.00    -0.495 OA
ATOM     24  C   UNL     1      -5.284 -10.698  12.989  0.00  0.00    +0.277 C 
ENDBRANCH  15   2
ENDBRANCH  11  12
ENDBRANCH   3  11
TORSDOF 4
ENDMDL
MODEL 8
REMARK VINA RESULT:      -6.2      4.104      8.996
REMARK  Name = 45784233
REMARK  5 active torsions:
REMARK  status: ('A' for Active; 'I' for Inactive)
REMARK    1  A    between atoms: O_2  and  C_15
REMARK    2  A    between atoms: O_2  and  C_24
REMARK    3  A    between atoms: N_3  and  C_11
REMARK    4  A    between atoms: C_6  and  C_10
REMARK    5  A    between atoms: C_11  and  C_12
REMARK                            x       y       z     vdW  Elec       q    Type
REMARK                         _______ _______ _______ _____ _____    ______ ____
ROOT
ATOM      3  N   UNL     1      10.957   5.337   3.613  0.00  0.00    -0.297 NA
ATOM      6  C   UNL     1      11.966   4.130   1.875  0.00  0.00    +0.070 C 
ATOM      7  C   UNL     1      12.852   5.331   2.249  0.00  0.00    +0.028 C 
ATOM      8  C   UNL     1      10.605   4.436   2.513  0.00  0.00    +0.096 C 
ATOM      9  C   UNL     1      11.943   6.257   3.047  0.00  0.00    +0.085 C 
ENDROOT
BRANCH   6  10
ATOM      1  F   UNL     1      10.013   3.492  -5.093  0.00  0.00    -0.205 F 
ATOM      4  N   UNL     1      10.762   4.197  -0.327  0.00  0.00    -0.341 N 
ATOM      5  N   UNL     1      12.780   3.267  -0.357  0.00  0.00    -0.232 NA
ATOM     10  C   UNL     1      11.871   3.848   0.393  0.00  0.00    +0.113 A 
ATOM     13  C   UNL     1      10.969   3.816  -1.628  0.00  0.00    +0.069 A 
ATOM     14  C   UNL     1      12.236   3.238  -1.621  0.00  0.00    +0.089 A 
ATOM     17  C   UNL     1      10.183   3.925  -2.775  0.00  0.00    +0.066 A 
ATOM     18  C   UNL     1      12.765   2.733  -2.820  0.00  0.00    +0.032 A 
ATOM     21  C   UNL     1      10.725   3.416  -3.960  0.00  0.00    +0.125 A 
ATOM     22  C   UNL     1      11.993   2.830  -3.985  0.00  0.00    +0.040 A 
ATOM     25  H   UNL     1       9.934   4.655   0.033  0.00  0.00    +0.167 HD
ENDBRANCH   6  10
BRANCH   3  11
ATOM     11  C   UNL     1       9.798   6.031   4.155  0.00  0.00    +0.123 C 
BRANCH  11  12
ATOM     12  C   UNL     1       9.754   5.960   5.658  0.00  0.00    +0.008 A 
ATOM     15  C   UNL     1       9.641   7.120   6.424  0.00  0.00    +0.124 A 
ATOM     16  C   UNL     1       9.828   4.716   6.284  0.00  0.00    +0.008 A 
ATOM     19  C   UNL     1       9.603   7.036   7.816  0.00  0.00    +0.046 A 
ATOM     20  C   UNL     1       9.790   4.632   7.677  0.00  0.00    +0.001 A 
ATOM     23  C   UNL     1       9.677   5.792   8.442  0.00  0.00    +0.004 A 
BRANCH  15   2
ATOM      2  O   UNL     1       9.567   8.344   5.829  0.00  0.00    -0.495 OA
ATOM     24  C   UNL     1       8.297   8.992   5.837  0.00  0.00    +0.277 C 
ENDBRANCH  15   2
ENDBRANCH  11  12
ENDBRANCH   3  11
TORSDOF 4
ENDMDL
MODEL 9
REMARK VINA RESULT:      -6.1      1.755      2.773
REMARK  Name = 45784233
REMARK  5 active torsions:
REMARK  status: ('A' for Active; 'I' for Inactive)
REMARK    1  A    between atoms: O_2  and  C_15
REMARK    2  A    between atoms: O_2  and  C_24
REMARK    3  A    between atoms: N_3  and  C_11
REMARK    4  A    between atoms: C_6  and  C_10
REMARK    5  A    between atoms: C_11  and  C_12
REMARK                            x       y       z     vdW  Elec       q    Type
REMARK                         _______ _______ _______ _____ _____    ______ ____
ROOT
ATOM      3  N   UNL     1      10.857   7.080   0.987  0.00  0.00    -0.297 NA
ATOM      6  C   UNL     1       9.419   6.991   2.837  0.00  0.00    +0.070 C 
ATOM      7  C   UNL     1       9.732   8.459   2.498  0.00  0.00    +0.028 C 
ATOM      8  C   UNL     1      10.482   6.182   2.083  0.00  0.00    +0.096 C 
ATOM      9  C   UNL     1      10.962   8.402   1.603  0.00  0.00    +0.085 C 
ENDROOT
BRANCH   6  10
ATOM      1  F   UNL     1       9.795   3.986   9.440  0.00  0.00    -0.205 F 
ATOM      4  N   UNL     1       9.761   5.451   4.789  0.00  0.00    -0.341 N 
ATOM      5  N   UNL     1       8.991   7.477   5.280  0.00  0.00    -0.232 NA
ATOM     10  C   UNL     1       9.377   6.674   4.314  0.00  0.00    +0.113 A 
ATOM     13  C   UNL     1       9.613   5.465   6.153  0.00  0.00    +0.069 A 
ATOM     14  C   UNL     1       9.132   6.741   6.435  0.00  0.00    +0.089 A 
ATOM     17  C   UNL     1       9.853   4.503   7.134  0.00  0.00    +0.066 A 
ATOM     18  C   UNL     1       8.868   7.094   7.768  0.00  0.00    +0.032 A 
ATOM     21  C   UNL     1       9.584   4.871   8.456  0.00  0.00    +0.125 A 
ATOM     22  C   UNL     1       9.100   6.143   8.770  0.00  0.00    +0.040 A 
ATOM     25  H   UNL     1      10.095   4.671   4.237  0.00  0.00    +0.167 HD
ENDBRANCH   6  10
BRANCH   3  11
ATOM     11  C   UNL     1      12.092   6.672   0.333  0.00  0.00    +0.123 C 
BRANCH  11  12
ATOM     12  C   UNL     1      11.912   5.408  -0.466  0.00  0.00    +0.008 A 
ATOM     15  C   UNL     1      12.787   4.334  -0.307  0.00  0.00    +0.124 A 
ATOM     16  C   UNL     1      10.856   5.319  -1.372  0.00  0.00    +0.008 A 
ATOM     19  C   UNL     1      12.607   3.171  -1.056  0.00  0.00    +0.046 A 
ATOM     20  C   UNL     1      10.675   4.156  -2.121  0.00  0.00    +0.001 A 
ATOM     23  C   UNL     1      11.550   3.082  -1.962  0.00  0.00    +0.004 A 
BRANCH  15   2
ATOM      2  O   UNL     1      13.825   4.404   0.575  0.00  0.00    -0.495 OA
ATOM     24  C   UNL     1      13.843   3.445   1.630  0.00  0.00    +0.277 C 
ENDBRANCH  15   2
ENDBRANCH  11  12
ENDBRANCH   3  11
TORSDOF 4
ENDMDL
MODEL 10
REMARK VINA RESULT:      -6.1     26.673     28.776
REMARK  Name = 45784233
REMARK  5 active torsions:
REMARK  status: ('A' for Active; 'I' for Inactive)
REMARK    1  A    between atoms: O_2  and  C_15
REMARK    2  A    between atoms: O_2  and  C_24
REMARK    3  A    between atoms: N_3  and  C_11
REMARK    4  A    between atoms: C_6  and  C_10
REMARK    5  A    between atoms: C_11  and  C_12
REMARK                            x       y       z     vdW  Elec       q    Type
REMARK                         _______ _______ _______ _____ _____    ______ ____
ROOT
ATOM      3  N   UNL     1     -11.409  -7.817  15.413  0.00  0.00    -0.297 NA
ATOM      6  C   UNL     1     -10.076  -8.995  16.941  0.00  0.00    +0.070 C 
ATOM      7  C   UNL     1     -10.360  -7.585  17.486  0.00  0.00    +0.028 C 
ATOM      8  C   UNL     1     -10.444  -8.919  15.453  0.00  0.00    +0.096 C 
ATOM      9  C   UNL     1     -10.840  -6.787  16.281  0.00  0.00    +0.085 C 
ENDROOT
BRANCH   6  10
ATOM      1  F   UNL     1      -3.900 -11.765  19.579  0.00  0.00    -0.205 F 
ATOM      4  N   UNL     1      -8.297 -10.033  18.375  0.00  0.00    -0.341 N 
ATOM      5  N   UNL     1      -7.677  -9.484  16.312  0.00  0.00    -0.232 NA
ATOM     10  C   UNL     1      -8.669  -9.496  17.174  0.00  0.00    +0.113 A 
ATOM     13  C   UNL     1      -6.976 -10.392  18.282  0.00  0.00    +0.069 A 
ATOM     14  C   UNL     1      -6.612 -10.039  16.985  0.00  0.00    +0.089 A 
ATOM     17  C   UNL     1      -6.096 -10.978  19.192  0.00  0.00    +0.066 A 
ATOM     18  C   UNL     1      -5.297 -10.276  16.555  0.00  0.00    +0.032 A 
ATOM     21  C   UNL     1      -4.790 -11.206  18.747  0.00  0.00    +0.125 A 
ATOM     22  C   UNL     1      -4.395 -10.862  17.451  0.00  0.00    +0.040 A 
ATOM     25  H   UNL     1      -8.887 -10.148  19.189  0.00  0.00    +0.167 HD
ENDBRANCH   6  10
BRANCH   3  11
ATOM     11  C   UNL     1     -11.644  -7.335  14.059  0.00  0.00    +0.123 C 
BRANCH  11  12
ATOM     12  C   UNL     1     -12.997  -6.688  13.923  0.00  0.00    +0.008 A 
ATOM     15  C   UNL     1     -13.120  -5.391  13.427  0.00  0.00    +0.124 A 
ATOM     16  C   UNL     1     -14.135  -7.402  14.299  0.00  0.00    +0.008 A 
ATOM     19  C   UNL     1     -14.381  -4.806  13.308  0.00  0.00    +0.046 A 
ATOM     20  C   UNL     1     -15.396  -6.817  14.179  0.00  0.00    +0.001 A 
ATOM     23  C   UNL     1     -15.519  -5.520  13.683  0.00  0.00    +0.004 A 
BRANCH  15   2
ATOM      2  O   UNL     1     -12.018  -4.679  13.054  0.00  0.00    -0.495 OA
ATOM     24  C   UNL     1     -12.232  -3.547  12.213  0.00  0.00    +0.277 C 
ENDBRANCH  15   2
ENDBRANCH  11  12
ENDBRANCH   3  11
TORSDOF 4
ENDMDL
