MODEL 1
REMARK VINA RESULT:      -6.6      0.000      0.000
REMARK  Name = 51137959
REMARK  7 active torsions:
REMARK  status: ('A' for Active; 'I' for Inactive)
REMARK    1  A    between atoms: N_5  and  C_22
REMARK    2  A    between atoms: C_6  and  C_8
REMARK    3  A    between atoms: C_7  and  C_17
REMARK    4  A    between atoms: C_8  and  C_13
REMARK    5  A    between atoms: C_13  and  C_18
REMARK    6  A    between atoms: C_13  and  C_19
REMARK    7  A    between atoms: C_22  and  C_23
REMARK                            x       y       z     vdW  Elec       q    Type
REMARK                         _______ _______ _______ _____ _____    ______ ____
ROOT
ATOM      3  N   UNL     1      -5.673 -10.077  15.082  0.00  0.00    -0.299 NA
ATOM      4  N   UNL     1      -8.307 -10.504  19.369  0.00  0.00    -0.360 N 
ATOM      6  C   UNL     1      -4.834 -10.875  15.986  0.00  0.00    +0.085 C 
ATOM      7  C   UNL     1      -7.003 -10.620  14.848  0.00  0.00    +0.145 C 
ATOM      9  C   UNL     1      -5.333 -10.996  17.430  0.00  0.00    -0.021 A 
ATOM     10  C   UNL     1      -6.657 -10.703  17.868  0.00  0.00    +0.008 A 
ATOM     11  C   UNL     1      -8.043  -9.964  15.754  0.00  0.00    +0.065 C 
ATOM     12  C   UNL     1      -7.854 -10.261  17.205  0.00  0.00    -0.020 A 
ATOM     14  C   UNL     1      -6.989 -10.867  19.217  0.00  0.00    +0.047 A 
ATOM     15  C   UNL     1      -4.449 -11.509  18.413  0.00  0.00    +0.006 A 
ATOM     16  C   UNL     1      -8.837 -10.143  18.166  0.00  0.00    +0.087 A 
ATOM     20  C   UNL     1      -6.090 -11.330  20.179  0.00  0.00    +0.026 A 
ATOM     21  C   UNL     1      -4.812 -11.662  19.750  0.00  0.00    +0.002 A 
ATOM     27  H   UNL     1      -5.719  -9.107  15.390  0.00  0.00    +0.123 HD
ATOM     28  H   UNL     1      -8.812 -10.520  20.245  0.00  0.00    +0.165 HD
ENDROOT
BRANCH   7  17
ATOM      1  O   UNL     1      -8.168 -10.906  12.785  0.00  0.00    -0.274 OA
ATOM      5  N   UNL     1      -6.534  -9.255  12.938  0.00  0.00    -0.307 N 
ATOM     17  C   UNL     1      -7.317 -10.289  13.421  0.00  0.00    +0.231 C 
ATOM     29  H   UNL     1      -5.868  -8.797  13.554  0.00  0.00    +0.149 HD
BRANCH   5  22
ATOM     22  C   UNL     1      -6.625  -8.758  11.585  0.00  0.00    +0.178 C 
BRANCH  22  23
ATOM      2  O   UNL     1      -4.357  -9.625  11.473  0.00  0.00    -0.466 OA
ATOM     23  C   UNL     1      -5.337  -8.935  10.833  0.00  0.00    +0.122 A 
ATOM     24  C   UNL     1      -4.914  -8.536   9.587  0.00  0.00    +0.046 A 
ATOM     25  C   UNL     1      -3.588  -9.012   9.453  0.00  0.00    +0.041 A 
ATOM     26  C   UNL     1      -3.296  -9.668  10.625  0.00  0.00    +0.195 A 
ENDBRANCH  22  23
ENDBRANCH   5  22
ENDBRANCH   7  17
BRANCH   6   8
ATOM      8  C   UNL     1      -3.440 -10.230  15.896  0.00  0.00    +0.026 C 
BRANCH   8  13
ATOM     13  C   UNL     1      -2.368 -11.194  15.375  0.00  0.00    -0.015 C 
ATOM     18  C   UNL     1      -0.983 -10.643  15.725  0.00  0.00    +0.007 C 
ATOM     19  C   UNL     1      -2.465 -11.424  13.866  0.00  0.00    +0.007 C 
ENDBRANCH   8  13
ENDBRANCH   6   8
TORSDOF 5
ENDMDL
MODEL 2
REMARK VINA RESULT:      -6.5     25.939     28.012
REMARK  Name = 51137959
REMARK  7 active torsions:
REMARK  status: ('A' for Active; 'I' for Inactive)
REMARK    1  A    between atoms: N_5  and  C_22
REMARK    2  A    between atoms: C_6  and  C_8
REMARK    3  A    between atoms: C_7  and  C_17
REMARK    4  A    between atoms: C_8  and  C_13
REMARK    5  A    between atoms: C_13  and  C_18
REMARK    6  A    between atoms: C_13  and  C_19
REMARK    7  A    between atoms: C_22  and  C_23
REMARK                            x       y       z     vdW  Elec       q    Type
REMARK                         _______ _______ _______ _____ _____    ______ ____
ROOT
ATOM      3  N   UNL     1      14.392   9.047  18.886  0.00  0.00    -0.299 NA
ATOM      4  N   UNL     1      10.864  10.450  22.215  0.00  0.00    -0.360 N 
ATOM      6  C   UNL     1      13.575   7.851  19.126  0.00  0.00    +0.085 C 
ATOM      7  C   UNL     1      13.649  10.212  18.428  0.00  0.00    +0.145 C 
ATOM      9  C   UNL     1      12.536   7.964  20.247  0.00  0.00    -0.021 A 
ATOM     10  C   UNL     1      12.078   9.186  20.820  0.00  0.00    +0.008 A 
ATOM     11  C   UNL     1      13.315  11.154  19.583  0.00  0.00    +0.065 C 
ATOM     12  C   UNL     1      12.370  10.574  20.582  0.00  0.00    -0.020 A 
ATOM     14  C   UNL     1      11.113   9.153  21.833  0.00  0.00    +0.047 A 
ATOM     15  C   UNL     1      11.911   6.781  20.715  0.00  0.00    +0.006 A 
ATOM     16  C   UNL     1      11.610  11.312  21.467  0.00  0.00    +0.087 A 
ATOM     20  C   UNL     1      10.543   7.973  22.313  0.00  0.00    +0.026 A 
ATOM     21  C   UNL     1      10.951   6.783  21.725  0.00  0.00    +0.002 A 
ATOM     27  H   UNL     1      14.960   9.271  19.703  0.00  0.00    +0.123 HD
ATOM     28  H   UNL     1      10.210  10.724  22.935  0.00  0.00    +0.165 HD
ENDROOT
BRANCH   7  17
ATOM      1  O   UNL     1      15.309  11.821  17.836  0.00  0.00    -0.274 OA
ATOM      5  N   UNL     1      14.443  10.432  16.180  0.00  0.00    -0.307 N 
ATOM     17  C   UNL     1      14.565  10.913  17.473  0.00  0.00    +0.231 C 
ATOM     29  H   UNL     1      13.808   9.663  15.987  0.00  0.00    +0.149 HD
BRANCH   5  22
ATOM     22  C   UNL     1      15.200  10.955  15.066  0.00  0.00    +0.178 C 
BRANCH  22  23
ATOM      2  O   UNL     1      14.103  11.672  13.020  0.00  0.00    -0.466 OA
ATOM     23  C   UNL     1      14.430  11.991  14.299  0.00  0.00    +0.122 A 
ATOM     24  C   UNL     1      13.964  13.244  14.620  0.00  0.00    +0.046 A 
ATOM     25  C   UNL     1      13.307  13.726  13.463  0.00  0.00    +0.041 A 
ATOM     26  C   UNL     1      13.419  12.734  12.518  0.00  0.00    +0.195 A 
ENDBRANCH  22  23
ENDBRANCH   5  22
ENDBRANCH   7  17
BRANCH   6   8
ATOM      8  C   UNL     1      14.594   6.726  19.378  0.00  0.00    +0.026 C 
BRANCH   8  13
ATOM     13  C   UNL     1      15.891   7.228  20.022  0.00  0.00    -0.015 C 
ATOM     18  C   UNL     1      17.065   6.391  19.510  0.00  0.00    +0.007 C 
ATOM     19  C   UNL     1      15.848   7.176  21.550  0.00  0.00    +0.007 C 
ENDBRANCH   8  13
ENDBRANCH   6   8
TORSDOF 5
ENDMDL
MODEL 3
REMARK VINA RESULT:      -6.5     26.400     28.980
REMARK  Name = 51137959
REMARK  7 active torsions:
REMARK  status: ('A' for Active; 'I' for Inactive)
REMARK    1  A    between atoms: N_5  and  C_22
REMARK    2  A    between atoms: C_6  and  C_8
REMARK    3  A    between atoms: C_7  and  C_17
REMARK    4  A    between atoms: C_8  and  C_13
REMARK    5  A    between atoms: C_13  and  C_18
REMARK    6  A    between atoms: C_13  and  C_19
REMARK    7  A    between atoms: C_22  and  C_23
REMARK                            x       y       z     vdW  Elec       q    Type
REMARK                         _______ _______ _______ _____ _____    ______ ____
ROOT
ATOM      3  N   UNL     1      15.088   8.659  20.419  0.00  0.00    -0.299 NA
ATOM      4  N   UNL     1      10.427   7.422  21.917  0.00  0.00    -0.360 N 
ATOM      6  C   UNL     1      14.705   9.676  21.407  0.00  0.00    +0.085 C 
ATOM      7  C   UNL     1      15.021   7.287  20.900  0.00  0.00    +0.145 C 
ATOM      9  C   UNL     1      13.251   9.630  21.885  0.00  0.00    -0.021 A 
ATOM     10  C   UNL     1      12.368   8.523  21.723  0.00  0.00    +0.008 A 
ATOM     11  C   UNL     1      13.708   6.616  20.499  0.00  0.00    +0.065 C 
ATOM     12  C   UNL     1      12.502   7.214  21.143  0.00  0.00    -0.020 A 
ATOM     14  C   UNL     1      11.062   8.604  22.218  0.00  0.00    +0.047 A 
ATOM     15  C   UNL     1      12.741  10.734  22.616  0.00  0.00    +0.006 A 
ATOM     16  C   UNL     1      11.285   6.578  21.276  0.00  0.00    +0.087 A 
ATOM     20  C   UNL     1      10.564   9.719  22.895  0.00  0.00    +0.026 A 
ATOM     21  C   UNL     1      11.435  10.782  23.098  0.00  0.00    +0.002 A 
ATOM     27  H   UNL     1      14.559   8.773  19.555  0.00  0.00    +0.123 HD
ATOM     28  H   UNL     1       9.469   7.206  22.155  0.00  0.00    +0.165 HD
ENDROOT
BRANCH   7  17
ATOM      1  O   UNL     1      16.002   5.933  19.196  0.00  0.00    -0.274 OA
ATOM      5  N   UNL     1      17.348   6.727  20.921  0.00  0.00    -0.307 N 
ATOM     17  C   UNL     1      16.158   6.578  20.230  0.00  0.00    +0.231 C 
ATOM     29  H   UNL     1      17.375   7.299  21.761  0.00  0.00    +0.149 HD
BRANCH   5  22
ATOM     22  C   UNL     1      18.591   6.124  20.497  0.00  0.00    +0.178 C 
BRANCH  22  23
ATOM      2  O   UNL     1      19.734   6.190  22.640  0.00  0.00    -0.466 OA
ATOM     23  C   UNL     1      19.751   6.575  21.337  0.00  0.00    +0.122 A 
ATOM     24  C   UNL     1      20.873   7.322  21.067  0.00  0.00    +0.046 A 
ATOM     25  C   UNL     1      21.593   7.402  22.283  0.00  0.00    +0.041 A 
ATOM     26  C   UNL     1      20.860   6.698  23.209  0.00  0.00    +0.195 A 
ENDBRANCH  22  23
ENDBRANCH   5  22
ENDBRANCH   7  17
BRANCH   6   8
ATOM      8  C   UNL     1      15.067  11.017  20.745  0.00  0.00    +0.026 C 
BRANCH   8  13
ATOM     13  C   UNL     1      14.787  11.035  19.238  0.00  0.00    -0.015 C 
ATOM     18  C   UNL     1      15.857  11.875  18.537  0.00  0.00    +0.007 C 
ATOM     19  C   UNL     1      13.399  11.585  18.904  0.00  0.00    +0.007 C 
ENDBRANCH   8  13
ENDBRANCH   6   8
TORSDOF 5
ENDMDL
MODEL 4
REMARK VINA RESULT:      -6.4      2.696      5.951
REMARK  Name = 51137959
REMARK  7 active torsions:
REMARK  status: ('A' for Active; 'I' for Inactive)
REMARK    1  A    between atoms: N_5  and  C_22
REMARK    2  A    between atoms: C_6  and  C_8
REMARK    3  A    between atoms: C_7  and  C_17
REMARK    4  A    between atoms: C_8  and  C_13
REMARK    5  A    between atoms: C_13  and  C_18
REMARK    6  A    between atoms: C_13  and  C_19
REMARK    7  A    between atoms: C_22  and  C_23
REMARK                            x       y       z     vdW  Elec       q    Type
REMARK                         _______ _______ _______ _____ _____    ______ ____
ROOT
ATOM      3  N   UNL     1      -6.541 -11.176  16.222  0.00  0.00    -0.299 NA
ATOM      4  N   UNL     1      -3.099 -10.358  12.619  0.00  0.00    -0.360 N 
ATOM      6  C   UNL     1      -5.277 -10.928  16.929  0.00  0.00    +0.085 C 
ATOM      7  C   UNL     1      -6.950 -10.115  15.314  0.00  0.00    +0.145 C 
ATOM      9  C   UNL     1      -4.027 -10.830  16.049  0.00  0.00    -0.021 A 
ATOM     10  C   UNL     1      -4.029 -10.624  14.640  0.00  0.00    +0.008 A 
ATOM     11  C   UNL     1      -6.541 -10.420  13.875  0.00  0.00    +0.065 C 
ATOM     12  C   UNL     1      -5.064 -10.442  13.657  0.00  0.00    -0.020 A 
ATOM     14  C   UNL     1      -2.813 -10.540  13.952  0.00  0.00    +0.047 A 
ATOM     15  C   UNL     1      -2.753 -10.869  16.673  0.00  0.00    +0.006 A 
ATOM     16  C   UNL     1      -4.447 -10.292  12.432  0.00  0.00    +0.087 A 
ATOM     20  C   UNL     1      -1.569 -10.627  14.579  0.00  0.00    +0.026 A 
ATOM     21  C   UNL     1      -1.560 -10.781  15.959  0.00  0.00    +0.002 A 
ATOM     27  H   UNL     1      -6.522 -12.079  15.749  0.00  0.00    +0.123 HD
ATOM     28  H   UNL     1      -2.406 -10.268  11.889  0.00  0.00    +0.165 HD
ENDROOT
BRANCH   7  17
ATOM      1  O   UNL     1      -9.065 -10.773  16.202  0.00  0.00    -0.274 OA
ATOM      5  N   UNL     1      -9.002  -9.206  14.481  0.00  0.00    -0.307 N 
ATOM     17  C   UNL     1      -8.445 -10.077  15.402  0.00  0.00    +0.231 C 
ATOM     29  H   UNL     1      -8.397  -8.661  13.872  0.00  0.00    +0.149 HD
BRANCH   5  22
ATOM     22  C   UNL     1     -10.425  -9.002  14.345  0.00  0.00    +0.178 C 
BRANCH  22  23
ATOM      2  O   UNL     1     -11.714  -6.942  14.322  0.00  0.00    -0.466 OA
ATOM     23  C   UNL     1     -10.882  -7.748  15.032  0.00  0.00    +0.122 A 
ATOM     24  C   UNL     1     -10.633  -7.212  16.274  0.00  0.00    +0.046 A 
ATOM     25  C   UNL     1     -11.360  -5.999  16.331  0.00  0.00    +0.041 A 
ATOM     26  C   UNL     1     -12.001  -5.880  15.120  0.00  0.00    +0.195 A 
ENDBRANCH  22  23
ENDBRANCH   5  22
ENDBRANCH   7  17
BRANCH   6   8
ATOM      8  C   UNL     1      -5.182 -12.060  17.966  0.00  0.00    +0.026 C 
BRANCH   8  13
ATOM     13  C   UNL     1      -5.894 -11.728  19.282  0.00  0.00    -0.015 C 
ATOM     18  C   UNL     1      -7.224 -12.482  19.340  0.00  0.00    +0.007 C 
ATOM     19  C   UNL     1      -6.142 -10.228  19.454  0.00  0.00    +0.007 C 
ENDBRANCH   8  13
ENDBRANCH   6   8
TORSDOF 5
ENDMDL
MODEL 5
REMARK VINA RESULT:      -6.3      2.221      6.498
REMARK  Name = 51137959
REMARK  7 active torsions:
REMARK  status: ('A' for Active; 'I' for Inactive)
REMARK    1  A    between atoms: N_5  and  C_22
REMARK    2  A    between atoms: C_6  and  C_8
REMARK    3  A    between atoms: C_7  and  C_17
REMARK    4  A    between atoms: C_8  and  C_13
REMARK    5  A    between atoms: C_13  and  C_18
REMARK    6  A    between atoms: C_13  and  C_19
REMARK    7  A    between atoms: C_22  and  C_23
REMARK                            x       y       z     vdW  Elec       q    Type
REMARK                         _______ _______ _______ _____ _____    ______ ____
ROOT
ATOM      3  N   UNL     1      -6.348  -9.247  13.451  0.00  0.00    -0.299 NA
ATOM      4  N   UNL     1      -2.687 -11.382  16.195  0.00  0.00    -0.360 N 
ATOM      6  C   UNL     1      -5.489  -9.949  12.489  0.00  0.00    +0.085 C 
ATOM      7  C   UNL     1      -6.887 -10.085  14.513  0.00  0.00    +0.145 C 
ATOM      9  C   UNL     1      -4.191 -10.534  13.054  0.00  0.00    -0.021 A 
ATOM     10  C   UNL     1      -3.920 -10.746  14.437  0.00  0.00    +0.008 A 
ATOM     11  C   UNL     1      -6.049  -9.983  15.786  0.00  0.00    +0.065 C 
ATOM     12  C   UNL     1      -4.668 -10.533  15.647  0.00  0.00    -0.020 A 
ATOM     14  C   UNL     1      -2.695 -11.302  14.822  0.00  0.00    +0.047 A 
ATOM     15  C   UNL     1      -3.194 -10.977  12.147  0.00  0.00    +0.006 A 
ATOM     16  C   UNL     1      -3.869 -10.928  16.700  0.00  0.00    +0.087 A 
ATOM     20  C   UNL     1      -1.707 -11.688  13.916  0.00  0.00    +0.026 A 
ATOM     21  C   UNL     1      -1.984 -11.528  12.564  0.00  0.00    +0.002 A 
ATOM     27  H   UNL     1      -5.875  -8.428  13.832  0.00  0.00    +0.123 HD
ATOM     28  H   UNL     1      -1.920 -11.743  16.747  0.00  0.00    +0.165 HD
ENDROOT
BRANCH   7  17
ATOM      1  O   UNL     1      -9.187  -9.712  13.998  0.00  0.00    -0.274 OA
ATOM      5  N   UNL     1      -8.318  -8.844  15.976  0.00  0.00    -0.307 N 
ATOM     17  C   UNL     1      -8.257  -9.545  14.784  0.00  0.00    +0.231 C 
ATOM     29  H   UNL     1      -7.493  -8.779  16.565  0.00  0.00    +0.149 HD
BRANCH   5  22
ATOM     22  C   UNL     1      -9.521  -8.205  16.458  0.00  0.00    +0.178 C 
BRANCH  22  23
ATOM      2  O   UNL     1      -9.389  -9.861  18.232  0.00  0.00    -0.466 OA
ATOM     23  C   UNL     1     -10.186  -9.003  17.543  0.00  0.00    +0.122 A 
ATOM     24  C   UNL     1     -11.476  -9.057  18.014  0.00  0.00    +0.046 A 
ATOM     25  C   UNL     1     -11.473 -10.011  19.059  0.00  0.00    +0.041 A 
ATOM     26  C   UNL     1     -10.181 -10.471  19.153  0.00  0.00    +0.195 A 
ENDBRANCH  22  23
ENDBRANCH   5  22
ENDBRANCH   7  17
BRANCH   6   8
ATOM      8  C   UNL     1      -5.237  -8.923  11.370  0.00  0.00    +0.026 C 
BRANCH   8  13
ATOM     13  C   UNL     1      -5.644  -9.437   9.985  0.00  0.00    -0.015 C 
ATOM     18  C   UNL     1      -4.485  -9.224   9.008  0.00  0.00    +0.007 C 
ATOM     19  C   UNL     1      -6.903  -8.753   9.450  0.00  0.00    +0.007 C 
ENDBRANCH   8  13
ENDBRANCH   6   8
TORSDOF 5
ENDMDL
MODEL 6
REMARK VINA RESULT:      -6.3     23.577     26.206
REMARK  Name = 51137959
REMARK  7 active torsions:
REMARK  status: ('A' for Active; 'I' for Inactive)
REMARK    1  A    between atoms: N_5  and  C_22
REMARK    2  A    between atoms: C_6  and  C_8
REMARK    3  A    between atoms: C_7  and  C_17
REMARK    4  A    between atoms: C_8  and  C_13
REMARK    5  A    between atoms: C_13  and  C_18
REMARK    6  A    between atoms: C_13  and  C_19
REMARK    7  A    between atoms: C_22  and  C_23
REMARK                            x       y       z     vdW  Elec       q    Type
REMARK                         _______ _______ _______ _____ _____    ______ ____
ROOT
ATOM      3  N   UNL     1       9.794   7.095   3.337  0.00  0.00    -0.299 NA
ATOM      4  N   UNL     1       9.258   6.458   8.318  0.00  0.00    -0.360 N 
ATOM      6  C   UNL     1      10.095   8.400   3.939  0.00  0.00    +0.085 C 
ATOM      7  C   UNL     1      10.607   5.994   3.832  0.00  0.00    +0.145 C 
ATOM      9  C   UNL     1       9.826   8.522   5.442  0.00  0.00    -0.021 A 
ATOM     10  C   UNL     1       9.643   7.426   6.335  0.00  0.00    +0.008 A 
ATOM     11  C   UNL     1       9.885   5.213   4.929  0.00  0.00    +0.065 C 
ATOM     12  C   UNL     1       9.656   5.997   6.179  0.00  0.00    -0.020 A 
ATOM     14  C   UNL     1       9.415   7.673   7.693  0.00  0.00    +0.047 A 
ATOM     15  C   UNL     1       9.829   9.813   6.031  0.00  0.00    +0.006 A 
ATOM     16  C   UNL     1       9.406   5.444   7.418  0.00  0.00    +0.087 A 
ATOM     20  C   UNL     1       9.375   8.954   8.245  0.00  0.00    +0.026 A 
ATOM     21  C   UNL     1       9.600  10.025   7.389  0.00  0.00    +0.002 A 
ATOM     27  H   UNL     1       8.800   6.881   3.410  0.00  0.00    +0.123 HD
ATOM     28  H   UNL     1       9.077   6.337   9.305  0.00  0.00    +0.165 HD
ENDROOT
BRANCH   7  17
ATOM      1  O   UNL     1      10.234   5.282   1.585  0.00  0.00    -0.274 OA
ATOM      5  N   UNL     1      11.702   4.068   2.924  0.00  0.00    -0.307 N 
ATOM     17  C   UNL     1      10.818   5.098   2.650  0.00  0.00    +0.231 C 
ATOM     29  H   UNL     1      12.147   4.015   3.836  0.00  0.00    +0.149 HD
BRANCH   5  22
ATOM     22  C   UNL     1      12.059   3.054   1.959  0.00  0.00    +0.178 C 
BRANCH  22  23
ATOM      2  O   UNL     1      14.479   3.228   1.818  0.00  0.00    -0.466 OA
ATOM     23  C   UNL     1      13.293   3.423   1.186  0.00  0.00    +0.122 A 
ATOM     24  C   UNL     1      13.494   3.936  -0.074  0.00  0.00    +0.046 A 
ATOM     25  C   UNL     1      14.895   4.064  -0.226  0.00  0.00    +0.041 A 
ATOM     26  C   UNL     1      15.450   3.620   0.951  0.00  0.00    +0.195 A 
ENDBRANCH  22  23
ENDBRANCH   5  22
ENDBRANCH   7  17
BRANCH   6   8
ATOM      8  C   UNL     1       9.281   9.409   3.110  0.00  0.00    +0.026 C 
BRANCH   8  13
ATOM     13  C   UNL     1       7.853   8.933   2.823  0.00  0.00    -0.015 C 
ATOM     18  C   UNL     1       7.502   9.244   1.366  0.00  0.00    +0.007 C 
ATOM     19  C   UNL     1       6.820   9.574   3.751  0.00  0.00    +0.007 C 
ENDBRANCH   8  13
ENDBRANCH   6   8
TORSDOF 5
ENDMDL
MODEL 7
REMARK VINA RESULT:      -6.2      2.462      6.907
REMARK  Name = 51137959
REMARK  7 active torsions:
REMARK  status: ('A' for Active; 'I' for Inactive)
REMARK    1  A    between atoms: N_5  and  C_22
REMARK    2  A    between atoms: C_6  and  C_8
REMARK    3  A    between atoms: C_7  and  C_17
REMARK    4  A    between atoms: C_8  and  C_13
REMARK    5  A    between atoms: C_13  and  C_18
REMARK    6  A    between atoms: C_13  and  C_19
REMARK    7  A    between atoms: C_22  and  C_23
REMARK                            x       y       z     vdW  Elec       q    Type
REMARK                         _______ _______ _______ _____ _____    ______ ____
ROOT
ATOM      3  N   UNL     1      -3.769 -11.522  14.851  0.00  0.00    -0.299 NA
ATOM      4  N   UNL     1      -6.412  -9.004  11.362  0.00  0.00    -0.360 N 
ATOM      6  C   UNL     1      -2.782 -11.038  13.877  0.00  0.00    +0.085 C 
ATOM      7  C   UNL     1      -4.598 -10.483  15.445  0.00  0.00    +0.145 C 
ATOM      9  C   UNL     1      -3.352 -10.393  12.610  0.00  0.00    -0.021 A 
ATOM     10  C   UNL     1      -4.691  -9.929  12.457  0.00  0.00    +0.008 A 
ATOM     11  C   UNL     1      -5.943 -10.363  14.732  0.00  0.00    +0.065 C 
ATOM     12  C   UNL     1      -5.840  -9.888  13.321  0.00  0.00    -0.020 A 
ATOM     14  C   UNL     1      -5.084  -9.344  11.248  0.00  0.00    +0.047 A 
ATOM     15  C   UNL     1      -2.480 -10.158  11.516  0.00  0.00    +0.006 A 
ATOM     16  C   UNL     1      -6.874  -9.322  12.604  0.00  0.00    +0.087 A 
ATOM     20  C   UNL     1      -4.222  -9.164  10.165  0.00  0.00    +0.026 A 
ATOM     21  C   UNL     1      -2.904  -9.570  10.326  0.00  0.00    +0.002 A 
ATOM     27  H   UNL     1      -4.341 -12.266  14.452  0.00  0.00    +0.123 HD
ATOM     28  H   UNL     1      -6.959  -8.566  10.633  0.00  0.00    +0.165 HD
ENDROOT
BRANCH   7  17
ATOM      1  O   UNL     1      -4.064 -11.698  17.429  0.00  0.00    -0.274 OA
ATOM      5  N   UNL     1      -5.984 -10.382  17.394  0.00  0.00    -0.307 N 
ATOM     17  C   UNL     1      -4.829 -10.924  16.858  0.00  0.00    +0.231 C 
ATOM     29  H   UNL     1      -6.541  -9.736  16.841  0.00  0.00    +0.149 HD
BRANCH   5  22
ATOM     22  C   UNL     1      -6.445 -10.667  18.733  0.00  0.00    +0.178 C 
BRANCH  22  23
ATOM      2  O   UNL     1      -8.482 -11.066  19.997  0.00  0.00    -0.466 OA
ATOM     23  C   UNL     1      -7.942 -10.609  18.837  0.00  0.00    +0.122 A 
ATOM     24  C   UNL     1      -8.928 -10.177  17.981  0.00  0.00    +0.046 A 
ATOM     25  C   UNL     1     -10.153 -10.382  18.659  0.00  0.00    +0.041 A 
ATOM     26  C   UNL     1      -9.829 -10.923  19.881  0.00  0.00    +0.195 A 
ENDBRANCH  22  23
ENDBRANCH   5  22
ENDBRANCH   7  17
BRANCH   6   8
ATOM      8  C   UNL     1      -1.904 -12.265  13.570  0.00  0.00    +0.026 C 
BRANCH   8  13
ATOM     13  C   UNL     1      -2.720 -13.543  13.349  0.00  0.00    -0.015 C 
ATOM     18  C   UNL     1      -2.021 -14.714  14.044  0.00  0.00    +0.007 C 
ATOM     19  C   UNL     1      -2.918 -13.867  11.867  0.00  0.00    +0.007 C 
ENDBRANCH   8  13
ENDBRANCH   6   8
TORSDOF 5
ENDMDL
MODEL 8
REMARK VINA RESULT:      -6.2      2.297      6.622
REMARK  Name = 51137959
REMARK  7 active torsions:
REMARK  status: ('A' for Active; 'I' for Inactive)
REMARK    1  A    between atoms: N_5  and  C_22
REMARK    2  A    between atoms: C_6  and  C_8
REMARK    3  A    between atoms: C_7  and  C_17
REMARK    4  A    between atoms: C_8  and  C_13
REMARK    5  A    between atoms: C_13  and  C_18
REMARK    6  A    between atoms: C_13  and  C_19
REMARK    7  A    between atoms: C_22  and  C_23
REMARK                            x       y       z     vdW  Elec       q    Type
REMARK                         _______ _______ _______ _____ _____    ______ ____
ROOT
ATOM      3  N   UNL     1      -6.756 -11.053  16.404  0.00  0.00    -0.299 NA
ATOM      4  N   UNL     1      -3.444 -10.329  12.662  0.00  0.00    -0.360 N 
ATOM      6  C   UNL     1      -5.452 -10.874  17.057  0.00  0.00    +0.085 C 
ATOM      7  C   UNL     1      -7.156  -9.958  15.532  0.00  0.00    +0.145 C 
ATOM      9  C   UNL     1      -4.239 -10.818  16.123  0.00  0.00    -0.021 A 
ATOM     10  C   UNL     1      -4.295 -10.587  14.718  0.00  0.00    +0.008 A 
ATOM     11  C   UNL     1      -6.826 -10.257  14.071  0.00  0.00    +0.065 C 
ATOM     12  C   UNL     1      -5.363 -10.342  13.786  0.00  0.00    -0.020 A 
ATOM     14  C   UNL     1      -3.108 -10.547  13.978  0.00  0.00    +0.047 A 
ATOM     15  C   UNL     1      -2.942 -10.925  16.687  0.00  0.00    +0.006 A 
ATOM     16  C   UNL     1      -4.796 -10.199  12.537  0.00  0.00    +0.087 A 
ATOM     20  C   UNL     1      -1.843 -10.701  14.545  0.00  0.00    +0.026 A 
ATOM     21  C   UNL     1      -1.779 -10.878  15.921  0.00  0.00    +0.002 A 
ATOM     27  H   UNL     1      -6.800 -11.947  15.917  0.00  0.00    +0.123 HD
ATOM     28  H   UNL     1      -2.781 -10.258  11.902  0.00  0.00    +0.165 HD
ENDROOT
BRANCH   7  17
ATOM      1  O   UNL     1      -9.414 -10.516  14.998  0.00  0.00    -0.274 OA
ATOM      5  N   UNL     1      -9.005  -8.933  16.656  0.00  0.00    -0.307 N 
ATOM     17  C   UNL     1      -8.642  -9.854  15.688  0.00  0.00    +0.231 C 
ATOM     29  H   UNL     1      -8.285  -8.449  17.185  0.00  0.00    +0.149 HD
BRANCH   5  22
ATOM     22  C   UNL     1     -10.378  -8.629  16.984  0.00  0.00    +0.178 C 
BRANCH  22  23
ATOM      2  O   UNL     1      -9.871  -9.968  18.948  0.00  0.00    -0.466 OA
ATOM     23  C   UNL     1     -10.839  -9.362  18.211  0.00  0.00    +0.122 A 
ATOM     24  C   UNL     1     -12.075  -9.563  18.778  0.00  0.00    +0.046 A 
ATOM     25  C   UNL     1     -11.853 -10.343  19.938  0.00  0.00    +0.041 A 
ATOM     26  C   UNL     1     -10.497 -10.562  19.998  0.00  0.00    +0.195 A 
ENDBRANCH  22  23
ENDBRANCH   5  22
ENDBRANCH   7  17
BRANCH   6   8
ATOM      8  C   UNL     1      -5.363 -12.027  18.071  0.00  0.00    +0.026 C 
BRANCH   8  13
ATOM     13  C   UNL     1      -5.984 -11.680  19.428  0.00  0.00    -0.015 C 
ATOM     18  C   UNL     1      -7.309 -12.430  19.583  0.00  0.00    +0.007 C 
ATOM     19  C   UNL     1      -6.218 -10.178  19.601  0.00  0.00    +0.007 C 
ENDBRANCH   8  13
ENDBRANCH   6   8
TORSDOF 5
ENDMDL
MODEL 9
REMARK VINA RESULT:      -6.2     21.013     23.138
REMARK  Name = 51137959
REMARK  7 active torsions:
REMARK  status: ('A' for Active; 'I' for Inactive)
REMARK    1  A    between atoms: N_5  and  C_22
REMARK    2  A    between atoms: C_6  and  C_8
REMARK    3  A    between atoms: C_7  and  C_17
REMARK    4  A    between atoms: C_8  and  C_13
REMARK    5  A    between atoms: C_13  and  C_18
REMARK    6  A    between atoms: C_13  and  C_19
REMARK    7  A    between atoms: C_22  and  C_23
REMARK                            x       y       z     vdW  Elec       q    Type
REMARK                         _______ _______ _______ _____ _____    ______ ____
ROOT
ATOM      3  N   UNL     1     -13.179   9.791  20.964  0.00  0.00    -0.299 NA
ATOM      4  N   UNL     1     -10.490  11.492  17.044  0.00  0.00    -0.360 N 
ATOM      6  C   UNL     1     -12.498   8.614  20.409  0.00  0.00    +0.085 C 
ATOM      7  C   UNL     1     -12.295  10.882  21.347  0.00  0.00    +0.145 C 
ATOM      9  C   UNL     1     -11.754   8.833  19.088  0.00  0.00    -0.021 A 
ATOM     10  C   UNL     1     -11.390  10.102  18.551  0.00  0.00    +0.008 A 
ATOM     11  C   UNL     1     -12.205  11.942  20.251  0.00  0.00    +0.065 C 
ATOM     12  C   UNL     1     -11.553  11.460  18.996  0.00  0.00    -0.020 A 
ATOM     14  C   UNL     1     -10.698  10.165  17.337  0.00  0.00    +0.047 A 
ATOM     15  C   UNL     1     -11.313   7.698  18.361  0.00  0.00    +0.006 A 
ATOM     16  C   UNL     1     -10.995  12.278  18.036  0.00  0.00    +0.087 A 
ATOM     20  C   UNL     1     -10.314   9.036  16.612  0.00  0.00    +0.026 A 
ATOM     21  C   UNL     1     -10.624   7.795  17.154  0.00  0.00    +0.002 A 
ATOM     27  H   UNL     1     -13.915  10.116  20.338  0.00  0.00    +0.123 HD
ATOM     28  H   UNL     1     -10.015  11.832  16.219  0.00  0.00    +0.165 HD
ENDROOT
BRANCH   7  17
ATOM      1  O   UNL     1     -13.591  12.519  22.505  0.00  0.00    -0.274 OA
ATOM      5  N   UNL     1     -12.638  10.772  23.714  0.00  0.00    -0.307 N 
ATOM     17  C   UNL     1     -12.923  11.489  22.564  0.00  0.00    +0.231 C 
ATOM     29  H   UNL     1     -12.088   9.920  23.653  0.00  0.00    +0.149 HD
BRANCH   5  22
ATOM     22  C   UNL     1     -13.107  11.159  25.025  0.00  0.00    +0.178 C 
BRANCH  22  23
ATOM      2  O   UNL     1     -10.878  10.596  25.812  0.00  0.00    -0.466 OA
ATOM     23  C   UNL     1     -12.200  10.665  26.115  0.00  0.00    +0.122 A 
ATOM     24  C   UNL     1     -12.423  10.250  27.407  0.00  0.00    +0.046 A 
ATOM     25  C   UNL     1     -11.155   9.904  27.932  0.00  0.00    +0.041 A 
ATOM     26  C   UNL     1     -10.248  10.132  26.924  0.00  0.00    +0.195 A 
ENDBRANCH  22  23
ENDBRANCH   5  22
ENDBRANCH   7  17
BRANCH   6   8
ATOM      8  C   UNL     1     -13.598   7.544  20.296  0.00  0.00    +0.026 C 
BRANCH   8  13
ATOM     13  C   UNL     1     -13.647   6.606  21.507  0.00  0.00    -0.015 C 
ATOM     18  C   UNL     1     -12.333   5.825  21.593  0.00  0.00    +0.007 C 
ATOM     19  C   UNL     1     -14.824   5.631  21.450  0.00  0.00    +0.007 C 
ENDBRANCH   8  13
ENDBRANCH   6   8
TORSDOF 5
ENDMDL
MODEL 10
REMARK VINA RESULT:      -6.1     28.034     30.897
REMARK  Name = 51137959
REMARK  7 active torsions:
REMARK  status: ('A' for Active; 'I' for Inactive)
REMARK    1  A    between atoms: N_5  and  C_22
REMARK    2  A    between atoms: C_6  and  C_8
REMARK    3  A    between atoms: C_7  and  C_17
REMARK    4  A    between atoms: C_8  and  C_13
REMARK    5  A    between atoms: C_13  and  C_18
REMARK    6  A    between atoms: C_13  and  C_19
REMARK    7  A    between atoms: C_22  and  C_23
REMARK                            x       y       z     vdW  Elec       q    Type
REMARK                         _______ _______ _______ _____ _____    ______ ____
ROOT
ATOM      3  N   UNL     1      18.104   8.451  22.047  0.00  0.00    -0.299 NA
ATOM      4  N   UNL     1      21.327   5.116  20.051  0.00  0.00    -0.360 N 
ATOM      6  C   UNL     1      19.321   9.212  21.737  0.00  0.00    +0.085 C 
ATOM      7  C   UNL     1      17.521   7.747  20.914  0.00  0.00    +0.145 C 
ATOM      9  C   UNL     1      20.529   8.386  21.285  0.00  0.00    -0.021 A 
ATOM     10  C   UNL     1      20.476   7.038  20.826  0.00  0.00    +0.008 A 
ATOM     11  C   UNL     1      17.954   6.283  20.881  0.00  0.00    +0.065 C 
ATOM     12  C   UNL     1      19.413   6.089  20.631  0.00  0.00    -0.020 A 
ATOM     14  C   UNL     1      21.655   6.398  20.428  0.00  0.00    +0.047 A 
ATOM     15  C   UNL     1      21.801   9.012  21.237  0.00  0.00    +0.006 A 
ATOM     16  C   UNL     1      19.983   4.922  20.164  0.00  0.00    +0.087 A 
ATOM     20  C   UNL     1      22.906   7.017  20.433  0.00  0.00    +0.026 A 
ATOM     21  C   UNL     1      22.957   8.346  20.834  0.00  0.00    +0.002 A 
ATOM     27  H   UNL     1      18.257   7.821  22.833  0.00  0.00    +0.123 HD
ATOM     28  H   UNL     1      21.988   4.426  19.721  0.00  0.00    +0.165 HD
ENDROOT
BRANCH   7  17
ATOM      1  O   UNL     1      15.546   8.472  22.041  0.00  0.00    -0.274 OA
ATOM      5  N   UNL     1      15.342   7.051  20.208  0.00  0.00    -0.307 N 
ATOM     17  C   UNL     1      16.040   7.816  21.127  0.00  0.00    +0.231 C 
ATOM     29  H   UNL     1      15.846   6.557  19.477  0.00  0.00    +0.149 HD
BRANCH   5  22
ATOM     22  C   UNL     1      13.903   6.930  20.210  0.00  0.00    +0.178 C 
BRANCH  22  23
ATOM      2  O   UNL     1      12.097   7.394  18.651  0.00  0.00    -0.466 OA
ATOM     23  C   UNL     1      13.261   7.834  19.197  0.00  0.00    +0.122 A 
ATOM     24  C   UNL     1      13.605   9.061  18.680  0.00  0.00    +0.046 A 
ATOM     25  C   UNL     1      12.587   9.396  17.756  0.00  0.00    +0.041 A 
ATOM     26  C   UNL     1      11.694   8.352  17.775  0.00  0.00    +0.195 A 
ENDBRANCH  22  23
ENDBRANCH   5  22
ENDBRANCH   7  17
BRANCH   6   8
ATOM      8  C   UNL     1      19.607  10.025  23.012  0.00  0.00    +0.026 C 
BRANCH   8  13
ATOM     13  C   UNL     1      19.586  11.539  22.772  0.00  0.00    -0.015 C 
ATOM     18  C   UNL     1      19.168  11.815  21.326  0.00  0.00    +0.007 C 
ATOM     19  C   UNL     1      20.938  12.198  23.053  0.00  0.00    +0.007 C 
ENDBRANCH   8  13
ENDBRANCH   6   8
TORSDOF 5
ENDMDL
