MODEL 1
REMARK VINA RESULT:      -6.6      0.000      0.000
REMARK  Name = 11883264
REMARK  7 active torsions:
REMARK  status: ('A' for Active; 'I' for Inactive)
REMARK    1  A    between atoms: O_3  and  C_12
REMARK    2  A    between atoms: O_3  and  C_16
REMARK    3  A    between atoms: O_6  and  C_23
REMARK    4  A    between atoms: O_6  and  C_24
REMARK    5  A    between atoms: N_7  and  C_11
REMARK    6  A    between atoms: C_15  and  C_17
REMARK    7  A    between atoms: C_16  and  C_18
REMARK                            x       y       z     vdW  Elec       q    Type
REMARK                         _______ _______ _______ _____ _____    ______ ____
ROOT
ATOM      1  O   UNL     1      14.560   8.144  18.504  0.00  0.00    -0.369 OA
ATOM      2  O   UNL     1      12.830   8.070  21.046  0.00  0.00    -0.369 OA
ATOM      9  C   UNL     1      14.046   7.379  20.690  0.00  0.00    +0.172 C 
ATOM     10  C   UNL     1      13.950   7.053  19.213  0.00  0.00    +0.180 C 
ATOM     11  C   UNL     1      15.219   8.323  20.780  0.00  0.00    +0.130 C 
ATOM     12  C   UNL     1      12.458   7.001  18.984  0.00  0.00    +0.176 C 
ATOM     13  C   UNL     1      15.180   9.036  19.443  0.00  0.00    +0.185 C 
ATOM     14  C   UNL     1      11.957   8.087  19.908  0.00  0.00    +0.194 C 
ENDROOT
BRANCH  11   7
ATOM      4  O   UNL     1      17.738   9.246  21.869  0.00  0.00    -0.270 OA
ATOM      7  N   UNL     1      16.480   7.554  20.902  0.00  0.00    -0.304 N 
ATOM     15  C   UNL     1      17.636   8.098  21.443  0.00  0.00    +0.244 C 
ATOM     25  H   UNL     1      16.498   6.638  20.465  0.00  0.00    +0.149 HD
BRANCH  15  17
ATOM     17  C   UNL     1      18.824   7.206  21.470  0.00  0.00    +0.037 A 
ATOM     19  C   UNL     1      19.750   7.360  22.480  0.00  0.00    +0.016 A 
ATOM     20  C   UNL     1      18.963   6.252  20.483  0.00  0.00    +0.016 A 
ATOM     21  C   UNL     1      20.865   6.522  22.504  0.00  0.00    +0.046 A 
ATOM     22  C   UNL     1      20.077   5.415  20.507  0.00  0.00    +0.046 A 
ATOM     23  C   UNL     1      21.029   5.550  21.518  0.00  0.00    +0.120 A 
BRANCH  23   6
ATOM      6  O   UNL     1      22.117   4.733  21.541  0.00  0.00    -0.495 OA
ATOM     24  C   UNL     1      21.882   3.332  21.409  0.00  0.00    +0.277 C 
ENDBRANCH  23   6
ENDBRANCH  15  17
ENDBRANCH  11   7
BRANCH  12   3
ATOM      3  O   UNL     1      12.087   7.229  17.644  0.00  0.00    -0.362 OA
BRANCH   3  16
ATOM     16  C   UNL     1      11.485   8.509  17.468  0.00  0.00    +0.255 C 
BRANCH  16  18
ATOM      5  O   UNL     1      12.178   8.984  15.202  0.00  0.00    -0.274 OA
ATOM      8  N   UNL     1      12.954  10.323  16.905  0.00  0.00    -0.327 N 
ATOM     18  C   UNL     1      12.224   9.272  16.394  0.00  0.00    +0.236 C 
ATOM     26  H   UNL     1      12.975  10.539  17.896  0.00  0.00    +0.145 HD
ATOM     27  H   UNL     1      13.501  10.923  16.296  0.00  0.00    +0.145 HD
ENDBRANCH  16  18
ENDBRANCH   3  16
ENDBRANCH  12   3
TORSDOF 6
ENDMDL
MODEL 2
REMARK VINA RESULT:      -6.3      2.291      3.290
REMARK  Name = 11883264
REMARK  7 active torsions:
REMARK  status: ('A' for Active; 'I' for Inactive)
REMARK    1  A    between atoms: O_3  and  C_12
REMARK    2  A    between atoms: O_3  and  C_16
REMARK    3  A    between atoms: O_6  and  C_23
REMARK    4  A    between atoms: O_6  and  C_24
REMARK    5  A    between atoms: N_7  and  C_11
REMARK    6  A    between atoms: C_15  and  C_17
REMARK    7  A    between atoms: C_16  and  C_18
REMARK                            x       y       z     vdW  Elec       q    Type
REMARK                         _______ _______ _______ _____ _____    ______ ____
ROOT
ATOM      1  O   UNL     1      14.085   7.435  21.258  0.00  0.00    -0.369 OA
ATOM      2  O   UNL     1      14.468   9.279  18.826  0.00  0.00    -0.369 OA
ATOM      9  C   UNL     1      15.389   8.815  19.835  0.00  0.00    +0.172 C 
ATOM     10  C   UNL     1      14.622   8.762  21.141  0.00  0.00    +0.180 C 
ATOM     11  C   UNL     1      15.758   7.376  19.572  0.00  0.00    +0.130 C 
ATOM     12  C   UNL     1      13.535   9.789  20.925  0.00  0.00    +0.176 C 
ATOM     13  C   UNL     1      14.610   6.614  20.205  0.00  0.00    +0.185 C 
ATOM     14  C   UNL     1      13.224   9.617  19.456  0.00  0.00    +0.194 C 
ENDROOT
BRANCH  11   7
ATOM      4  O   UNL     1      17.827   5.563  18.668  0.00  0.00    -0.270 OA
ATOM      7  N   UNL     1      17.025   7.042  20.265  0.00  0.00    -0.304 N 
ATOM     15  C   UNL     1      17.951   6.154  19.738  0.00  0.00    +0.244 C 
ATOM     25  H   UNL     1      17.138   7.406  21.206  0.00  0.00    +0.149 HD
BRANCH  15  17
ATOM     17  C   UNL     1      19.158   5.905  20.568  0.00  0.00    +0.037 A 
ATOM     19  C   UNL     1      19.388   6.706  21.667  0.00  0.00    +0.016 A 
ATOM     20  C   UNL     1      20.011   4.881  20.212  0.00  0.00    +0.016 A 
ATOM     21  C   UNL     1      20.522   6.472  22.445  0.00  0.00    +0.046 A 
ATOM     22  C   UNL     1      21.144   4.646  20.991  0.00  0.00    +0.046 A 
ATOM     23  C   UNL     1      21.400   5.442  22.107  0.00  0.00    +0.120 A 
BRANCH  23   6
ATOM      6  O   UNL     1      22.506   5.214  22.866  0.00  0.00    -0.495 OA
ATOM     24  C   UNL     1      22.849   3.853  23.123  0.00  0.00    +0.277 C 
ENDBRANCH  23   6
ENDBRANCH  15  17
ENDBRANCH  11   7
BRANCH  12   3
ATOM      3  O   UNL     1      12.401   9.586  21.736  0.00  0.00    -0.362 OA
BRANCH   3  16
ATOM     16  C   UNL     1      11.274   9.154  20.979  0.00  0.00    +0.255 C 
BRANCH  16  18
ATOM      5  O   UNL     1      10.138   7.766  22.598  0.00  0.00    -0.274 OA
ATOM      8  N   UNL     1      11.057   6.775  20.735  0.00  0.00    -0.327 N 
ATOM     18  C   UNL     1      10.756   7.851  21.542  0.00  0.00    +0.236 C 
ATOM     26  H   UNL     1      11.570   6.874  19.866  0.00  0.00    +0.145 HD
ATOM     27  H   UNL     1      10.770   5.836  20.990  0.00  0.00    +0.145 HD
ENDBRANCH  16  18
ENDBRANCH   3  16
ENDBRANCH  12   3
TORSDOF 6
ENDMDL
MODEL 3
REMARK VINA RESULT:      -6.1     29.033     32.287
REMARK  Name = 11883264
REMARK  7 active torsions:
REMARK  status: ('A' for Active; 'I' for Inactive)
REMARK    1  A    between atoms: O_3  and  C_12
REMARK    2  A    between atoms: O_3  and  C_16
REMARK    3  A    between atoms: O_6  and  C_23
REMARK    4  A    between atoms: O_6  and  C_24
REMARK    5  A    between atoms: N_7  and  C_11
REMARK    6  A    between atoms: C_15  and  C_17
REMARK    7  A    between atoms: C_16  and  C_18
REMARK                            x       y       z     vdW  Elec       q    Type
REMARK                         _______ _______ _______ _____ _____    ______ ____
ROOT
ATOM      1  O   UNL     1     -15.027   4.260  31.096  0.00  0.00    -0.369 OA
ATOM      2  O   UNL     1     -14.702   3.266  33.989  0.00  0.00    -0.369 OA
ATOM      9  C   UNL     1     -13.947   4.216  33.208  0.00  0.00    +0.172 C 
ATOM     10  C   UNL     1     -13.907   3.686  31.789  0.00  0.00    +0.180 C 
ATOM     11  C   UNL     1     -14.712   5.510  33.092  0.00  0.00    +0.130 C 
ATOM     12  C   UNL     1     -14.075   2.198  31.989  0.00  0.00    +0.176 C 
ATOM     13  C   UNL     1     -15.654   5.241  31.935  0.00  0.00    +0.185 C 
ATOM     14  C   UNL     1     -15.029   2.141  33.160  0.00  0.00    +0.194 C 
ENDROOT
BRANCH  11   7
ATOM      4  O   UNL     1     -13.405   7.349  34.908  0.00  0.00    -0.270 OA
ATOM      7  N   UNL     1     -13.789   6.615  32.741  0.00  0.00    -0.304 N 
ATOM     15  C   UNL     1     -13.216   7.441  33.697  0.00  0.00    +0.244 C 
ATOM     25  H   UNL     1     -13.680   6.820  31.753  0.00  0.00    +0.149 HD
BRANCH  15  17
ATOM     17  C   UNL     1     -12.334   8.519  33.181  0.00  0.00    +0.037 A 
ATOM     19  C   UNL     1     -12.194   8.670  31.818  0.00  0.00    +0.016 A 
ATOM     20  C   UNL     1     -11.682   9.335  34.083  0.00  0.00    +0.016 A 
ATOM     21  C   UNL     1     -11.365   9.683  31.334  0.00  0.00    +0.046 A 
ATOM     22  C   UNL     1     -10.854  10.347  33.600  0.00  0.00    +0.046 A 
ATOM     23  C   UNL     1     -10.695  10.521  32.225  0.00  0.00    +0.120 A 
BRANCH  23   6
ATOM      6  O   UNL     1      -9.886  11.509  31.753  0.00  0.00    -0.495 OA
ATOM     24  C   UNL     1      -8.772  11.880  32.564  0.00  0.00    +0.277 C 
ENDBRANCH  23   6
ENDBRANCH  15  17
ENDBRANCH  11   7
BRANCH  12   3
ATOM      3  O   UNL     1     -14.584   1.533  30.856  0.00  0.00    -0.362 OA
BRANCH   3  16
ATOM     16  C   UNL     1     -13.549   0.953  30.067  0.00  0.00    +0.255 C 
BRANCH  16  18
ATOM      5  O   UNL     1     -14.968  -1.001  29.969  0.00  0.00    -0.274 OA
ATOM      8  N   UNL     1     -12.742  -1.216  29.428  0.00  0.00    -0.327 N 
ATOM     18  C   UNL     1     -13.854  -0.507  29.826  0.00  0.00    +0.236 C 
ATOM     26  H   UNL     1     -11.832  -0.783  29.317  0.00  0.00    +0.145 HD
ATOM     27  H   UNL     1     -12.800  -2.210  29.230  0.00  0.00    +0.145 HD
ENDBRANCH  16  18
ENDBRANCH   3  16
ENDBRANCH  12   3
TORSDOF 6
ENDMDL
MODEL 4
REMARK VINA RESULT:      -6.0     13.672     17.733
REMARK  Name = 11883264
REMARK  7 active torsions:
REMARK  status: ('A' for Active; 'I' for Inactive)
REMARK    1  A    between atoms: O_3  and  C_12
REMARK    2  A    between atoms: O_3  and  C_16
REMARK    3  A    between atoms: O_6  and  C_23
REMARK    4  A    between atoms: O_6  and  C_24
REMARK    5  A    between atoms: N_7  and  C_11
REMARK    6  A    between atoms: C_15  and  C_17
REMARK    7  A    between atoms: C_16  and  C_18
REMARK                            x       y       z     vdW  Elec       q    Type
REMARK                         _______ _______ _______ _____ _____    ______ ____
ROOT
ATOM      1  O   UNL     1      10.778   4.944   6.006  0.00  0.00    -0.369 OA
ATOM      2  O   UNL     1       9.150   7.256   4.796  0.00  0.00    -0.369 OA
ATOM      9  C   UNL     1      10.461   6.738   4.487  0.00  0.00    +0.172 C 
ATOM     10  C   UNL     1      11.094   6.330   5.802  0.00  0.00    +0.180 C 
ATOM     11  C   UNL     1      10.336   5.442   3.726  0.00  0.00    +0.130 C 
ATOM     12  C   UNL     1      10.386   7.218   6.797  0.00  0.00    +0.176 C 
ATOM     13  C   UNL     1      10.144   4.420   4.830  0.00  0.00    +0.185 C 
ATOM     14  C   UNL     1       8.990   7.291   6.221  0.00  0.00    +0.194 C 
ENDROOT
BRANCH  11   7
ATOM      4  O   UNL     1      10.644   4.944   0.890  0.00  0.00    -0.270 OA
ATOM      7  N   UNL     1      11.594   5.160   2.995  0.00  0.00    -0.304 N 
ATOM     15  C   UNL     1      11.627   4.934   1.626  0.00  0.00    +0.244 C 
ATOM     25  H   UNL     1      12.427   5.023   3.559  0.00  0.00    +0.149 HD
BRANCH  15  17
ATOM     17  C   UNL     1      12.963   4.638   1.048  0.00  0.00    +0.037 A 
ATOM     19  C   UNL     1      13.270   5.127  -0.204  0.00  0.00    +0.016 A 
ATOM     20  C   UNL     1      13.854   3.883   1.782  0.00  0.00    +0.016 A 
ATOM     21  C   UNL     1      14.525   4.848  -0.747  0.00  0.00    +0.046 A 
ATOM     22  C   UNL     1      15.108   3.604   1.240  0.00  0.00    +0.046 A 
ATOM     23  C   UNL     1      15.444   4.087  -0.025  0.00  0.00    +0.120 A 
BRANCH  23   6
ATOM      6  O   UNL     1      16.668   3.815  -0.555  0.00  0.00    -0.495 OA
ATOM     24  C   UNL     1      17.075   4.589  -1.682  0.00  0.00    +0.277 C 
ENDBRANCH  23   6
ENDBRANCH  15  17
ENDBRANCH  11   7
BRANCH  12   3
ATOM      3  O   UNL     1      10.393   6.709   8.111  0.00  0.00    -0.362 OA
BRANCH   3  16
ATOM     16  C   UNL     1       9.140   6.131   8.466  0.00  0.00    +0.255 C 
BRANCH  16  18
ATOM      5  O   UNL     1       8.847   4.627  10.335  0.00  0.00    -0.274 OA
ATOM      8  N   UNL     1      10.239   4.001   8.612  0.00  0.00    -0.327 N 
ATOM     18  C   UNL     1       9.372   4.862   9.251  0.00  0.00    +0.236 C 
ATOM     26  H   UNL     1      10.660   4.220   7.716  0.00  0.00    +0.145 HD
ATOM     27  H   UNL     1      10.486   3.108   9.026  0.00  0.00    +0.145 HD
ENDBRANCH  16  18
ENDBRANCH   3  16
ENDBRANCH  12   3
TORSDOF 6
ENDMDL
MODEL 5
REMARK VINA RESULT:      -5.7     27.708     31.838
REMARK  Name = 11883264
REMARK  7 active torsions:
REMARK  status: ('A' for Active; 'I' for Inactive)
REMARK    1  A    between atoms: O_3  and  C_12
REMARK    2  A    between atoms: O_3  and  C_16
REMARK    3  A    between atoms: O_6  and  C_23
REMARK    4  A    between atoms: O_6  and  C_24
REMARK    5  A    between atoms: N_7  and  C_11
REMARK    6  A    between atoms: C_15  and  C_17
REMARK    7  A    between atoms: C_16  and  C_18
REMARK                            x       y       z     vdW  Elec       q    Type
REMARK                         _______ _______ _______ _____ _____    ______ ____
ROOT
ATOM      1  O   UNL     1     -16.315   3.269  22.674  0.00  0.00    -0.369 OA
ATOM      2  O   UNL     1     -16.770   5.404  24.841  0.00  0.00    -0.369 OA
ATOM      9  C   UNL     1     -15.762   5.272  23.817  0.00  0.00    +0.172 C 
ATOM     10  C   UNL     1     -15.451   3.794  23.694  0.00  0.00    +0.180 C 
ATOM     11  C   UNL     1     -16.342   5.636  22.474  0.00  0.00    +0.130 C 
ATOM     12  C   UNL     1     -15.812   3.267  25.062  0.00  0.00    +0.176 C 
ATOM     13  C   UNL     1     -17.015   4.349  22.038  0.00  0.00    +0.185 C 
ATOM     14  C   UNL     1     -17.011   4.115  25.422  0.00  0.00    +0.194 C 
ENDROOT
BRANCH  11   7
ATOM      4  O   UNL     1     -15.003   8.187  22.187  0.00  0.00    -0.270 OA
ATOM      7  N   UNL     1     -15.254   5.978  21.527  0.00  0.00    -0.304 N 
ATOM     15  C   UNL     1     -14.680   7.240  21.474  0.00  0.00    +0.244 C 
ATOM     25  H   UNL     1     -15.019   5.276  20.832  0.00  0.00    +0.149 HD
BRANCH  15  17
ATOM     17  C   UNL     1     -13.619   7.430  20.452  0.00  0.00    +0.037 A 
ATOM     19  C   UNL     1     -13.979   7.853  19.189  0.00  0.00    +0.016 A 
ATOM     20  C   UNL     1     -12.308   7.176  20.798  0.00  0.00    +0.016 A 
ATOM     21  C   UNL     1     -12.981   8.031  18.230  0.00  0.00    +0.046 A 
ATOM     22  C   UNL     1     -11.312   7.354  19.839  0.00  0.00    +0.046 A 
ATOM     23  C   UNL     1     -11.648   7.781  18.554  0.00  0.00    +0.120 A 
BRANCH  23   6
ATOM      6  O   UNL     1     -10.676   7.954  17.618  0.00  0.00    -0.495 OA
ATOM     24  C   UNL     1     -10.166   9.276  17.447  0.00  0.00    +0.277 C 
ENDBRANCH  23   6
ENDBRANCH  15  17
ENDBRANCH  11   7
BRANCH  12   3
ATOM      3  O   UNL     1     -16.113   1.890  25.073  0.00  0.00    -0.362 OA
BRANCH   3  16
ATOM     16  C   UNL     1     -17.456   1.640  25.480  0.00  0.00    +0.255 C 
BRANCH  16  18
ATOM      5  O   UNL     1     -18.684  -0.414  25.143  0.00  0.00    -0.274 OA
ATOM      8  N   UNL     1     -17.731   0.623  23.323  0.00  0.00    -0.327 N 
ATOM     18  C   UNL     1     -18.028   0.506  24.663  0.00  0.00    +0.236 C 
ATOM     26  H   UNL     1     -17.186   1.394  22.952  0.00  0.00    +0.145 HD
ATOM     27  H   UNL     1     -18.053  -0.071  22.655  0.00  0.00    +0.145 HD
ENDBRANCH  16  18
ENDBRANCH   3  16
ENDBRANCH  12   3
TORSDOF 6
ENDMDL
MODEL 6
REMARK VINA RESULT:      -5.7     26.830     30.704
REMARK  Name = 11883264
REMARK  7 active torsions:
REMARK  status: ('A' for Active; 'I' for Inactive)
REMARK    1  A    between atoms: O_3  and  C_12
REMARK    2  A    between atoms: O_3  and  C_16
REMARK    3  A    between atoms: O_6  and  C_23
REMARK    4  A    between atoms: O_6  and  C_24
REMARK    5  A    between atoms: N_7  and  C_11
REMARK    6  A    between atoms: C_15  and  C_17
REMARK    7  A    between atoms: C_16  and  C_18
REMARK                            x       y       z     vdW  Elec       q    Type
REMARK                         _______ _______ _______ _____ _____    ______ ____
ROOT
ATOM      1  O   UNL     1      -6.754 -11.511  16.445  0.00  0.00    -0.369 OA
ATOM      2  O   UNL     1      -6.362 -10.978  19.449  0.00  0.00    -0.369 OA
ATOM      9  C   UNL     1      -6.995 -10.202  18.410  0.00  0.00    +0.172 C 
ATOM     10  C   UNL     1      -6.174 -10.402  17.151  0.00  0.00    +0.180 C 
ATOM     11  C   UNL     1      -8.337 -10.799  18.068  0.00  0.00    +0.130 C 
ATOM     12  C   UNL     1      -4.808 -10.740  17.699  0.00  0.00    +0.176 C 
ATOM     13  C   UNL     1      -7.977 -11.899  17.089  0.00  0.00    +0.185 C 
ATOM     14  C   UNL     1      -5.151 -11.547  18.932  0.00  0.00    +0.194 C 
ENDROOT
BRANCH  11   7
ATOM      4  O   UNL     1     -10.824  -9.671  19.031  0.00  0.00    -0.270 OA
ATOM      7  N   UNL     1      -9.184  -9.786  17.394  0.00  0.00    -0.304 N 
ATOM     15  C   UNL     1     -10.364  -9.313  17.949  0.00  0.00    +0.244 C 
ATOM     25  H   UNL     1      -8.924  -9.533  16.446  0.00  0.00    +0.149 HD
BRANCH  15  17
ATOM     17  C   UNL     1     -11.113  -8.320  17.136  0.00  0.00    +0.037 A 
ATOM     19  C   UNL     1     -12.420  -8.591  16.791  0.00  0.00    +0.016 A 
ATOM     20  C   UNL     1     -10.476  -7.157  16.753  0.00  0.00    +0.016 A 
ATOM     21  C   UNL     1     -13.122  -7.658  16.027  0.00  0.00    +0.046 A 
ATOM     22  C   UNL     1     -11.178  -6.225  15.990  0.00  0.00    +0.046 A 
ATOM     23  C   UNL     1     -12.501  -6.475  15.626  0.00  0.00    +0.120 A 
BRANCH  23   6
ATOM      6  O   UNL     1     -13.186  -5.565  14.881  0.00  0.00    -0.495 OA
ATOM     24  C   UNL     1     -12.559  -5.097  13.688  0.00  0.00    +0.277 C 
ENDBRANCH  23   6
ENDBRANCH  15  17
ENDBRANCH  11   7
BRANCH  12   3
ATOM      3  O   UNL     1      -4.003 -11.464  16.798  0.00  0.00    -0.362 OA
BRANCH   3  16
ATOM     16  C   UNL     1      -3.656 -10.691  15.652  0.00  0.00    +0.255 C 
BRANCH  16  18
ATOM      5  O   UNL     1      -1.570 -10.221  14.526  0.00  0.00    -0.274 OA
ATOM      8  N   UNL     1      -1.512 -11.025  16.681  0.00  0.00    -0.327 N 
ATOM     18  C   UNL     1      -2.152 -10.611  15.533  0.00  0.00    +0.236 C 
ATOM     26  H   UNL     1      -2.018 -11.343  17.501  0.00  0.00    +0.145 HD
ATOM     27  H   UNL     1      -0.499 -11.024  16.743  0.00  0.00    +0.145 HD
ENDBRANCH  16  18
ENDBRANCH   3  16
ENDBRANCH  12   3
TORSDOF 6
ENDMDL
MODEL 7
REMARK VINA RESULT:      -5.7      1.229      1.670
REMARK  Name = 11883264
REMARK  7 active torsions:
REMARK  status: ('A' for Active; 'I' for Inactive)
REMARK    1  A    between atoms: O_3  and  C_12
REMARK    2  A    between atoms: O_3  and  C_16
REMARK    3  A    between atoms: O_6  and  C_23
REMARK    4  A    between atoms: O_6  and  C_24
REMARK    5  A    between atoms: N_7  and  C_11
REMARK    6  A    between atoms: C_15  and  C_17
REMARK    7  A    between atoms: C_16  and  C_18
REMARK                            x       y       z     vdW  Elec       q    Type
REMARK                         _______ _______ _______ _____ _____    ______ ____
ROOT
ATOM      1  O   UNL     1      14.082   9.453  19.136  0.00  0.00    -0.369 OA
ATOM      2  O   UNL     1      11.927   7.629  20.356  0.00  0.00    -0.369 OA
ATOM      9  C   UNL     1      13.298   7.380  19.980  0.00  0.00    +0.172 C 
ATOM     10  C   UNL     1      13.561   8.180  18.721  0.00  0.00    +0.180 C 
ATOM     11  C   UNL     1      14.229   7.987  20.999  0.00  0.00    +0.130 C 
ATOM     12  C   UNL     1      12.182   8.309  18.118  0.00  0.00    +0.176 C 
ATOM     13  C   UNL     1      14.323   9.432  20.551  0.00  0.00    +0.185 C 
ATOM     14  C   UNL     1      11.310   8.441  19.346  0.00  0.00    +0.194 C 
ENDROOT
BRANCH  11   7
ATOM      4  O   UNL     1      16.767   9.098  21.841  0.00  0.00    -0.270 OA
ATOM      7  N   UNL     1      15.563   7.347  20.911  0.00  0.00    -0.304 N 
ATOM     15  C   UNL     1      16.721   7.974  21.347  0.00  0.00    +0.244 C 
ATOM     25  H   UNL     1      15.613   6.466  20.409  0.00  0.00    +0.149 HD
BRANCH  15  17
ATOM     17  C   UNL     1      17.983   7.211  21.165  0.00  0.00    +0.037 A 
ATOM     19  C   UNL     1      18.014   6.188  20.241  0.00  0.00    +0.016 A 
ATOM     20  C   UNL     1      19.082   7.549  21.927  0.00  0.00    +0.016 A 
ATOM     21  C   UNL     1      19.199   5.471  20.071  0.00  0.00    +0.046 A 
ATOM     22  C   UNL     1      20.266   6.833  21.756  0.00  0.00    +0.046 A 
ATOM     23  C   UNL     1      20.325   5.793  20.829  0.00  0.00    +0.120 A 
BRANCH  23   6
ATOM      6  O   UNL     1      21.480   5.094  20.663  0.00  0.00    -0.495 OA
ATOM     24  C   UNL     1      21.468   3.719  21.044  0.00  0.00    +0.277 C 
ENDBRANCH  23   6
ENDBRANCH  15  17
ENDBRANCH  11   7
BRANCH  12   3
ATOM      3  O   UNL     1      12.048   9.411  17.250  0.00  0.00    -0.362 OA
BRANCH   3  16
ATOM     16  C   UNL     1      12.762   9.221  16.031  0.00  0.00    +0.255 C 
BRANCH  16  18
ATOM      5  O   UNL     1      13.886  10.763  14.549  0.00  0.00    -0.274 OA
ATOM      8  N   UNL     1      13.738  11.281  16.786  0.00  0.00    -0.327 N 
ATOM     18  C   UNL     1      13.516  10.483  15.685  0.00  0.00    +0.236 C 
ATOM     26  H   UNL     1      13.420  11.025  17.715  0.00  0.00    +0.145 HD
ATOM     27  H   UNL     1      14.234  12.162  16.701  0.00  0.00    +0.145 HD
ENDBRANCH  16  18
ENDBRANCH   3  16
ENDBRANCH  12   3
TORSDOF 6
ENDMDL
MODEL 8
REMARK VINA RESULT:      -5.6      2.638      3.843
REMARK  Name = 11883264
REMARK  7 active torsions:
REMARK  status: ('A' for Active; 'I' for Inactive)
REMARK    1  A    between atoms: O_3  and  C_12
REMARK    2  A    between atoms: O_3  and  C_16
REMARK    3  A    between atoms: O_6  and  C_23
REMARK    4  A    between atoms: O_6  and  C_24
REMARK    5  A    between atoms: N_7  and  C_11
REMARK    6  A    between atoms: C_15  and  C_17
REMARK    7  A    between atoms: C_16  and  C_18
REMARK                            x       y       z     vdW  Elec       q    Type
REMARK                         _______ _______ _______ _____ _____    ______ ____
ROOT
ATOM      1  O   UNL     1      14.093  11.002  17.654  0.00  0.00    -0.369 OA
ATOM      2  O   UNL     1      12.844   8.445  16.486  0.00  0.00    -0.369 OA
ATOM      9  C   UNL     1      14.132   8.699  17.085  0.00  0.00    +0.172 C 
ATOM     10  C   UNL     1      14.555  10.088  16.647  0.00  0.00    +0.180 C 
ATOM     11  C   UNL     1      13.989   8.817  18.582  0.00  0.00    +0.130 C 
ATOM     12  C   UNL     1      13.808  10.264  15.346  0.00  0.00    +0.176 C 
ATOM     13  C   UNL     1      13.568  10.262  18.767  0.00  0.00    +0.185 C 
ATOM     14  C   UNL     1      12.509   9.543  15.626  0.00  0.00    +0.194 C 
ENDROOT
BRANCH  11   7
ATOM      4  O   UNL     1      15.092   6.290  19.467  0.00  0.00    -0.270 OA
ATOM      7  N   UNL     1      15.300   8.589  19.235  0.00  0.00    -0.304 N 
ATOM     15  C   UNL     1      15.731   7.328  19.622  0.00  0.00    +0.244 C 
ATOM     25  H   UNL     1      15.828   9.415  19.497  0.00  0.00    +0.149 HD
BRANCH  15  17
ATOM     17  C   UNL     1      17.057   7.270  20.289  0.00  0.00    +0.037 A 
ATOM     19  C   UNL     1      17.388   8.253  21.198  0.00  0.00    +0.016 A 
ATOM     20  C   UNL     1      17.915   6.236  19.977  0.00  0.00    +0.016 A 
ATOM     21  C   UNL     1      18.634   8.198  21.824  0.00  0.00    +0.046 A 
ATOM     22  C   UNL     1      19.159   6.181  20.603  0.00  0.00    +0.046 A 
ATOM     23  C   UNL     1      19.520   7.162  21.527  0.00  0.00    +0.120 A 
BRANCH  23   6
ATOM      6  O   UNL     1      20.735   7.109  22.137  0.00  0.00    -0.495 OA
ATOM     24  C   UNL     1      21.089   8.206  22.978  0.00  0.00    +0.277 C 
ENDBRANCH  23   6
ENDBRANCH  15  17
ENDBRANCH  11   7
BRANCH  12   3
ATOM      3  O   UNL     1      13.603  11.612  14.993  0.00  0.00    -0.362 OA
BRANCH   3  16
ATOM     16  C   UNL     1      14.746  12.177  14.357  0.00  0.00    +0.255 C 
BRANCH  16  18
ATOM      5  O   UNL     1      13.710  12.038  12.178  0.00  0.00    -0.274 OA
ATOM      8  N   UNL     1      15.907  11.390  12.408  0.00  0.00    -0.327 N 
ATOM     18  C   UNL     1      14.705  11.873  12.878  0.00  0.00    +0.236 C 
ATOM     26  H   UNL     1      16.713  11.263  13.009  0.00  0.00    +0.145 HD
ATOM     27  H   UNL     1      16.023  11.143  11.431  0.00  0.00    +0.145 HD
ENDBRANCH  16  18
ENDBRANCH   3  16
ENDBRANCH  12   3
TORSDOF 6
ENDMDL
MODEL 9
REMARK VINA RESULT:      -5.6     26.521     29.426
REMARK  Name = 11883264
REMARK  7 active torsions:
REMARK  status: ('A' for Active; 'I' for Inactive)
REMARK    1  A    between atoms: O_3  and  C_12
REMARK    2  A    between atoms: O_3  and  C_16
REMARK    3  A    between atoms: O_6  and  C_23
REMARK    4  A    between atoms: O_6  and  C_24
REMARK    5  A    between atoms: N_7  and  C_11
REMARK    6  A    between atoms: C_15  and  C_17
REMARK    7  A    between atoms: C_16  and  C_18
REMARK                            x       y       z     vdW  Elec       q    Type
REMARK                         _______ _______ _______ _____ _____    ______ ____
ROOT
ATOM      1  O   UNL     1      -3.955 -12.105  14.387  0.00  0.00    -0.369 OA
ATOM      2  O   UNL     1      -2.010 -10.920  16.455  0.00  0.00    -0.369 OA
ATOM      9  C   UNL     1      -3.377 -10.596  16.124  0.00  0.00    +0.172 C 
ATOM     10  C   UNL     1      -3.516 -10.758  14.623  0.00  0.00    +0.180 C 
ATOM     11  C   UNL     1      -4.305 -11.640  16.691  0.00  0.00    +0.130 C 
ATOM     12  C   UNL     1      -2.103 -10.536  14.136  0.00  0.00    +0.176 C 
ATOM     13  C   UNL     1      -4.264 -12.733  15.641  0.00  0.00    +0.185 C 
ATOM     14  C   UNL     1      -1.284 -11.162  15.241  0.00  0.00    +0.194 C 
ENDROOT
BRANCH  11   7
ATOM      4  O   UNL     1      -5.588 -10.543  19.043  0.00  0.00    -0.270 OA
ATOM      7  N   UNL     1      -5.680 -11.094  16.792  0.00  0.00    -0.304 N 
ATOM     15  C   UNL     1      -6.197 -10.591  17.977  0.00  0.00    +0.244 C 
ATOM     25  H   UNL     1      -6.276 -11.208  15.978  0.00  0.00    +0.149 HD
BRANCH  15  17
ATOM     17  C   UNL     1      -7.600 -10.106  17.920  0.00  0.00    +0.037 A 
ATOM     19  C   UNL     1      -7.906  -9.048  17.091  0.00  0.00    +0.016 A 
ATOM     20  C   UNL     1      -8.552 -10.729  18.701  0.00  0.00    +0.016 A 
ATOM     21  C   UNL     1      -9.224  -8.592  17.038  0.00  0.00    +0.046 A 
ATOM     22  C   UNL     1      -9.869 -10.274  18.648  0.00  0.00    +0.046 A 
ATOM     23  C   UNL     1     -10.205  -9.205  17.817  0.00  0.00    +0.120 A 
BRANCH  23   6
ATOM      6  O   UNL     1     -11.491  -8.761  17.767  0.00  0.00    -0.495 OA
ATOM     24  C   UNL     1     -12.488  -9.588  18.362  0.00  0.00    +0.277 C 
ENDBRANCH  23   6
ENDBRANCH  15  17
ENDBRANCH  11   7
BRANCH  12   3
ATOM      3  O   UNL     1      -1.842 -11.123  12.882  0.00  0.00    -0.362 OA
BRANCH   3  16
ATOM     16  C   UNL     1      -2.296 -10.308  11.805  0.00  0.00    +0.255 C 
BRANCH  16  18
ATOM      5  O   UNL     1      -3.722 -10.671   9.888  0.00  0.00    -0.274 OA
ATOM      8  N   UNL     1      -3.288 -12.436  11.300  0.00  0.00    -0.327 N 
ATOM     18  C   UNL     1      -3.174 -11.126  10.888  0.00  0.00    +0.236 C 
ATOM     26  H   UNL     1      -2.823 -12.786  12.131  0.00  0.00    +0.145 HD
ATOM     27  H   UNL     1      -3.848 -13.101  10.777  0.00  0.00    +0.145 HD
ENDBRANCH  16  18
ENDBRANCH   3  16
ENDBRANCH  12   3
TORSDOF 6
ENDMDL
MODEL 10
REMARK VINA RESULT:      -5.5     15.658     19.745
REMARK  Name = 11883264
REMARK  7 active torsions:
REMARK  status: ('A' for Active; 'I' for Inactive)
REMARK    1  A    between atoms: O_3  and  C_12
REMARK    2  A    between atoms: O_3  and  C_16
REMARK    3  A    between atoms: O_6  and  C_23
REMARK    4  A    between atoms: O_6  and  C_24
REMARK    5  A    between atoms: N_7  and  C_11
REMARK    6  A    between atoms: C_15  and  C_17
REMARK    7  A    between atoms: C_16  and  C_18
REMARK                            x       y       z     vdW  Elec       q    Type
REMARK                         _______ _______ _______ _____ _____    ______ ____
ROOT
ATOM      1  O   UNL     1      10.433   3.897  -0.061  0.00  0.00    -0.369 OA
ATOM      2  O   UNL     1      11.754   6.541  -0.911  0.00  0.00    -0.369 OA
ATOM      9  C   UNL     1      11.015   6.173   0.272  0.00  0.00    +0.172 C 
ATOM     10  C   UNL     1       9.913   5.232  -0.173  0.00  0.00    +0.180 C 
ATOM     11  C   UNL     1      11.877   5.324   1.173  0.00  0.00    +0.130 C 
ATOM     12  C   UNL     1       9.701   5.632  -1.614  0.00  0.00    +0.176 C 
ATOM     13  C   UNL     1      11.714   3.936   0.585  0.00  0.00    +0.185 C 
ATOM     14  C   UNL     1      11.105   5.973  -2.058  0.00  0.00    +0.194 C 
ENDROOT
BRANCH  11   7
ATOM      4  O   UNL     1      12.881   6.858   3.414  0.00  0.00    -0.270 OA
ATOM      7  N   UNL     1      11.343   5.349   2.555  0.00  0.00    -0.304 N 
ATOM     15  C   UNL     1      11.906   6.125   3.558  0.00  0.00    +0.244 C 
ATOM     25  H   UNL     1      10.611   4.681   2.772  0.00  0.00    +0.149 HD
BRANCH  15  17
ATOM     17  C   UNL     1      11.270   6.019   4.897  0.00  0.00    +0.037 A 
ATOM     19  C   UNL     1      10.140   5.241   5.038  0.00  0.00    +0.016 A 
ATOM     20  C   UNL     1      11.831   6.701   5.957  0.00  0.00    +0.016 A 
ATOM     21  C   UNL     1       9.544   5.142   6.296  0.00  0.00    +0.046 A 
ATOM     22  C   UNL     1      11.236   6.602   7.213  0.00  0.00    +0.046 A 
ATOM     23  C   UNL     1      10.092   5.822   7.383  0.00  0.00    +0.120 A 
BRANCH  23   6
ATOM      6  O   UNL     1       9.510   5.725   8.610  0.00  0.00    -0.495 OA
ATOM     24  C   UNL     1       9.489   4.435   9.219  0.00  0.00    +0.277 C 
ENDBRANCH  23   6
ENDBRANCH  15  17
ENDBRANCH  11   7
BRANCH  12   3
ATOM      3  O   UNL     1       9.127   4.614  -2.401  0.00  0.00    -0.362 OA
BRANCH   3  16
ATOM     16  C   UNL     1      10.006   4.181  -3.436  0.00  0.00    +0.255 C 
BRANCH  16  18
ATOM      5  O   UNL     1      10.071   1.843  -2.825  0.00  0.00    -0.274 OA
ATOM      8  N   UNL     1       9.345   2.421  -4.931  0.00  0.00    -0.327 N 
ATOM     18  C   UNL     1       9.822   2.699  -3.668  0.00  0.00    +0.236 C 
ATOM     26  H   UNL     1       9.147   3.149  -5.609  0.00  0.00    +0.145 HD
ATOM     27  H   UNL     1       9.174   1.465  -5.225  0.00  0.00    +0.145 HD
ENDBRANCH  16  18
ENDBRANCH   3  16
ENDBRANCH  12   3
TORSDOF 6
ENDMDL
