MODEL 1
REMARK VINA RESULT:      -7.2      0.000      0.000
REMARK  Name = 7673867
REMARK  4 active torsions:
REMARK  status: ('A' for Active; 'I' for Inactive)
REMARK    1  A    between atoms: N_2  and  C_11
REMARK    2  A    between atoms: N_4  and  C_22
REMARK    3  A    between atoms: C_20  and  C_23
REMARK    4  A    between atoms: C_26  and  C_29
REMARK                            x       y       z     vdW  Elec       q    Type
REMARK                         _______ _______ _______ _____ _____    ______ ____
ROOT
ATOM      1  O   UNL     1      12.037   7.198   2.964  0.00  0.00    -0.267 OA
ATOM      2  N   UNL     1      12.569   4.563  -1.267  0.00  0.00    -0.298 NA
ATOM      3  N   UNL     1      12.751   5.286   1.833  0.00  0.00    -0.311 N 
ATOM      6  C   UNL     1      14.569   5.344   0.027  0.00  0.00    +0.024 C 
ATOM      7  C   UNL     1      13.508   3.217   0.616  0.00  0.00    +0.050 C 
ATOM      8  C   UNL     1      14.857   3.919   0.480  0.00  0.00    +0.017 C 
ATOM      9  C   UNL     1      13.821   5.329  -1.323  0.00  0.00    +0.090 C 
ATOM     10  C   UNL     1      12.793   3.204  -0.755  0.00  0.00    +0.094 C 
ATOM     12  C   UNL     1      13.781   6.064   1.131  0.00  0.00    +0.130 C 
ATOM     13  C   UNL     1      12.646   3.904   1.659  0.00  0.00    +0.026 A 
ATOM     18  C   UNL     1      11.774   3.195   2.393  0.00  0.00    +0.022 A 
ATOM     19  C   UNL     1      11.953   5.986   2.761  0.00  0.00    +0.259 A 
ATOM     20  C   UNL     1      10.964   5.166   3.542  0.00  0.00    +0.047 A 
ATOM     21  C   UNL     1      10.917   3.841   3.348  0.00  0.00    +0.015 A 
ENDROOT
BRANCH   2  11
ATOM      4  N   UNL     1      10.478   3.029  -4.635  0.00  0.00    -0.305 NA
ATOM     11  C   UNL     1      11.918   4.528  -2.575  0.00  0.00    +0.059 C 
ATOM     14  C   UNL     1      10.445   4.143  -2.424  0.00  0.00    +0.034 C 
ATOM     15  C   UNL     1      12.623   3.542  -3.512  0.00  0.00    +0.034 C 
ATOM     16  C   UNL     1       9.770   4.003  -3.792  0.00  0.00    +0.085 C 
ATOM     17  C   UNL     1      11.877   3.423  -4.843  0.00  0.00    +0.085 C 
ATOM     22  C   UNL     1       9.793   2.870  -5.917  0.00  0.00    +0.104 C 
ENDBRANCH   2  11
BRANCH  20  23
ATOM     23  C   UNL     1      10.087   5.788   4.485  0.00  0.00    -0.011 A 
ATOM     24  C   UNL     1      10.168   5.459   5.838  0.00  0.00    +0.027 A 
ATOM     25  C   UNL     1       9.149   6.724   4.050  0.00  0.00    +0.009 A 
ATOM     26  C   UNL     1       9.310   6.065   6.756  0.00  0.00    +0.052 A 
ATOM     27  C   UNL     1       8.291   7.330   4.968  0.00  0.00    +0.002 A 
ATOM     28  C   UNL     1       8.372   7.001   6.321  0.00  0.00    +0.019 A 
BRANCH  26  29
ATOM      5  N   UNL     1       9.460   5.453   9.269  0.00  0.00    -0.191 NA
ATOM     29  C   UNL     1       9.393   5.728   8.143  0.00  0.00    +0.099 C 
ENDBRANCH  26  29
ENDBRANCH  20  23
TORSDOF 3
ENDMDL
MODEL 2
REMARK VINA RESULT:      -7.2     23.207     26.046
REMARK  Name = 7673867
REMARK  4 active torsions:
REMARK  status: ('A' for Active; 'I' for Inactive)
REMARK    1  A    between atoms: N_2  and  C_11
REMARK    2  A    between atoms: N_4  and  C_22
REMARK    3  A    between atoms: C_20  and  C_23
REMARK    4  A    between atoms: C_26  and  C_29
REMARK                            x       y       z     vdW  Elec       q    Type
REMARK                         _______ _______ _______ _____ _____    ______ ____
ROOT
ATOM      1  O   UNL     1      -6.265 -11.753   9.833  0.00  0.00    -0.267 OA
ATOM      2  N   UNL     1      -4.018 -11.092  14.264  0.00  0.00    -0.298 NA
ATOM      3  N   UNL     1      -4.335 -11.477  11.115  0.00  0.00    -0.311 N 
ATOM      6  C   UNL     1      -3.611 -13.161  12.907  0.00  0.00    +0.024 C 
ATOM      7  C   UNL     1      -2.254 -11.165  12.496  0.00  0.00    +0.050 C 
ATOM      8  C   UNL     1      -2.203 -12.688  12.572  0.00  0.00    +0.017 C 
ATOM      9  C   UNL     1      -4.064 -12.560  14.255  0.00  0.00    +0.090 C 
ATOM     10  C   UNL     1      -2.693 -10.595  13.865  0.00  0.00    +0.094 C 
ATOM     12  C   UNL     1      -4.548 -12.785  11.750  0.00  0.00    +0.130 C 
ATOM     13  C   UNL     1      -3.203 -10.711  11.402  0.00  0.00    +0.026 A 
ATOM     18  C   UNL     1      -2.969  -9.573  10.730  0.00  0.00    +0.022 A 
ATOM     19  C   UNL     1      -5.271 -11.090  10.135  0.00  0.00    +0.259 A 
ATOM     20  C   UNL     1      -4.997  -9.794   9.425  0.00  0.00    +0.047 A 
ATOM     21  C   UNL     1      -3.886  -9.107   9.727  0.00  0.00    +0.015 A 
ENDROOT
BRANCH   2  11
ATOM      4  N   UNL     1      -5.984 -10.808  18.022  0.00  0.00    -0.305 NA
ATOM     11  C   UNL     1      -4.402 -10.565  15.572  0.00  0.00    +0.059 C 
ATOM     14  C   UNL     1      -4.054 -11.572  16.672  0.00  0.00    +0.034 C 
ATOM     15  C   UNL     1      -5.898 -10.240  15.615  0.00  0.00    +0.034 C 
ATOM     16  C   UNL     1      -4.540 -11.080  18.039  0.00  0.00    +0.085 C 
ATOM     17  C   UNL     1      -6.322  -9.793  17.016  0.00  0.00    +0.085 C 
ATOM     22  C   UNL     1      -6.440 -10.388  19.347  0.00  0.00    +0.104 C 
ENDBRANCH   2  11
BRANCH  20  23
ATOM     23  C   UNL     1      -5.903  -9.299   8.436  0.00  0.00    -0.011 A 
ATOM     24  C   UNL     1      -6.835  -8.316   8.770  0.00  0.00    +0.027 A 
ATOM     25  C   UNL     1      -5.856  -9.800   7.135  0.00  0.00    +0.009 A 
ATOM     26  C   UNL     1      -7.720  -7.836   7.805  0.00  0.00    +0.052 A 
ATOM     27  C   UNL     1      -6.740  -9.320   6.169  0.00  0.00    +0.002 A 
ATOM     28  C   UNL     1      -7.672  -8.338   6.505  0.00  0.00    +0.019 A 
BRANCH  26  29
ATOM      5  N   UNL     1      -9.451  -6.012   8.427  0.00  0.00    -0.191 NA
ATOM     29  C   UNL     1      -8.675  -6.829   8.148  0.00  0.00    +0.099 C 
ENDBRANCH  26  29
ENDBRANCH  20  23
TORSDOF 3
ENDMDL
MODEL 3
REMARK VINA RESULT:      -7.1     18.723     21.545
REMARK  Name = 7673867
REMARK  4 active torsions:
REMARK  status: ('A' for Active; 'I' for Inactive)
REMARK    1  A    between atoms: N_2  and  C_11
REMARK    2  A    between atoms: N_4  and  C_22
REMARK    3  A    between atoms: C_20  and  C_23
REMARK    4  A    between atoms: C_26  and  C_29
REMARK                            x       y       z     vdW  Elec       q    Type
REMARK                         _______ _______ _______ _____ _____    ______ ____
ROOT
ATOM      1  O   UNL     1      16.810   8.787  21.878  0.00  0.00    -0.267 OA
ATOM      2  N   UNL     1      21.619   8.408  20.515  0.00  0.00    -0.298 NA
ATOM      3  N   UNL     1      18.743   7.518  21.566  0.00  0.00    -0.311 N 
ATOM      6  C   UNL     1      20.906   7.944  22.873  0.00  0.00    +0.024 C 
ATOM      7  C   UNL     1      20.823   6.145  21.214  0.00  0.00    +0.050 C 
ATOM      8  C   UNL     1      21.146   6.453  22.674  0.00  0.00    +0.017 C 
ATOM      9  C   UNL     1      21.815   8.757  21.928  0.00  0.00    +0.090 C 
ATOM     10  C   UNL     1      21.762   6.961  20.295  0.00  0.00    +0.094 C 
ATOM     12  C   UNL     1      19.415   8.238  22.656  0.00  0.00    +0.130 C 
ATOM     13  C   UNL     1      19.372   6.460  20.905  0.00  0.00    +0.026 A 
ATOM     18  C   UNL     1      18.701   5.741  19.990  0.00  0.00    +0.022 A 
ATOM     19  C   UNL     1      17.408   7.880  21.296  0.00  0.00    +0.259 A 
ATOM     20  C   UNL     1      16.698   7.077  20.242  0.00  0.00    +0.047 A 
ATOM     21  C   UNL     1      17.343   6.060  19.652  0.00  0.00    +0.015 A 
ENDROOT
BRANCH   2  11
ATOM      4  N   UNL     1      24.893  10.869  19.378  0.00  0.00    -0.305 NA
ATOM     11  C   UNL     1      22.534   9.159  19.659  0.00  0.00    +0.059 C 
ATOM     14  C   UNL     1      23.958   8.615  19.798  0.00  0.00    +0.034 C 
ATOM     15  C   UNL     1      22.508  10.651  20.005  0.00  0.00    +0.034 C 
ATOM     16  C   UNL     1      24.948   9.454  18.984  0.00  0.00    +0.085 C 
ATOM     17  C   UNL     1      23.545  11.422  19.184  0.00  0.00    +0.085 C 
ATOM     22  C   UNL     1      25.879  11.647  18.627  0.00  0.00    +0.104 C 
ENDBRANCH   2  11
BRANCH  20  23
ATOM     23  C   UNL     1      15.352   7.386  19.875  0.00  0.00    -0.011 A 
ATOM     24  C   UNL     1      14.287   6.783  20.545  0.00  0.00    +0.027 A 
ATOM     25  C   UNL     1      15.102   8.292  18.844  0.00  0.00    +0.009 A 
ATOM     26  C   UNL     1      12.974   7.085  20.184  0.00  0.00    +0.052 A 
ATOM     27  C   UNL     1      13.789   8.594  18.483  0.00  0.00    +0.002 A 
ATOM     28  C   UNL     1      12.725   7.991  19.153  0.00  0.00    +0.019 A 
BRANCH  26  29
ATOM      5  N   UNL     1      10.998   5.964  21.429  0.00  0.00    -0.191 NA
ATOM     29  C   UNL     1      11.883   6.466  20.871  0.00  0.00    +0.099 C 
ENDBRANCH  26  29
ENDBRANCH  20  23
TORSDOF 3
ENDMDL
MODEL 4
REMARK VINA RESULT:      -7.0      1.728      2.244
REMARK  Name = 7673867
REMARK  4 active torsions:
REMARK  status: ('A' for Active; 'I' for Inactive)
REMARK    1  A    between atoms: N_2  and  C_11
REMARK    2  A    between atoms: N_4  and  C_22
REMARK    3  A    between atoms: C_20  and  C_23
REMARK    4  A    between atoms: C_26  and  C_29
REMARK                            x       y       z     vdW  Elec       q    Type
REMARK                         _______ _______ _______ _____ _____    ______ ____
ROOT
ATOM      1  O   UNL     1      12.245   7.578   3.074  0.00  0.00    -0.267 OA
ATOM      2  N   UNL     1      12.918   4.522  -0.842  0.00  0.00    -0.298 NA
ATOM      3  N   UNL     1      12.740   5.473   2.196  0.00  0.00    -0.311 N 
ATOM      6  C   UNL     1      14.799   5.032   0.735  0.00  0.00    +0.024 C 
ATOM      7  C   UNL     1      13.259   3.199   1.250  0.00  0.00    +0.050 C 
ATOM      8  C   UNL     1      14.724   3.624   1.312  0.00  0.00    +0.017 C 
ATOM      9  C   UNL     1      14.289   5.035  -0.721  0.00  0.00    +0.090 C 
ATOM     10  C   UNL     1      12.785   3.196  -0.222  0.00  0.00    +0.094 C 
ATOM     12  C   UNL     1      14.002   5.981   1.641  0.00  0.00    +0.130 C 
ATOM     13  C   UNL     1      12.393   4.125   2.085  0.00  0.00    +0.026 A 
ATOM     18  C   UNL     1      11.292   3.657   2.695  0.00  0.00    +0.022 A 
ATOM     19  C   UNL     1      11.957   6.388   2.928  0.00  0.00    +0.259 A 
ATOM     20  C   UNL     1      10.713   5.839   3.571  0.00  0.00    +0.047 A 
ATOM     21  C   UNL     1      10.438   4.533   3.446  0.00  0.00    +0.015 A 
ENDROOT
BRANCH   2  11
ATOM      4  N   UNL     1      10.830   3.316  -4.343  0.00  0.00    -0.305 NA
ATOM     11  C   UNL     1      12.492   4.491  -2.240  0.00  0.00    +0.059 C 
ATOM     14  C   UNL     1      10.990   4.765  -2.342  0.00  0.00    +0.034 C 
ATOM     15  C   UNL     1      12.822   3.141  -2.884  0.00  0.00    +0.034 C 
ATOM     16  C   UNL     1      10.505   4.638  -3.789  0.00  0.00    +0.085 C 
ATOM     17  C   UNL     1      12.278   3.067  -4.312  0.00  0.00    +0.085 C 
ATOM     22  C   UNL     1      10.317   3.193  -5.707  0.00  0.00    +0.104 C 
ENDBRANCH   2  11
BRANCH  20  23
ATOM     23  C   UNL     1       9.837   6.694   4.308  0.00  0.00    -0.011 A 
ATOM     24  C   UNL     1       8.919   7.502   3.637  0.00  0.00    +0.027 A 
ATOM     25  C   UNL     1       9.900   6.720   5.701  0.00  0.00    +0.009 A 
ATOM     26  C   UNL     1       8.065   8.337   4.358  0.00  0.00    +0.052 A 
ATOM     27  C   UNL     1       9.046   7.555   6.423  0.00  0.00    +0.002 A 
ATOM     28  C   UNL     1       8.129   8.363   5.751  0.00  0.00    +0.019 A 
BRANCH  26  29
ATOM      5  N   UNL     1       6.361   9.837   3.112  0.00  0.00    -0.191 NA
ATOM     29  C   UNL     1       7.125   9.165   3.670  0.00  0.00    +0.099 C 
ENDBRANCH  26  29
ENDBRANCH  20  23
TORSDOF 3
ENDMDL
MODEL 5
REMARK VINA RESULT:      -7.0     23.063     26.224
REMARK  Name = 7673867
REMARK  4 active torsions:
REMARK  status: ('A' for Active; 'I' for Inactive)
REMARK    1  A    between atoms: N_2  and  C_11
REMARK    2  A    between atoms: N_4  and  C_22
REMARK    3  A    between atoms: C_20  and  C_23
REMARK    4  A    between atoms: C_26  and  C_29
REMARK                            x       y       z     vdW  Elec       q    Type
REMARK                         _______ _______ _______ _____ _____    ______ ____
ROOT
ATOM      1  O   UNL     1      -5.277 -12.601  10.053  0.00  0.00    -0.267 OA
ATOM      2  N   UNL     1      -3.820 -11.191  14.637  0.00  0.00    -0.298 NA
ATOM      3  N   UNL     1      -3.616 -11.900  11.535  0.00  0.00    -0.311 N 
ATOM      6  C   UNL     1      -2.915 -13.276  13.580  0.00  0.00    +0.024 C 
ATOM      7  C   UNL     1      -1.828 -11.129  13.129  0.00  0.00    +0.050 C 
ATOM      8  C   UNL     1      -1.560 -12.611  13.379  0.00  0.00    +0.017 C 
ATOM      9  C   UNL     1      -3.643 -12.641  14.783  0.00  0.00    +0.090 C 
ATOM     10  C   UNL     1      -2.541 -10.520  14.359  0.00  0.00    +0.094 C 
ATOM     12  C   UNL     1      -3.720 -13.164  12.277  0.00  0.00    +0.130 C 
ATOM     13  C   UNL     1      -2.666 -10.936  11.879  0.00  0.00    +0.026 A 
ATOM     18  C   UNL     1      -2.511  -9.839  11.121  0.00  0.00    +0.022 A 
ATOM     19  C   UNL     1      -4.448 -11.760  10.405  0.00  0.00    +0.259 A 
ATOM     20  C   UNL     1      -4.272 -10.504   9.598  0.00  0.00    +0.047 A 
ATOM     21  C   UNL     1      -3.332  -9.620   9.964  0.00  0.00    +0.015 A 
ENDROOT
BRANCH   2  11
ATOM      4  N   UNL     1      -6.286 -10.921  18.089  0.00  0.00    -0.305 NA
ATOM     11  C   UNL     1      -4.464 -10.620  15.818  0.00  0.00    +0.059 C 
ATOM     14  C   UNL     1      -4.087 -11.422  17.066  0.00  0.00    +0.034 C 
ATOM     15  C   UNL     1      -5.986 -10.594  15.654  0.00  0.00    +0.034 C 
ATOM     16  C   UNL     1      -4.831 -10.900  18.299  0.00  0.00    +0.085 C 
ATOM     17  C   UNL     1      -6.667 -10.099  16.932  0.00  0.00    +0.085 C 
ATOM     22  C   UNL     1      -6.983 -10.467  19.292  0.00  0.00    +0.104 C 
ENDBRANCH   2  11
BRANCH  20  23
ATOM     23  C   UNL     1      -5.089 -10.254   8.452  0.00  0.00    -0.011 A 
ATOM     24  C   UNL     1      -4.863 -10.952   7.266  0.00  0.00    +0.027 A 
ATOM     25  C   UNL     1      -6.114  -9.310   8.520  0.00  0.00    +0.009 A 
ATOM     26  C   UNL     1      -5.661 -10.706   6.148  0.00  0.00    +0.052 A 
ATOM     27  C   UNL     1      -6.912  -9.064   7.403  0.00  0.00    +0.002 A 
ATOM     28  C   UNL     1      -6.685  -9.762   6.217  0.00  0.00    +0.019 A 
BRANCH  26  29
ATOM      5  N   UNL     1      -5.241 -12.002   3.945  0.00  0.00    -0.191 NA
ATOM     29  C   UNL     1      -5.429 -11.421   4.933  0.00  0.00    +0.099 C 
ENDBRANCH  26  29
ENDBRANCH  20  23
TORSDOF 3
ENDMDL
MODEL 6
REMARK VINA RESULT:      -6.8     24.908     29.166
REMARK  Name = 7673867
REMARK  4 active torsions:
REMARK  status: ('A' for Active; 'I' for Inactive)
REMARK    1  A    between atoms: N_2  and  C_11
REMARK    2  A    between atoms: N_4  and  C_22
REMARK    3  A    between atoms: C_20  and  C_23
REMARK    4  A    between atoms: C_26  and  C_29
REMARK                            x       y       z     vdW  Elec       q    Type
REMARK                         _______ _______ _______ _____ _____    ______ ____
ROOT
ATOM      1  O   UNL     1      -5.940 -13.129  14.853  0.00  0.00    -0.267 OA
ATOM      2  N   UNL     1      -8.927 -10.605  17.990  0.00  0.00    -0.298 NA
ATOM      3  N   UNL     1      -6.414 -12.287  16.977  0.00  0.00    -0.311 N 
ATOM      6  C   UNL     1      -8.448 -13.040  18.343  0.00  0.00    +0.024 C 
ATOM      7  C   UNL     1      -6.918 -11.366  19.265  0.00  0.00    +0.050 C 
ATOM      8  C   UNL     1      -7.575 -12.715  19.547  0.00  0.00    +0.017 C 
ATOM      9  C   UNL     1      -9.514 -11.941  18.150  0.00  0.00    +0.090 C 
ATOM     10  C   UNL     1      -8.011 -10.286  19.094  0.00  0.00    +0.094 C 
ATOM     12  C   UNL     1      -7.548 -13.212  17.111  0.00  0.00    +0.130 C 
ATOM     13  C   UNL     1      -6.046 -11.440  18.025  0.00  0.00    +0.026 A 
ATOM     18  C   UNL     1      -4.941 -10.684  17.927  0.00  0.00    +0.022 A 
ATOM     19  C   UNL     1      -5.664 -12.373  15.787  0.00  0.00    +0.259 A 
ATOM     20  C   UNL     1      -4.452 -11.488  15.696  0.00  0.00    +0.047 A 
ATOM     21  C   UNL     1      -4.135 -10.708  16.739  0.00  0.00    +0.015 A 
ENDROOT
BRANCH   2  11
ATOM      4  N   UNL     1     -11.673  -7.923  16.163  0.00  0.00    -0.305 NA
ATOM     11  C   UNL     1      -9.968  -9.588  17.863  0.00  0.00    +0.059 C 
ATOM     14  C   UNL     1     -11.175 -10.155  17.111  0.00  0.00    +0.034 C 
ATOM     15  C   UNL     1      -9.438  -8.347  17.139  0.00  0.00    +0.034 C 
ATOM     16  C   UNL     1     -12.236  -9.075  16.881  0.00  0.00    +0.085 C 
ATOM     17  C   UNL     1     -10.555  -7.327  16.908  0.00  0.00    +0.085 C 
ATOM     22  C   UNL     1     -12.709  -6.923  15.907  0.00  0.00    +0.104 C 
ENDBRANCH   2  11
BRANCH  20  23
ATOM     23  C   UNL     1      -3.644 -11.480  14.517  0.00  0.00    -0.011 A 
ATOM     24  C   UNL     1      -3.973 -10.645  13.449  0.00  0.00    +0.027 A 
ATOM     25  C   UNL     1      -2.525 -12.309  14.434  0.00  0.00    +0.009 A 
ATOM     26  C   UNL     1      -3.184 -10.639  12.298  0.00  0.00    +0.052 A 
ATOM     27  C   UNL     1      -1.736 -12.304  13.284  0.00  0.00    +0.002 A 
ATOM     28  C   UNL     1      -2.066 -11.469  12.216  0.00  0.00    +0.019 A 
BRANCH  26  29
ATOM      5  N   UNL     1      -3.794  -9.088  10.316  0.00  0.00    -0.191 NA
ATOM     29  C   UNL     1      -3.521  -9.783  11.205  0.00  0.00    +0.099 C 
ENDBRANCH  26  29
ENDBRANCH  20  23
TORSDOF 3
ENDMDL
MODEL 7
REMARK VINA RESULT:      -6.7     13.820     17.069
REMARK  Name = 7673867
REMARK  4 active torsions:
REMARK  status: ('A' for Active; 'I' for Inactive)
REMARK    1  A    between atoms: N_2  and  C_11
REMARK    2  A    between atoms: N_4  and  C_22
REMARK    3  A    between atoms: C_20  and  C_23
REMARK    4  A    between atoms: C_26  and  C_29
REMARK                            x       y       z     vdW  Elec       q    Type
REMARK                         _______ _______ _______ _____ _____    ______ ____
ROOT
ATOM      1  O   UNL     1      -6.546   9.602   5.294  0.00  0.00    -0.267 OA
ATOM      2  N   UNL     1      -1.826  10.415   3.817  0.00  0.00    -0.298 NA
ATOM      3  N   UNL     1      -4.252   9.243   5.522  0.00  0.00    -0.311 N 
ATOM      6  C   UNL     1      -2.606  11.124   6.091  0.00  0.00    +0.024 C 
ATOM      7  C   UNL     1      -1.778   8.844   5.759  0.00  0.00    +0.050 C 
ATOM      8  C   UNL     1      -1.790  10.014   6.740  0.00  0.00    +0.017 C 
ATOM      9  C   UNL     1      -1.964  11.540   4.751  0.00  0.00    +0.090 C 
ATOM     10  C   UNL     1      -1.113   9.288   4.435  0.00  0.00    +0.094 C 
ATOM     12  C   UNL     1      -4.055  10.642   5.927  0.00  0.00    +0.130 C 
ATOM     13  C   UNL     1      -3.186   8.340   5.503  0.00  0.00    +0.026 A 
ATOM     18  C   UNL     1      -3.406   7.042   5.240  0.00  0.00    +0.022 A 
ATOM     19  C   UNL     1      -5.577   8.842   5.258  0.00  0.00    +0.259 A 
ATOM     20  C   UNL     1      -5.782   7.388   4.935  0.00  0.00    +0.047 A 
ATOM     21  C   UNL     1      -4.727   6.562   4.948  0.00  0.00    +0.015 A 
ENDROOT
BRANCH   2  11
ATOM      4  N   UNL     1       0.973  10.477   0.618  0.00  0.00    -0.305 NA
ATOM     11  C   UNL     1      -1.166  10.837   2.583  0.00  0.00    +0.059 C 
ATOM     14  C   UNL     1      -1.182   9.701   1.558  0.00  0.00    +0.034 C 
ATOM     15  C   UNL     1       0.277  11.275   2.855  0.00  0.00    +0.034 C 
ATOM     16  C   UNL     1      -0.408  10.090   0.295  0.00  0.00    +0.085 C 
ATOM     17  C   UNL     1       1.002  11.612   1.550  0.00  0.00    +0.085 C 
ATOM     22  C   UNL     1       1.713  10.797  -0.603  0.00  0.00    +0.104 C 
ENDBRANCH   2  11
BRANCH  20  23
ATOM     23  C   UNL     1      -7.085   6.889   4.621  0.00  0.00    -0.011 A 
ATOM     24  C   UNL     1      -7.787   7.401   3.530  0.00  0.00    +0.027 A 
ATOM     25  C   UNL     1      -7.655   5.888   5.409  0.00  0.00    +0.009 A 
ATOM     26  C   UNL     1      -9.058   6.914   3.227  0.00  0.00    +0.052 A 
ATOM     27  C   UNL     1      -8.926   5.401   5.106  0.00  0.00    +0.002 A 
ATOM     28  C   UNL     1      -9.627   5.914   4.015  0.00  0.00    +0.019 A 
BRANCH  26  29
ATOM      5  N   UNL     1     -10.361   7.866   1.201  0.00  0.00    -0.191 NA
ATOM     29  C   UNL     1      -9.777   7.440   2.109  0.00  0.00    +0.099 C 
ENDBRANCH  26  29
ENDBRANCH  20  23
TORSDOF 3
ENDMDL
MODEL 8
REMARK VINA RESULT:      -6.5     23.688     26.591
REMARK  Name = 7673867
REMARK  4 active torsions:
REMARK  status: ('A' for Active; 'I' for Inactive)
REMARK    1  A    between atoms: N_2  and  C_11
REMARK    2  A    between atoms: N_4  and  C_22
REMARK    3  A    between atoms: C_20  and  C_23
REMARK    4  A    between atoms: C_26  and  C_29
REMARK                            x       y       z     vdW  Elec       q    Type
REMARK                         _______ _______ _______ _____ _____    ______ ____
ROOT
ATOM      1  O   UNL     1      -4.518 -10.109  17.054  0.00  0.00    -0.267 OA
ATOM      2  N   UNL     1      -3.292 -10.953  12.267  0.00  0.00    -0.298 NA
ATOM      3  N   UNL     1      -3.720 -11.520  15.376  0.00  0.00    -0.311 N 
ATOM      6  C   UNL     1      -1.561 -11.046  14.078  0.00  0.00    +0.024 C 
ATOM      7  C   UNL     1      -2.873 -13.047  13.563  0.00  0.00    +0.050 C 
ATOM      8  C   UNL     1      -1.479 -12.561  13.951  0.00  0.00    +0.017 C 
ATOM      9  C   UNL     1      -2.005 -10.425  12.737  0.00  0.00    +0.090 C 
ATOM     10  C   UNL     1      -3.280 -12.422  12.209  0.00  0.00    +0.094 C 
ATOM     12  C   UNL     1      -2.511 -10.697  15.233  0.00  0.00    +0.130 C 
ATOM     13  C   UNL     1      -3.885 -12.694  14.637  0.00  0.00    +0.026 A 
ATOM     18  C   UNL     1      -4.942 -13.491  14.862  0.00  0.00    +0.022 A 
ATOM     19  C   UNL     1      -4.645 -11.121  16.362  0.00  0.00    +0.259 A 
ATOM     20  C   UNL     1      -5.833 -12.018  16.565  0.00  0.00    +0.047 A 
ATOM     21  C   UNL     1      -5.933 -13.142  15.841  0.00  0.00    +0.015 A 
ENDROOT
BRANCH   2  11
ATOM      4  N   UNL     1      -5.646  -9.938   8.877  0.00  0.00    -0.305 NA
ATOM     11  C   UNL     1      -3.650 -10.381  10.971  0.00  0.00    +0.059 C 
ATOM     14  C   UNL     1      -4.795  -9.378  11.133  0.00  0.00    +0.034 C 
ATOM     15  C   UNL     1      -4.053 -11.477   9.980  0.00  0.00    +0.034 C 
ATOM     16  C   UNL     1      -5.252  -8.842   9.773  0.00  0.00    +0.085 C 
ATOM     17  C   UNL     1      -4.534 -10.873   8.659  0.00  0.00    +0.085 C 
ATOM     22  C   UNL     1      -6.127  -9.407   7.601  0.00  0.00    +0.104 C 
ENDBRANCH   2  11
BRANCH  20  23
ATOM     23  C   UNL     1      -6.843 -11.684  17.520  0.00  0.00    -0.011 A 
ATOM     24  C   UNL     1      -7.808 -10.725  17.211  0.00  0.00    +0.027 A 
ATOM     25  C   UNL     1      -6.863 -12.317  18.763  0.00  0.00    +0.009 A 
ATOM     26  C   UNL     1      -8.792 -10.398  18.145  0.00  0.00    +0.052 A 
ATOM     27  C   UNL     1      -7.847 -11.991  19.697  0.00  0.00    +0.002 A 
ATOM     28  C   UNL     1      -8.811 -11.032  19.387  0.00  0.00    +0.019 A 
BRANCH  26  29
ATOM      5  N   UNL     1     -10.583  -8.617  17.571  0.00  0.00    -0.191 NA
ATOM     29  C   UNL     1      -9.780  -9.416  17.828  0.00  0.00    +0.099 C 
ENDBRANCH  26  29
ENDBRANCH  20  23
TORSDOF 3
ENDMDL
MODEL 9
REMARK VINA RESULT:      -6.4     24.073     30.207
REMARK  Name = 7673867
REMARK  4 active torsions:
REMARK  status: ('A' for Active; 'I' for Inactive)
REMARK    1  A    between atoms: N_2  and  C_11
REMARK    2  A    between atoms: N_4  and  C_22
REMARK    3  A    between atoms: C_20  and  C_23
REMARK    4  A    between atoms: C_26  and  C_29
REMARK                            x       y       z     vdW  Elec       q    Type
REMARK                         _______ _______ _______ _____ _____    ______ ____
ROOT
ATOM      1  O   UNL     1      17.583  -3.384  27.395  0.00  0.00    -0.267 OA
ATOM      2  N   UNL     1      18.608  -0.316  31.224  0.00  0.00    -0.298 NA
ATOM      3  N   UNL     1      19.102  -2.426  28.884  0.00  0.00    -0.311 N 
ATOM      6  C   UNL     1      18.972  -2.788  31.419  0.00  0.00    +0.024 C 
ATOM      7  C   UNL     1      20.743  -1.381  30.482  0.00  0.00    +0.050 C 
ATOM      8  C   UNL     1      20.481  -2.590  31.375  0.00  0.00    +0.017 C 
ATOM      9  C   UNL     1      18.289  -1.528  31.989  0.00  0.00    +0.090 C 
ATOM     10  C   UNL     1      20.061  -0.133  31.089  0.00  0.00    +0.094 C 
ATOM     12  C   UNL     1      18.479  -3.140  30.008  0.00  0.00    +0.130 C 
ATOM     13  C   UNL     1      20.235  -1.631  29.074  0.00  0.00    +0.026 A 
ATOM     18  C   UNL     1      20.856  -1.078  28.020  0.00  0.00    +0.022 A 
ATOM     19  C   UNL     1      18.562  -2.665  27.604  0.00  0.00    +0.259 A 
ATOM     20  C   UNL     1      19.262  -2.004  26.450  0.00  0.00    +0.047 A 
ATOM     21  C   UNL     1      20.356  -1.267  26.687  0.00  0.00    +0.015 A 
ENDROOT
BRANCH   2  11
ATOM      4  N   UNL     1      17.402   2.466  34.203  0.00  0.00    -0.305 NA
ATOM     11  C   UNL     1      17.987   0.862  31.826  0.00  0.00    +0.059 C 
ATOM     14  C   UNL     1      19.048   1.732  32.506  0.00  0.00    +0.034 C 
ATOM     15  C   UNL     1      16.914   0.458  32.841  0.00  0.00    +0.034 C 
ATOM     16  C   UNL     1      18.404   2.919  33.228  0.00  0.00    +0.085 C 
ATOM     17  C   UNL     1      16.341   1.686  33.552  0.00  0.00    +0.085 C 
ATOM     22  C   UNL     1      16.833   3.608  34.919  0.00  0.00    +0.104 C 
ENDBRANCH   2  11
BRANCH  20  23
ATOM     23  C   UNL     1      18.774  -2.161  25.116  0.00  0.00    -0.011 A 
ATOM     24  C   UNL     1      19.088  -3.307  24.386  0.00  0.00    +0.027 A 
ATOM     25  C   UNL     1      17.982  -1.166  24.543  0.00  0.00    +0.009 A 
ATOM     26  C   UNL     1      18.612  -3.458  23.083  0.00  0.00    +0.052 A 
ATOM     27  C   UNL     1      17.505  -1.316  23.241  0.00  0.00    +0.002 A 
ATOM     28  C   UNL     1      17.820  -2.462  22.511  0.00  0.00    +0.019 A 
BRANCH  26  29
ATOM      5  N   UNL     1      19.197  -5.587  21.729  0.00  0.00    -0.191 NA
ATOM     29  C   UNL     1      18.934  -4.633  22.336  0.00  0.00    +0.099 C 
ENDBRANCH  26  29
ENDBRANCH  20  23
TORSDOF 3
ENDMDL
MODEL 10
REMARK VINA RESULT:      -6.3     23.469     25.606
REMARK  Name = 7673867
REMARK  4 active torsions:
REMARK  status: ('A' for Active; 'I' for Inactive)
REMARK    1  A    between atoms: N_2  and  C_11
REMARK    2  A    between atoms: N_4  and  C_22
REMARK    3  A    between atoms: C_20  and  C_23
REMARK    4  A    between atoms: C_26  and  C_29
REMARK                            x       y       z     vdW  Elec       q    Type
REMARK                         _______ _______ _______ _____ _____    ______ ____
ROOT
ATOM      1  O   UNL     1      -7.038 -10.736  13.983  0.00  0.00    -0.267 OA
ATOM      2  N   UNL     1      -5.258 -10.992   9.304  0.00  0.00    -0.298 NA
ATOM      3  N   UNL     1      -5.558 -10.022  12.327  0.00  0.00    -0.311 N 
ATOM      6  C   UNL     1      -6.341  -8.899  10.159  0.00  0.00    +0.024 C 
ATOM      7  C   UNL     1      -3.951  -9.263  10.545  0.00  0.00    +0.050 C 
ATOM      8  C   UNL     1      -4.991  -8.197  10.210  0.00  0.00    +0.017 C 
ATOM      9  C   UNL     1      -6.323 -10.005   9.084  0.00  0.00    +0.090 C 
ATOM     10  C   UNL     1      -3.945 -10.344   9.440  0.00  0.00    +0.094 C 
ATOM     12  C   UNL     1      -6.668  -9.442  11.558  0.00  0.00    +0.130 C 
ATOM     13  C   UNL     1      -4.235  -9.887  11.898  0.00  0.00    +0.026 A 
ATOM     18  C   UNL     1      -3.227 -10.324  12.670  0.00  0.00    +0.022 A 
ATOM     19  C   UNL     1      -5.887 -10.625  13.558  0.00  0.00    +0.259 A 
ATOM     20  C   UNL     1      -4.737 -11.133  14.381  0.00  0.00    +0.047 A 
ATOM     21  C   UNL     1      -3.486 -10.961  13.930  0.00  0.00    +0.015 A 
ENDROOT
BRANCH   2  11
ATOM      4  N   UNL     1      -3.766 -13.440   6.165  0.00  0.00    -0.305 NA
ATOM     11  C   UNL     1      -5.241 -11.990   8.237  0.00  0.00    +0.059 C 
ATOM     14  C   UNL     1      -4.247 -13.106   8.571  0.00  0.00    +0.034 C 
ATOM     15  C   UNL     1      -4.876 -11.351   6.894  0.00  0.00    +0.034 C 
ATOM     16  C   UNL     1      -4.140 -14.110   7.419  0.00  0.00    +0.085 C 
ATOM     17  C   UNL     1      -4.749 -12.412   5.798  0.00  0.00    +0.085 C 
ATOM     22  C   UNL     1      -3.620 -14.418   5.088  0.00  0.00    +0.104 C 
ENDBRANCH   2  11
BRANCH  20  23
ATOM     23  C   UNL     1      -4.969 -11.788  15.630  0.00  0.00    -0.011 A 
ATOM     24  C   UNL     1      -5.364 -11.048  16.745  0.00  0.00    +0.027 A 
ATOM     25  C   UNL     1      -4.799 -13.168  15.735  0.00  0.00    +0.009 A 
ATOM     26  C   UNL     1      -5.589 -11.688  17.964  0.00  0.00    +0.052 A 
ATOM     27  C   UNL     1      -5.023 -13.809  16.954  0.00  0.00    +0.002 A 
ATOM     28  C   UNL     1      -5.419 -13.068  18.068  0.00  0.00    +0.019 A 
BRANCH  26  29
ATOM      5  N   UNL     1      -6.324 -10.314  20.033  0.00  0.00    -0.191 NA
ATOM     29  C   UNL     1      -5.994 -10.930  19.106  0.00  0.00    +0.099 C 
ENDBRANCH  26  29
ENDBRANCH  20  23
TORSDOF 3
ENDMDL
