MODEL 1
REMARK VINA RESULT:      -6.7      0.000      0.000
REMARK  Name = 71693615
REMARK  6 active torsions:
REMARK  status: ('A' for Active; 'I' for Inactive)
REMARK    1  A    between atoms: O_2  and  C_10
REMARK    2  A    between atoms: N_5  and  C_13
REMARK    3  A    between atoms: N_6  and  C_18
REMARK    4  A    between atoms: C_7  and  C_10
REMARK    5  A    between atoms: C_8  and  C_9
REMARK    6  A    between atoms: C_19  and  C_20
REMARK                            x       y       z     vdW  Elec       q    Type
REMARK                         _______ _______ _______ _____ _____    ______ ____
ROOT
ATOM      1  O   UNL     1      15.223   7.154  18.216  0.00  0.00    -0.361 OA
ATOM      3  O   UNL     1      11.703   7.328  17.693  0.00  0.00    -0.273 OA
ATOM      5  N   UNL     1      12.882   7.266  19.703  0.00  0.00    -0.295 N 
ATOM      7  C   UNL     1      14.193   7.157  20.386  0.00  0.00    +0.134 C 
ATOM      8  C   UNL     1      15.325   7.736  19.516  0.00  0.00    +0.171 C 
ATOM     11  C   UNL     1      14.060   7.597  17.560  0.00  0.00    +0.256 C 
ATOM     12  C   UNL     1      12.767   7.363  18.315  0.00  0.00    +0.242 C 
ATOM     13  C   UNL     1      11.675   7.021  20.489  0.00  0.00    +0.132 C 
ENDROOT
BRANCH   8   9
ATOM      9  C   UNL     1      16.719   7.437  20.027  0.00  0.00    -0.017 A 
ATOM     14  C   UNL     1      17.322   6.213  19.730  0.00  0.00    +0.008 A 
ATOM     15  C   UNL     1      17.401   8.382  20.792  0.00  0.00    +0.008 A 
ATOM     16  C   UNL     1      18.605   5.935  20.201  0.00  0.00    +0.023 A 
ATOM     17  C   UNL     1      18.685   8.105  21.262  0.00  0.00    +0.023 A 
ATOM     18  C   UNL     1      19.286   6.881  20.966  0.00  0.00    +0.033 A 
BRANCH  18   6
ATOM      4  O   UNL     1      20.257   6.255  23.746  0.00  0.00    -0.276 OA
ATOM      6  N   UNL     1      20.571   6.605  21.437  0.00  0.00    -0.286 N 
ATOM     19  C   UNL     1      20.969   6.321  22.750  0.00  0.00    +0.214 C 
ATOM     20  C   UNL     1      22.455   6.080  22.843  0.00  0.00    +0.109 C 
ATOM     22  H   UNL     1      21.303   6.615  20.730  0.00  0.00    +0.155 HD
ENDBRANCH  18   6
ENDBRANCH   8   9
BRANCH   7  10
ATOM     10  C   UNL     1      14.190   7.813  21.775  0.00  0.00    +0.181 C 
BRANCH  10   2
ATOM      2  O   UNL     1      14.899   6.970  22.661  0.00  0.00    -0.393 OA
ATOM     21  H   UNL     1      15.123   6.161  22.171  0.00  0.00    +0.209 HD
ENDBRANCH  10   2
ENDBRANCH   7  10
TORSDOF 4
ENDMDL
MODEL 2
REMARK VINA RESULT:      -6.5      1.767      2.686
REMARK  Name = 71693615
REMARK  6 active torsions:
REMARK  status: ('A' for Active; 'I' for Inactive)
REMARK    1  A    between atoms: O_2  and  C_10
REMARK    2  A    between atoms: N_5  and  C_13
REMARK    3  A    between atoms: N_6  and  C_18
REMARK    4  A    between atoms: C_7  and  C_10
REMARK    5  A    between atoms: C_8  and  C_9
REMARK    6  A    between atoms: C_19  and  C_20
REMARK                            x       y       z     vdW  Elec       q    Type
REMARK                         _______ _______ _______ _____ _____    ______ ____
ROOT
ATOM      1  O   UNL     1      13.888   6.814  21.074  0.00  0.00    -0.361 OA
ATOM      3  O   UNL     1      10.591   8.008  20.437  0.00  0.00    -0.273 OA
ATOM      5  N   UNL     1      12.547   8.402  19.233  0.00  0.00    -0.295 N 
ATOM      7  C   UNL     1      14.012   8.202  19.117  0.00  0.00    +0.134 C 
ATOM      8  C   UNL     1      14.446   6.871  19.760  0.00  0.00    +0.171 C 
ATOM     11  C   UNL     1      12.487   6.697  21.016  0.00  0.00    +0.256 C 
ATOM     12  C   UNL     1      11.783   7.778  20.221  0.00  0.00    +0.242 C 
ATOM     13  C   UNL     1      11.935   9.467  18.442  0.00  0.00    +0.132 C 
ENDROOT
BRANCH   8   9
ATOM      9  C   UNL     1      15.945   6.711  19.909  0.00  0.00    -0.017 A 
ATOM     14  C   UNL     1      16.651   5.900  19.019  0.00  0.00    +0.008 A 
ATOM     15  C   UNL     1      16.620   7.373  20.934  0.00  0.00    +0.008 A 
ATOM     16  C   UNL     1      18.031   5.751  19.156  0.00  0.00    +0.023 A 
ATOM     17  C   UNL     1      18.000   7.225  21.070  0.00  0.00    +0.023 A 
ATOM     18  C   UNL     1      18.705   6.413  20.182  0.00  0.00    +0.033 A 
BRANCH  18   6
ATOM      4  O   UNL     1      20.381   3.937  20.535  0.00  0.00    -0.276 OA
ATOM      6  N   UNL     1      20.086   6.266  20.319  0.00  0.00    -0.286 N 
ATOM     19  C   UNL     1      20.817   5.082  20.484  0.00  0.00    +0.214 C 
ATOM     20  C   UNL     1      22.297   5.350  20.596  0.00  0.00    +0.109 C 
ATOM     22  H   UNL     1      20.619   7.132  20.297  0.00  0.00    +0.155 HD
ENDBRANCH  18   6
ENDBRANCH   8   9
BRANCH   7  10
ATOM     10  C   UNL     1      14.505   8.286  17.665  0.00  0.00    +0.181 C 
BRANCH  10   2
ATOM      2  O   UNL     1      13.836   7.293  16.915  0.00  0.00    -0.393 OA
ATOM     21  H   UNL     1      12.933   7.614  16.753  0.00  0.00    +0.209 HD
ENDBRANCH  10   2
ENDBRANCH   7  10
TORSDOF 4
ENDMDL
MODEL 3
REMARK VINA RESULT:      -5.8     27.243     29.439
REMARK  Name = 71693615
REMARK  6 active torsions:
REMARK  status: ('A' for Active; 'I' for Inactive)
REMARK    1  A    between atoms: O_2  and  C_10
REMARK    2  A    between atoms: N_5  and  C_13
REMARK    3  A    between atoms: N_6  and  C_18
REMARK    4  A    between atoms: C_7  and  C_10
REMARK    5  A    between atoms: C_8  and  C_9
REMARK    6  A    between atoms: C_19  and  C_20
REMARK                            x       y       z     vdW  Elec       q    Type
REMARK                         _______ _______ _______ _____ _____    ______ ____
ROOT
ATOM      1  O   UNL     1     -12.823   8.241  16.179  0.00  0.00    -0.361 OA
ATOM      3  O   UNL     1     -11.653  10.327  13.537  0.00  0.00    -0.273 OA
ATOM      5  N   UNL     1     -11.237  10.492  15.824  0.00  0.00    -0.295 N 
ATOM      7  C   UNL     1     -11.493   9.969  17.188  0.00  0.00    +0.134 C 
ATOM      8  C   UNL     1     -11.805   8.461  17.157  0.00  0.00    +0.171 C 
ATOM     11  C   UNL     1     -12.333   8.491  14.883  0.00  0.00    +0.256 C 
ATOM     12  C   UNL     1     -11.730   9.866  14.678  0.00  0.00    +0.242 C 
ATOM     13  C   UNL     1     -10.660  11.829  15.698  0.00  0.00    +0.132 C 
ENDROOT
BRANCH   8   9
ATOM      9  C   UNL     1     -12.324   7.905  18.467  0.00  0.00    -0.017 A 
ATOM     14  C   UNL     1     -13.663   8.088  18.820  0.00  0.00    +0.008 A 
ATOM     15  C   UNL     1     -11.467   7.211  19.320  0.00  0.00    +0.008 A 
ATOM     16  C   UNL     1     -14.142   7.577  20.026  0.00  0.00    +0.023 A 
ATOM     17  C   UNL     1     -11.946   6.700  20.526  0.00  0.00    +0.023 A 
ATOM     18  C   UNL     1     -13.283   6.884  20.879  0.00  0.00    +0.033 A 
BRANCH  18   6
ATOM      4  O   UNL     1     -15.209   4.634  21.419  0.00  0.00    -0.276 OA
ATOM      6  N   UNL     1     -13.762   6.371  22.086  0.00  0.00    -0.286 N 
ATOM     19  C   UNL     1     -14.665   5.317  22.280  0.00  0.00    +0.214 C 
ATOM     20  C   UNL     1     -14.928   5.070  23.744  0.00  0.00    +0.109 C 
ATOM     22  H   UNL     1     -13.406   6.827  22.923  0.00  0.00    +0.155 HD
ENDBRANCH  18   6
ENDBRANCH   8   9
BRANCH   7  10
ATOM     10  C   UNL     1     -10.339  10.262  18.158  0.00  0.00    +0.181 C 
BRANCH  10   2
ATOM      2  O   UNL     1      -9.239   9.457  17.788  0.00  0.00    -0.393 OA
ATOM     21  H   UNL     1      -9.162   9.502  16.820  0.00  0.00    +0.209 HD
ENDBRANCH  10   2
ENDBRANCH   7  10
TORSDOF 4
ENDMDL
MODEL 4
REMARK VINA RESULT:      -5.8      2.171      7.414
REMARK  Name = 71693615
REMARK  6 active torsions:
REMARK  status: ('A' for Active; 'I' for Inactive)
REMARK    1  A    between atoms: O_2  and  C_10
REMARK    2  A    between atoms: N_5  and  C_13
REMARK    3  A    between atoms: N_6  and  C_18
REMARK    4  A    between atoms: C_7  and  C_10
REMARK    5  A    between atoms: C_8  and  C_9
REMARK    6  A    between atoms: C_19  and  C_20
REMARK                            x       y       z     vdW  Elec       q    Type
REMARK                         _______ _______ _______ _____ _____    ______ ____
ROOT
ATOM      1  O   UNL     1      20.361   4.641  20.316  0.00  0.00    -0.361 OA
ATOM      3  O   UNL     1      23.899   4.803  20.712  0.00  0.00    -0.273 OA
ATOM      5  N   UNL     1      22.354   6.547  20.634  0.00  0.00    -0.295 N 
ATOM      7  C   UNL     1      20.943   6.967  20.458  0.00  0.00    +0.134 C 
ATOM      8  C   UNL     1      19.971   5.870  20.931  0.00  0.00    +0.171 C 
ATOM     11  C   UNL     1      21.601   4.203  20.816  0.00  0.00    +0.256 C 
ATOM     12  C   UNL     1      22.733   5.204  20.694  0.00  0.00    +0.242 C 
ATOM     13  C   UNL     1      23.396   7.562  20.496  0.00  0.00    +0.132 C 
ENDROOT
BRANCH   8   9
ATOM      9  C   UNL     1      18.525   6.113  20.554  0.00  0.00    -0.017 A 
ATOM     14  C   UNL     1      18.068   5.765  19.282  0.00  0.00    +0.008 A 
ATOM     15  C   UNL     1      17.649   6.684  21.477  0.00  0.00    +0.008 A 
ATOM     16  C   UNL     1      16.736   5.990  18.933  0.00  0.00    +0.023 A 
ATOM     17  C   UNL     1      16.317   6.908  21.128  0.00  0.00    +0.023 A 
ATOM     18  C   UNL     1      15.861   6.561  19.856  0.00  0.00    +0.033 A 
BRANCH  18   6
ATOM      4  O   UNL     1      14.620   8.712  18.154  0.00  0.00    -0.276 OA
ATOM      6  N   UNL     1      14.528   6.785  19.509  0.00  0.00    -0.286 N 
ATOM     19  C   UNL     1      14.003   7.810  18.710  0.00  0.00    +0.214 C 
ATOM     20  C   UNL     1      12.505   7.702  18.576  0.00  0.00    +0.109 C 
ATOM     22  H   UNL     1      13.862   6.117  19.889  0.00  0.00    +0.155 HD
ENDBRANCH  18   6
ENDBRANCH   8   9
BRANCH   7  10
ATOM     10  C   UNL     1      20.634   8.300  21.156  0.00  0.00    +0.181 C 
BRANCH  10   2
ATOM      2  O   UNL     1      20.682   8.087  22.552  0.00  0.00    -0.393 OA
ATOM     21  H   UNL     1      20.661   8.961  22.977  0.00  0.00    +0.209 HD
ENDBRANCH  10   2
ENDBRANCH   7  10
TORSDOF 4
ENDMDL
MODEL 5
REMARK VINA RESULT:      -5.6     26.863     30.311
REMARK  Name = 71693615
REMARK  6 active torsions:
REMARK  status: ('A' for Active; 'I' for Inactive)
REMARK    1  A    between atoms: O_2  and  C_10
REMARK    2  A    between atoms: N_5  and  C_13
REMARK    3  A    between atoms: N_6  and  C_18
REMARK    4  A    between atoms: C_7  and  C_10
REMARK    5  A    between atoms: C_8  and  C_9
REMARK    6  A    between atoms: C_19  and  C_20
REMARK                            x       y       z     vdW  Elec       q    Type
REMARK                         _______ _______ _______ _____ _____    ______ ____
ROOT
ATOM      1  O   UNL     1      -8.197 -13.190  20.013  0.00  0.00    -0.361 OA
ATOM      3  O   UNL     1     -11.516 -12.928  21.283  0.00  0.00    -0.273 OA
ATOM      5  N   UNL     1     -10.368 -11.465  19.878  0.00  0.00    -0.295 N 
ATOM      7  C   UNL     1      -9.105 -11.128  19.177  0.00  0.00    +0.134 C 
ATOM      8  C   UNL     1      -8.306 -12.399  18.828  0.00  0.00    +0.171 C 
ATOM     11  C   UNL     1      -9.453 -13.700  20.390  0.00  0.00    +0.256 C 
ATOM     12  C   UNL     1     -10.538 -12.658  20.583  0.00  0.00    +0.242 C 
ATOM     13  C   UNL     1     -11.368 -10.412  20.035  0.00  0.00    +0.132 C 
ENDROOT
BRANCH   8   9
ATOM      9  C   UNL     1      -6.896 -12.133  18.343  0.00  0.00    -0.017 A 
ATOM     14  C   UNL     1      -6.070 -11.255  19.046  0.00  0.00    +0.008 A 
ATOM     15  C   UNL     1      -6.422 -12.767  17.194  0.00  0.00    +0.008 A 
ATOM     16  C   UNL     1      -4.772 -11.009  18.600  0.00  0.00    +0.023 A 
ATOM     17  C   UNL     1      -5.124 -12.522  16.748  0.00  0.00    +0.023 A 
ATOM     18  C   UNL     1      -4.299 -11.643  17.451  0.00  0.00    +0.033 A 
BRANCH  18   6
ATOM      4  O   UNL     1      -3.312 -10.469  14.860  0.00  0.00    -0.276 OA
ATOM      6  N   UNL     1      -2.999 -11.399  17.003  0.00  0.00    -0.286 N 
ATOM     19  C   UNL     1      -2.596 -10.849  15.779  0.00  0.00    +0.214 C 
ATOM     20  C   UNL     1      -1.093 -10.751  15.680  0.00  0.00    +0.109 C 
ATOM     22  H   UNL     1      -2.261 -11.657  17.654  0.00  0.00    +0.155 HD
ENDBRANCH  18   6
ENDBRANCH   8   9
BRANCH   7  10
ATOM     10  C   UNL     1      -9.338 -10.275  17.922  0.00  0.00    +0.181 C 
BRANCH  10   2
ATOM      2  O   UNL     1      -8.668  -9.043  18.098  0.00  0.00    -0.393 OA
ATOM     21  H   UNL     1      -9.317  -8.411  18.450  0.00  0.00    +0.209 HD
ENDBRANCH  10   2
ENDBRANCH   7  10
TORSDOF 4
ENDMDL
MODEL 6
REMARK VINA RESULT:      -5.5     27.748     29.422
REMARK  Name = 71693615
REMARK  6 active torsions:
REMARK  status: ('A' for Active; 'I' for Inactive)
REMARK    1  A    between atoms: O_2  and  C_10
REMARK    2  A    between atoms: N_5  and  C_13
REMARK    3  A    between atoms: N_6  and  C_18
REMARK    4  A    between atoms: C_7  and  C_10
REMARK    5  A    between atoms: C_8  and  C_9
REMARK    6  A    between atoms: C_19  and  C_20
REMARK                            x       y       z     vdW  Elec       q    Type
REMARK                         _______ _______ _______ _____ _____    ______ ____
ROOT
ATOM      1  O   UNL     1      -8.129  -9.380  16.190  0.00  0.00    -0.361 OA
ATOM      3  O   UNL     1     -11.158  -8.513  17.855  0.00  0.00    -0.273 OA
ATOM      5  N   UNL     1      -9.532 -10.058  18.488  0.00  0.00    -0.295 N 
ATOM      7  C   UNL     1      -8.260 -10.746  18.162  0.00  0.00    +0.134 C 
ATOM      8  C   UNL     1      -7.352  -9.857  17.290  0.00  0.00    +0.171 C 
ATOM     11  C   UNL     1      -9.121  -8.485  16.631  0.00  0.00    +0.256 C 
ATOM     12  C   UNL     1     -10.049  -9.028  17.699  0.00  0.00    +0.242 C 
ATOM     13  C   UNL     1     -10.382 -10.639  19.524  0.00  0.00    +0.132 C 
ENDROOT
BRANCH   8   9
ATOM      9  C   UNL     1      -6.153 -10.575  16.706  0.00  0.00    -0.017 A 
ATOM     14  C   UNL     1      -6.340 -11.672  15.864  0.00  0.00    +0.008 A 
ATOM     15  C   UNL     1      -4.863 -10.139  17.008  0.00  0.00    +0.008 A 
ATOM     16  C   UNL     1      -5.236 -12.334  15.326  0.00  0.00    +0.023 A 
ATOM     17  C   UNL     1      -3.760 -10.801  16.469  0.00  0.00    +0.023 A 
ATOM     18  C   UNL     1      -3.947 -11.899  15.629  0.00  0.00    +0.033 A 
BRANCH  18   6
ATOM      4  O   UNL     1      -2.725 -11.743  12.882  0.00  0.00    -0.276 OA
ATOM      6  N   UNL     1      -2.841 -12.560  15.090  0.00  0.00    -0.286 N 
ATOM     19  C   UNL     1      -2.316 -12.450  13.796  0.00  0.00    +0.214 C 
ATOM     20  C   UNL     1      -1.109 -13.336  13.607  0.00  0.00    +0.109 C 
ATOM     22  H   UNL     1      -2.367 -13.199  15.723  0.00  0.00    +0.155 HD
ENDBRANCH  18   6
ENDBRANCH   8   9
BRANCH   7  10
ATOM     10  C   UNL     1      -7.508 -11.219  19.415  0.00  0.00    +0.181 C 
BRANCH  10   2
ATOM      2  O   UNL     1      -6.926 -10.089  20.032  0.00  0.00    -0.393 OA
ATOM     21  H   UNL     1      -7.307 -10.020  20.924  0.00  0.00    +0.209 HD
ENDBRANCH  10   2
ENDBRANCH   7  10
TORSDOF 4
ENDMDL
MODEL 7
REMARK VINA RESULT:      -5.5     26.157     29.799
REMARK  Name = 71693615
REMARK  6 active torsions:
REMARK  status: ('A' for Active; 'I' for Inactive)
REMARK    1  A    between atoms: O_2  and  C_10
REMARK    2  A    between atoms: N_5  and  C_13
REMARK    3  A    between atoms: N_6  and  C_18
REMARK    4  A    between atoms: C_7  and  C_10
REMARK    5  A    between atoms: C_8  and  C_9
REMARK    6  A    between atoms: C_19  and  C_20
REMARK                            x       y       z     vdW  Elec       q    Type
REMARK                         _______ _______ _______ _____ _____    ______ ____
ROOT
ATOM      1  O   UNL     1      -5.350 -10.255  14.250  0.00  0.00    -0.361 OA
ATOM      3  O   UNL     1      -1.933 -10.462  13.259  0.00  0.00    -0.273 OA
ATOM      5  N   UNL     1      -2.854 -10.675  15.390  0.00  0.00    -0.295 N 
ATOM      7  C   UNL     1      -4.065 -10.631  16.244  0.00  0.00    +0.134 C 
ATOM      8  C   UNL     1      -5.323 -11.030  15.450  0.00  0.00    +0.171 C 
ATOM     11  C   UNL     1      -4.300 -10.629  13.390  0.00  0.00    +0.256 C 
ATOM     12  C   UNL     1      -2.914 -10.558  14.000  0.00  0.00    +0.242 C 
ATOM     13  C   UNL     1      -1.549 -10.596  16.042  0.00  0.00    +0.132 C 
ENDROOT
BRANCH   8   9
ATOM      9  C   UNL     1      -6.627 -10.768  16.174  0.00  0.00    -0.017 A 
ATOM     14  C   UNL     1      -6.933  -9.479  16.614  0.00  0.00    +0.008 A 
ATOM     15  C   UNL     1      -7.522 -11.813  16.402  0.00  0.00    +0.008 A 
ATOM     16  C   UNL     1      -8.133  -9.236  17.282  0.00  0.00    +0.023 A 
ATOM     17  C   UNL     1      -8.722 -11.570  17.069  0.00  0.00    +0.023 A 
ATOM     18  C   UNL     1      -9.027 -10.282  17.510  0.00  0.00    +0.033 A 
BRANCH  18   6
ATOM      4  O   UNL     1      -9.790 -10.733  20.387  0.00  0.00    -0.276 OA
ATOM      6  N   UNL     1     -10.229 -10.040  18.177  0.00  0.00    -0.286 N 
ATOM     19  C   UNL     1     -10.531 -10.273  19.526  0.00  0.00    +0.214 C 
ATOM     20  C   UNL     1     -11.948  -9.876  19.857  0.00  0.00    +0.109 C 
ATOM     22  H   UNL     1     -10.972  -9.648  17.604  0.00  0.00    +0.155 HD
ENDBRANCH  18   6
ENDBRANCH   8   9
BRANCH   7  10
ATOM     10  C   UNL     1      -3.927 -11.496  17.506  0.00  0.00    +0.181 C 
BRANCH  10   2
ATOM      2  O   UNL     1      -4.081 -12.849  17.131  0.00  0.00    -0.393 OA
ATOM     21  H   UNL     1      -4.983 -12.951  16.786  0.00  0.00    +0.209 HD
ENDBRANCH  10   2
ENDBRANCH   7  10
TORSDOF 4
ENDMDL
MODEL 8
REMARK VINA RESULT:      -5.3      5.029      7.432
REMARK  Name = 71693615
REMARK  6 active torsions:
REMARK  status: ('A' for Active; 'I' for Inactive)
REMARK    1  A    between atoms: O_2  and  C_10
REMARK    2  A    between atoms: N_5  and  C_13
REMARK    3  A    between atoms: N_6  and  C_18
REMARK    4  A    between atoms: C_7  and  C_10
REMARK    5  A    between atoms: C_8  and  C_9
REMARK    6  A    between atoms: C_19  and  C_20
REMARK                            x       y       z     vdW  Elec       q    Type
REMARK                         _______ _______ _______ _____ _____    ______ ____
ROOT
ATOM      1  O   UNL     1      13.048   8.659  19.817  0.00  0.00    -0.361 OA
ATOM      3  O   UNL     1      13.971   7.311  16.650  0.00  0.00    -0.273 OA
ATOM      5  N   UNL     1      13.851   9.543  17.310  0.00  0.00    -0.295 N 
ATOM      7  C   UNL     1      13.515  10.522  18.373  0.00  0.00    +0.134 C 
ATOM      8  C   UNL     1      13.725   9.917  19.774  0.00  0.00    +0.171 C 
ATOM     11  C   UNL     1      13.675   7.726  18.971  0.00  0.00    +0.256 C 
ATOM     12  C   UNL     1      13.825   8.164  17.528  0.00  0.00    +0.242 C 
ATOM     13  C   UNL     1      13.973  10.033  15.939  0.00  0.00    +0.132 C 
ENDROOT
BRANCH   8   9
ATOM      9  C   UNL     1      13.168  10.757  20.904  0.00  0.00    -0.017 A 
ATOM     14  C   UNL     1      11.808  11.073  20.934  0.00  0.00    +0.008 A 
ATOM     15  C   UNL     1      14.012  11.214  21.917  0.00  0.00    +0.008 A 
ATOM     16  C   UNL     1      11.294  11.847  21.974  0.00  0.00    +0.023 A 
ATOM     17  C   UNL     1      13.497  11.987  22.957  0.00  0.00    +0.023 A 
ATOM     18  C   UNL     1      12.139  12.304  22.985  0.00  0.00    +0.033 A 
BRANCH  18   6
ATOM      4  O   UNL     1      10.818  11.481  25.562  0.00  0.00    -0.276 OA
ATOM      6  N   UNL     1      11.626  13.078  24.028  0.00  0.00    -0.286 N 
ATOM     19  C   UNL     1      11.015  12.638  25.210  0.00  0.00    +0.214 C 
ATOM     20  C   UNL     1      10.595  13.794  26.084  0.00  0.00    +0.109 C 
ATOM     22  H   UNL     1      11.708  14.084  23.903  0.00  0.00    +0.155 HD
ENDBRANCH  18   6
ENDBRANCH   8   9
BRANCH   7  10
ATOM     10  C   UNL     1      14.296  11.836  18.230  0.00  0.00    +0.181 C 
BRANCH  10   2
ATOM      2  O   UNL     1      13.384  12.854  17.872  0.00  0.00    -0.393 OA
ATOM     21  H   UNL     1      13.522  13.593  18.488  0.00  0.00    +0.209 HD
ENDBRANCH  10   2
ENDBRANCH   7  10
TORSDOF 4
ENDMDL
MODEL 9
REMARK VINA RESULT:      -5.3      4.858      7.141
REMARK  Name = 71693615
REMARK  6 active torsions:
REMARK  status: ('A' for Active; 'I' for Inactive)
REMARK    1  A    between atoms: O_2  and  C_10
REMARK    2  A    between atoms: N_5  and  C_13
REMARK    3  A    between atoms: N_6  and  C_18
REMARK    4  A    between atoms: C_7  and  C_10
REMARK    5  A    between atoms: C_8  and  C_9
REMARK    6  A    between atoms: C_19  and  C_20
REMARK                            x       y       z     vdW  Elec       q    Type
REMARK                         _______ _______ _______ _____ _____    ______ ____
ROOT
ATOM      1  O   UNL     1      11.890  10.169  20.245  0.00  0.00    -0.361 OA
ATOM      3  O   UNL     1      10.556   8.349  23.004  0.00  0.00    -0.273 OA
ATOM      5  N   UNL     1      11.727   7.550  21.153  0.00  0.00    -0.295 N 
ATOM      7  C   UNL     1      12.380   7.849  19.856  0.00  0.00    +0.134 C 
ATOM      8  C   UNL     1      12.934   9.287  19.829  0.00  0.00    +0.171 C 
ATOM     11  C   UNL     1      11.583   9.973  21.605  0.00  0.00    +0.256 C 
ATOM     12  C   UNL     1      11.217   8.551  21.982  0.00  0.00    +0.242 C 
ATOM     13  C   UNL     1      11.395   6.159  21.451  0.00  0.00    +0.132 C 
ENDROOT
BRANCH   8   9
ATOM      9  C   UNL     1      13.388   9.754  18.462  0.00  0.00    -0.017 A 
ATOM     14  C   UNL     1      14.535  10.539  18.339  0.00  0.00    +0.008 A 
ATOM     15  C   UNL     1      12.661   9.399  17.325  0.00  0.00    +0.008 A 
ATOM     16  C   UNL     1      14.954  10.971  17.080  0.00  0.00    +0.023 A 
ATOM     17  C   UNL     1      13.080   9.830  16.067  0.00  0.00    +0.023 A 
ATOM     18  C   UNL     1      14.226  10.616  15.945  0.00  0.00    +0.033 A 
BRANCH  18   6
ATOM      4  O   UNL     1      13.599  13.144  14.434  0.00  0.00    -0.276 OA
ATOM      6  N   UNL     1      14.645  11.046  14.684  0.00  0.00    -0.286 N 
ATOM     19  C   UNL     1      14.318  12.238  14.025  0.00  0.00    +0.214 C 
ATOM     20  C   UNL     1      14.977  12.327  12.671  0.00  0.00    +0.109 C 
ATOM     22  H   UNL     1      15.262  10.406  14.190  0.00  0.00    +0.155 HD
ENDBRANCH  18   6
ENDBRANCH   8   9
BRANCH   7  10
ATOM     10  C   UNL     1      13.483   6.840  19.506  0.00  0.00    +0.181 C 
BRANCH  10   2
ATOM      2  O   UNL     1      14.569   7.051  20.385  0.00  0.00    -0.393 OA
ATOM     21  H   UNL     1      14.218   7.497  21.174  0.00  0.00    +0.209 HD
ENDBRANCH  10   2
ENDBRANCH   7  10
TORSDOF 4
ENDMDL
MODEL 10
REMARK VINA RESULT:      -5.2     23.034     26.260
REMARK  Name = 71693615
REMARK  6 active torsions:
REMARK  status: ('A' for Active; 'I' for Inactive)
REMARK    1  A    between atoms: O_2  and  C_10
REMARK    2  A    between atoms: N_5  and  C_13
REMARK    3  A    between atoms: N_6  and  C_18
REMARK    4  A    between atoms: C_7  and  C_10
REMARK    5  A    between atoms: C_8  and  C_9
REMARK    6  A    between atoms: C_19  and  C_20
REMARK                            x       y       z     vdW  Elec       q    Type
REMARK                         _______ _______ _______ _____ _____    ______ ____
ROOT
ATOM      1  O   UNL     1      -1.668   9.467   3.284  0.00  0.00    -0.361 OA
ATOM      3  O   UNL     1       0.966  11.844   3.617  0.00  0.00    -0.273 OA
ATOM      5  N   UNL     1      -0.701  11.284   5.147  0.00  0.00    -0.295 N 
ATOM      7  C   UNL     1      -1.919  10.491   5.443  0.00  0.00    +0.134 C 
ATOM      8  C   UNL     1      -1.925   9.166   4.656  0.00  0.00    +0.171 C 
ATOM     11  C   UNL     1      -0.350   9.931   3.113  0.00  0.00    +0.256 C 
ATOM     12  C   UNL     1       0.027  11.126   3.966  0.00  0.00    +0.242 C 
ATOM     13  C   UNL     1      -0.401  12.428   6.005  0.00  0.00    +0.132 C 
ENDROOT
BRANCH   8   9
ATOM      9  C   UNL     1      -3.242   8.419   4.705  0.00  0.00    -0.017 A 
ATOM     14  C   UNL     1      -4.407   9.029   4.236  0.00  0.00    +0.008 A 
ATOM     15  C   UNL     1      -3.292   7.123   5.219  0.00  0.00    +0.008 A 
ATOM     16  C   UNL     1      -5.620   8.343   4.281  0.00  0.00    +0.023 A 
ATOM     17  C   UNL     1      -4.505   6.437   5.263  0.00  0.00    +0.023 A 
ATOM     18  C   UNL     1      -5.669   7.047   4.795  0.00  0.00    +0.033 A 
BRANCH  18   6
ATOM      4  O   UNL     1      -8.182   7.410   3.177  0.00  0.00    -0.276 OA
ATOM      6  N   UNL     1      -6.883   6.358   4.839  0.00  0.00    -0.286 N 
ATOM     19  C   UNL     1      -8.027   6.573   4.060  0.00  0.00    +0.214 C 
ATOM     20  C   UNL     1      -9.134   5.613   4.418  0.00  0.00    +0.109 C 
ATOM     22  H   UNL     1      -6.933   5.611   5.528  0.00  0.00    +0.155 HD
ENDBRANCH  18   6
ENDBRANCH   8   9
BRANCH   7  10
ATOM     10  C   UNL     1      -2.100  10.228   6.945  0.00  0.00    +0.181 C 
BRANCH  10   2
ATOM      2  O   UNL     1      -1.048   9.387   7.374  0.00  0.00    -0.393 OA
ATOM     21  H   UNL     1      -0.315   9.501   6.746  0.00  0.00    +0.209 HD
ENDBRANCH  10   2
ENDBRANCH   7  10
TORSDOF 4
ENDMDL
