MODEL 1
REMARK VINA RESULT:      -6.9      0.000      0.000
REMARK  Name = 11883013
REMARK  14 active torsions:
REMARK  status: ('A' for Active; 'I' for Inactive)
REMARK    1  A    between atoms: O_2  and  C_16
REMARK    2  A    between atoms: O_3  and  C_21
REMARK    3  A    between atoms: N_8  and  C_27
REMARK    4  A    between atoms: N_10  and  C_29
REMARK    5  A    between atoms: C_11  and  C_19
REMARK    6  A    between atoms: C_13  and  C_21
REMARK    7  A    between atoms: C_13  and  C_22
REMARK    8  A    between atoms: C_14  and  C_24
REMARK    9  A    between atoms: C_24  and  C_25
REMARK   10  A    between atoms: C_27  and  C_29
REMARK   11  A    between atoms: C_28  and  C_30
REMARK   12  A    between atoms: C_30  and  C_31
REMARK   13  A    between atoms: C_30  and  C_32
REMARK   14  A    between atoms: C_30  and  C_33
REMARK                            x       y       z     vdW  Elec       q    Type
REMARK                         _______ _______ _______ _____ _____    ______ ____
ROOT
ATOM      1  S   UNL     1      18.015   6.235  20.126  0.00  0.00    -0.057 S 
ATOM      5  O   UNL     1      20.880   8.768  22.755  0.00  0.00    -0.275 OA
ATOM      7  N   UNL     1      18.253   8.429  21.476  0.00  0.00    -0.229 NA
ATOM      9  N   UNL     1      20.169   6.967  21.430  0.00  0.00    -0.264 N 
ATOM     11  C   UNL     1      14.785   9.470  20.148  0.00  0.00    -0.019 C 
ATOM     12  C   UNL     1      14.278   7.963  20.066  0.00  0.00    +0.011 C 
ATOM     13  C   UNL     1      12.853   7.721  19.434  0.00  0.00    +0.021 C 
ATOM     14  C   UNL     1      15.999   9.526  21.186  0.00  0.00    +0.054 C 
ATOM     15  C   UNL     1      13.643  10.371  20.684  0.00  0.00    +0.010 C 
ATOM     16  C   UNL     1      11.843   8.734  20.046  0.00  0.00    +0.123 C 
ATOM     17  C   UNL     1      15.382   7.021  19.502  0.00  0.00    +0.049 C 
ATOM     18  C   UNL     1      12.317  10.181  19.962  0.00  0.00    +0.032 C 
ATOM     19  C   UNL     1      15.254  10.023  18.779  0.00  0.00    +0.012 C 
ATOM     20  C   UNL     1      16.983   8.413  20.929  0.00  0.00    +0.058 A 
ATOM     22  C   UNL     1      12.365   6.295  19.814  0.00  0.00    +0.016 C 
ATOM     23  C   UNL     1      16.679   7.290  20.186  0.00  0.00    +0.015 A 
ATOM     26  C   UNL     1      18.889   7.336  21.113  0.00  0.00    +0.165 A 
ATOM     28  C   UNL     1      21.090   7.683  22.220  0.00  0.00    +0.224 C 
ATOM     41  H   UNL     1      20.455   6.075  21.038  0.00  0.00    +0.157 HD
ENDROOT
BRANCH  28  30
ATOM     30  C   UNL     1      22.459   6.974  22.378  0.00  0.00    +0.039 C 
ATOM     31  C   UNL     1      23.448   7.488  21.320  0.00  0.00    +0.020 C 
ATOM     32  C   UNL     1      23.020   7.212  23.789  0.00  0.00    +0.020 C 
ATOM     33  C   UNL     1      22.279   5.457  22.177  0.00  0.00    +0.020 C 
ENDBRANCH  28  30
BRANCH  16   2
ATOM      2  O   UNL     1      10.573   8.628  19.402  0.00  0.00    -0.391 OA
ATOM     38  H   UNL     1       9.899   8.978  20.007  0.00  0.00    +0.210 HD
ENDBRANCH  16   2
BRANCH  13  21
ATOM     21  C   UNL     1      12.819   7.775  17.890  0.00  0.00    +0.165 C 
BRANCH  21   3
ATOM      3  O   UNL     1      11.726   6.997  17.455  0.00  0.00    -0.394 OA
ATOM     39  H   UNL     1      12.009   6.067  17.430  0.00  0.00    +0.209 HD
ENDBRANCH  21   3
ENDBRANCH  13  21
BRANCH  14  24
ATOM     24  C   UNL     1      16.702  10.887  21.274  0.00  0.00    +0.106 C 
BRANCH  24  25
ATOM      4  O   UNL     1      17.758  11.835  23.233  0.00  0.00    -0.276 OA
ATOM      8  N   UNL     1      15.485  11.352  23.277  0.00  0.00    -0.314 N 
ATOM     25  C   UNL     1      16.741  11.414  22.689  0.00  0.00    +0.214 C 
ATOM     40  H   UNL     1      14.688  11.040  22.732  0.00  0.00    +0.149 HD
BRANCH   8  27
ATOM     27  C   UNL     1      15.224  11.788  24.629  0.00  0.00    +0.119 C 
BRANCH  27  29
ATOM     29  C   UNL     1      14.321  13.013  24.624  0.00  0.00    +0.103 C 
BRANCH  29  10
ATOM      6  O   UNL     1      10.151  12.548  24.541  0.00  0.00    -0.377 OA
ATOM     10  N   UNL     1      12.971  12.674  24.179  0.00  0.00    -0.297 NA
ATOM     34  C   UNL     1      12.131  13.878  24.100  0.00  0.00    +0.112 C 
ATOM     35  C   UNL     1      12.355  11.690  25.078  0.00  0.00    +0.112 C 
ATOM     36  C   UNL     1      10.725  13.499  23.644  0.00  0.00    +0.175 C 
ATOM     37  C   UNL     1      10.944  11.362  24.598  0.00  0.00    +0.175 C 
ENDBRANCH  29  10
ENDBRANCH  27  29
ENDBRANCH   8  27
ENDBRANCH  24  25
ENDBRANCH  14  24
TORSDOF 9
ENDMDL
MODEL 2
REMARK VINA RESULT:      -6.7     15.965     20.092
REMARK  Name = 11883013
REMARK  14 active torsions:
REMARK  status: ('A' for Active; 'I' for Inactive)
REMARK    1  A    between atoms: O_2  and  C_16
REMARK    2  A    between atoms: O_3  and  C_21
REMARK    3  A    between atoms: N_8  and  C_27
REMARK    4  A    between atoms: N_10  and  C_29
REMARK    5  A    between atoms: C_11  and  C_19
REMARK    6  A    between atoms: C_13  and  C_21
REMARK    7  A    between atoms: C_13  and  C_22
REMARK    8  A    between atoms: C_14  and  C_24
REMARK    9  A    between atoms: C_24  and  C_25
REMARK   10  A    between atoms: C_27  and  C_29
REMARK   11  A    between atoms: C_28  and  C_30
REMARK   12  A    between atoms: C_30  and  C_31
REMARK   13  A    between atoms: C_30  and  C_32
REMARK   14  A    between atoms: C_30  and  C_33
REMARK                            x       y       z     vdW  Elec       q    Type
REMARK                         _______ _______ _______ _____ _____    ______ ____
ROOT
ATOM      1  S   UNL     1      14.058   8.239   6.862  0.00  0.00    -0.057 S 
ATOM      5  O   UNL     1      10.931   5.897   4.357  0.00  0.00    -0.275 OA
ATOM      7  N   UNL     1      13.604   7.104   4.582  0.00  0.00    -0.229 NA
ATOM      9  N   UNL     1      11.823   7.037   6.204  0.00  0.00    -0.264 N 
ATOM     11  C   UNL     1      16.997   8.479   3.369  0.00  0.00    -0.019 C 
ATOM     12  C   UNL     1      17.633   8.413   4.827  0.00  0.00    +0.011 C 
ATOM     13  C   UNL     1      19.087   9.001   5.000  0.00  0.00    +0.021 C 
ATOM     14  C   UNL     1      15.761   7.467   3.323  0.00  0.00    +0.054 C 
ATOM     15  C   UNL     1      18.046   8.015   2.326  0.00  0.00    +0.010 C 
ATOM     16  C   UNL     1      19.993   8.474   3.850  0.00  0.00    +0.123 C 
ATOM     17  C   UNL     1      16.627   8.899   5.909  0.00  0.00    +0.049 C 
ATOM     18  C   UNL     1      19.398   8.699   2.465  0.00  0.00    +0.032 C 
ATOM     19  C   UNL     1      16.511   9.899   2.988  0.00  0.00    +0.012 C 
ATOM     20  C   UNL     1      14.882   7.631   4.537  0.00  0.00    +0.058 A 
ATOM     22  C   UNL     1      19.687   8.482   6.336  0.00  0.00    +0.016 C 
ATOM     23  C   UNL     1      15.297   8.260   5.693  0.00  0.00    +0.015 A 
ATOM     26  C   UNL     1      13.072   7.372   5.755  0.00  0.00    +0.165 A 
ATOM     28  C   UNL     1      10.827   6.330   5.501  0.00  0.00    +0.224 C 
ATOM     41  H   UNL     1      11.623   7.347   7.149  0.00  0.00    +0.157 HD
ENDROOT
BRANCH  28  30
ATOM     30  C   UNL     1       9.520   6.124   6.309  0.00  0.00    +0.039 C 
ATOM     31  C   UNL     1       9.301   7.301   7.273  0.00  0.00    +0.020 C 
ATOM     32  C   UNL     1       8.322   5.989   5.356  0.00  0.00    +0.020 C 
ATOM     33  C   UNL     1       9.628   4.831   7.139  0.00  0.00    +0.020 C 
ENDBRANCH  28  30
BRANCH  16   2
ATOM      2  O   UNL     1      21.281   9.088   3.904  0.00  0.00    -0.391 OA
ATOM     38  H   UNL     1      21.420   9.568   3.071  0.00  0.00    +0.210 HD
ENDBRANCH  16   2
BRANCH  13  21
ATOM     21  C   UNL     1      19.149  10.542   5.086  0.00  0.00    +0.165 C 
BRANCH  21   3
ATOM      3  O   UNL     1      20.227  10.884   5.928  0.00  0.00    -0.394 OA
ATOM     39  H   UNL     1      20.520  10.078   6.386  0.00  0.00    +0.209 HD
ENDBRANCH  21   3
ENDBRANCH  13  21
BRANCH  14  24
ATOM     24  C   UNL     1      14.942   7.516   2.027  0.00  0.00    +0.106 C 
BRANCH  24  25
ATOM      4  O   UNL     1      15.305   6.139   0.071  0.00  0.00    -0.276 OA
ATOM      8  N   UNL     1      14.704   5.139   2.081  0.00  0.00    -0.314 N 
ATOM     25  C   UNL     1      15.013   6.215   1.262  0.00  0.00    +0.214 C 
ATOM     40  H   UNL     1      14.528   5.292   3.069  0.00  0.00    +0.149 HD
BRANCH   8  27
ATOM     27  C   UNL     1      14.690   3.771   1.617  0.00  0.00    +0.119 C 
BRANCH  27  29
ATOM     29  C   UNL     1      13.273   3.218   1.645  0.00  0.00    +0.103 C 
BRANCH  29  10
ATOM      6  O   UNL     1      10.053   4.367  -0.789  0.00  0.00    -0.377 OA
ATOM     10  N   UNL     1      12.372   4.025   0.825  0.00  0.00    -0.297 NA
ATOM     34  C   UNL     1      11.025   4.062   1.412  0.00  0.00    +0.112 C 
ATOM     35  C   UNL     1      12.308   3.506  -0.548  0.00  0.00    +0.112 C 
ATOM     36  C   UNL     1      10.100   4.900   0.535  0.00  0.00    +0.175 C 
ATOM     37  C   UNL     1      11.353   4.358  -1.379  0.00  0.00    +0.175 C 
ENDBRANCH  29  10
ENDBRANCH  27  29
ENDBRANCH   8  27
ENDBRANCH  24  25
ENDBRANCH  14  24
TORSDOF 9
ENDMDL
MODEL 3
REMARK VINA RESULT:      -6.5     24.878     28.127
REMARK  Name = 11883013
REMARK  14 active torsions:
REMARK  status: ('A' for Active; 'I' for Inactive)
REMARK    1  A    between atoms: O_2  and  C_16
REMARK    2  A    between atoms: O_3  and  C_21
REMARK    3  A    between atoms: N_8  and  C_27
REMARK    4  A    between atoms: N_10  and  C_29
REMARK    5  A    between atoms: C_11  and  C_19
REMARK    6  A    between atoms: C_13  and  C_21
REMARK    7  A    between atoms: C_13  and  C_22
REMARK    8  A    between atoms: C_14  and  C_24
REMARK    9  A    between atoms: C_24  and  C_25
REMARK   10  A    between atoms: C_27  and  C_29
REMARK   11  A    between atoms: C_28  and  C_30
REMARK   12  A    between atoms: C_30  and  C_31
REMARK   13  A    between atoms: C_30  and  C_32
REMARK   14  A    between atoms: C_30  and  C_33
REMARK                            x       y       z     vdW  Elec       q    Type
REMARK                         _______ _______ _______ _____ _____    ______ ____
ROOT
ATOM      1  S   UNL     1      20.871  -4.726   1.277  0.00  0.00    -0.057 S 
ATOM      5  O   UNL     1      18.059  -5.735  -2.275  0.00  0.00    -0.275 OA
ATOM      7  N   UNL     1      19.634  -6.633   0.041  0.00  0.00    -0.229 NA
ATOM      9  N   UNL     1      19.353  -4.406  -0.837  0.00  0.00    -0.264 N 
ATOM     11  C   UNL     1      21.445  -9.131   2.355  0.00  0.00    -0.019 C 
ATOM     12  C   UNL     1      21.500  -8.094   3.562  0.00  0.00    +0.011 C 
ATOM     13  C   UNL     1      22.289  -8.539   4.852  0.00  0.00    +0.021 C 
ATOM     14  C   UNL     1      20.268  -8.682   1.371  0.00  0.00    +0.054 C 
ATOM     15  C   UNL     1      21.110 -10.543   2.903  0.00  0.00    +0.010 C 
ATOM     16  C   UNL     1      21.870  -9.987   5.235  0.00  0.00    +0.123 C 
ATOM     17  C   UNL     1      21.864  -6.664   3.066  0.00  0.00    +0.049 C 
ATOM     18  C   UNL     1      21.980 -10.971   4.076  0.00  0.00    +0.032 C 
ATOM     19  C   UNL     1      22.774  -9.207   1.565  0.00  0.00    +0.012 C 
ATOM     20  C   UNL     1      20.334  -7.202   1.090  0.00  0.00    +0.058 A 
ATOM     22  C   UNL     1      21.889  -7.614   6.036  0.00  0.00    +0.016 C 
ATOM     23  C   UNL     1      21.040  -6.313   1.874  0.00  0.00    +0.015 A 
ATOM     26  C   UNL     1      19.850  -5.336   0.038  0.00  0.00    +0.165 A 
ATOM     28  C   UNL     1      18.499  -4.640  -1.932  0.00  0.00    +0.224 C 
ATOM     41  H   UNL     1      19.653  -3.455  -0.649  0.00  0.00    +0.157 HD
ENDROOT
BRANCH  28  30
ATOM     30  C   UNL     1      18.129  -3.357  -2.720  0.00  0.00    +0.039 C 
ATOM     31  C   UNL     1      18.642  -3.456  -4.166  0.00  0.00    +0.020 C 
ATOM     32  C   UNL     1      16.606  -3.148  -2.710  0.00  0.00    +0.020 C 
ATOM     33  C   UNL     1      18.790  -2.136  -2.053  0.00  0.00    +0.020 C 
ENDBRANCH  28  30
BRANCH  16   2
ATOM      2  O   UNL     1      22.660 -10.468   6.323  0.00  0.00    -0.391 OA
ATOM     38  H   UNL     1      23.188  -9.727   6.662  0.00  0.00    +0.210 HD
ENDBRANCH  16   2
BRANCH  13  21
ATOM     21  C   UNL     1      23.826  -8.424   4.736  0.00  0.00    +0.165 C 
BRANCH  21   3
ATOM      3  O   UNL     1      24.343  -8.222   6.032  0.00  0.00    -0.394 OA
ATOM     39  H   UNL     1      25.133  -8.779   6.132  0.00  0.00    +0.209 HD
ENDBRANCH  21   3
ENDBRANCH  13  21
BRANCH  14  24
ATOM     24  C   UNL     1      20.174  -9.495   0.074  0.00  0.00    +0.106 C 
BRANCH  24  25
ATOM      4  O   UNL     1      18.242 -10.245  -1.174  0.00  0.00    -0.276 OA
ATOM      8  N   UNL     1      18.323 -10.581   1.124  0.00  0.00    -0.314 N 
ATOM     25  C   UNL     1      18.817 -10.139  -0.094  0.00  0.00    +0.214 C 
ATOM     40  H   UNL     1      18.893 -10.500   1.959  0.00  0.00    +0.149 HD
BRANCH   8  27
ATOM     27  C   UNL     1      17.042 -11.234   1.266  0.00  0.00    +0.119 C 
BRANCH  27  29
ATOM     29  C   UNL     1      17.233 -12.726   1.496  0.00  0.00    +0.103 C 
BRANCH  29  10
ATOM      6  O   UNL     1      15.867 -12.612   5.464  0.00  0.00    -0.377 OA
ATOM     10  N   UNL     1      16.690 -13.136   2.789  0.00  0.00    -0.297 NA
ATOM     34  C   UNL     1      15.442 -12.418   3.083  0.00  0.00    +0.112 C 
ATOM     35  C   UNL     1      17.666 -12.907   3.863  0.00  0.00    +0.112 C 
ATOM     36  C   UNL     1      14.900 -12.854   4.441  0.00  0.00    +0.175 C 
ATOM     37  C   UNL     1      17.072 -13.333   5.202  0.00  0.00    +0.175 C 
ENDBRANCH  29  10
ENDBRANCH  27  29
ENDBRANCH   8  27
ENDBRANCH  24  25
ENDBRANCH  14  24
TORSDOF 9
ENDMDL
MODEL 4
REMARK VINA RESULT:      -6.4     28.487     32.025
REMARK  Name = 11883013
REMARK  14 active torsions:
REMARK  status: ('A' for Active; 'I' for Inactive)
REMARK    1  A    between atoms: O_2  and  C_16
REMARK    2  A    between atoms: O_3  and  C_21
REMARK    3  A    between atoms: N_8  and  C_27
REMARK    4  A    between atoms: N_10  and  C_29
REMARK    5  A    between atoms: C_11  and  C_19
REMARK    6  A    between atoms: C_13  and  C_21
REMARK    7  A    between atoms: C_13  and  C_22
REMARK    8  A    between atoms: C_14  and  C_24
REMARK    9  A    between atoms: C_24  and  C_25
REMARK   10  A    between atoms: C_27  and  C_29
REMARK   11  A    between atoms: C_28  and  C_30
REMARK   12  A    between atoms: C_30  and  C_31
REMARK   13  A    between atoms: C_30  and  C_32
REMARK   14  A    between atoms: C_30  and  C_33
REMARK                            x       y       z     vdW  Elec       q    Type
REMARK                         _______ _______ _______ _____ _____    ______ ____
ROOT
ATOM      1  S   UNL     1      -6.909 -10.556  10.967  0.00  0.00    -0.057 S 
ATOM      5  O   UNL     1     -11.056  -8.876  12.200  0.00  0.00    -0.275 OA
ATOM      7  N   UNL     1      -8.362  -9.780  12.961  0.00  0.00    -0.229 NA
ATOM      9  N   UNL     1      -9.370  -9.673  10.774  0.00  0.00    -0.264 N 
ATOM     11  C   UNL     1      -5.544 -10.969  15.309  0.00  0.00    -0.019 C 
ATOM     12  C   UNL     1      -4.410 -10.650  14.238  0.00  0.00    +0.011 C 
ATOM     13  C   UNL     1      -2.936 -11.067  14.611  0.00  0.00    +0.021 C 
ATOM     14  C   UNL     1      -6.830 -10.095  14.941  0.00  0.00    +0.054 C 
ATOM     15  C   UNL     1      -5.055 -10.548  16.719  0.00  0.00    +0.010 C 
ATOM     16  C   UNL     1      -2.627 -10.611  16.066  0.00  0.00    +0.123 C 
ATOM     17  C   UNL     1      -4.842 -11.085  12.807  0.00  0.00    +0.049 C 
ATOM     18  C   UNL     1      -3.672 -11.073  17.075  0.00  0.00    +0.032 C 
ATOM     19  C   UNL     1      -5.934 -12.467  15.346  0.00  0.00    +0.012 C 
ATOM     20  C   UNL     1      -7.140 -10.182  13.468  0.00  0.00    +0.058 A 
ATOM     22  C   UNL     1      -1.945 -10.322  13.673  0.00  0.00    +0.016 C 
ATOM     23  C   UNL     1      -6.227 -10.611  12.527  0.00  0.00    +0.015 A 
ATOM     26  C   UNL     1      -8.357  -9.941  11.656  0.00  0.00    +0.165 A 
ATOM     28  C   UNL     1     -10.649  -9.163  11.077  0.00  0.00    +0.224 C 
ATOM     41  H   UNL     1      -9.144  -9.873   9.805  0.00  0.00    +0.157 HD
ENDROOT
BRANCH  28  30
ATOM     30  C   UNL     1     -11.557  -8.980   9.835  0.00  0.00    +0.039 C 
ATOM     31  C   UNL     1     -12.098 -10.340   9.367  0.00  0.00    +0.020 C 
ATOM     32  C   UNL     1     -12.720  -8.030  10.163  0.00  0.00    +0.020 C 
ATOM     33  C   UNL     1     -10.737  -8.363   8.685  0.00  0.00    +0.020 C 
ENDBRANCH  28  30
BRANCH  16   2
ATOM      2  O   UNL     1      -1.346 -11.086  16.480  0.00  0.00    -0.391 OA
ATOM     38  H   UNL     1      -1.013 -10.490  17.171  0.00  0.00    +0.210 HD
ENDBRANCH  16   2
BRANCH  13  21
ATOM     21  C   UNL     1      -2.629 -12.571  14.429  0.00  0.00    +0.165 C 
BRANCH  21   3
ATOM      3  O   UNL     1      -1.313 -12.686  13.937  0.00  0.00    -0.394 OA
ATOM     39  H   UNL     1      -1.153 -11.947  13.326  0.00  0.00    +0.209 HD
ENDBRANCH  21   3
ENDBRANCH  13  21
BRANCH  14  24
ATOM     24  C   UNL     1      -8.071 -10.393  15.794  0.00  0.00    +0.106 C 
BRANCH  24  25
ATOM      4  O   UNL     1      -8.303  -8.864  17.653  0.00  0.00    -0.276 OA
ATOM      8  N   UNL     1      -9.413  -8.422  15.661  0.00  0.00    -0.314 N 
ATOM     25  C   UNL     1      -8.586  -9.159  16.496  0.00  0.00    +0.214 C 
ATOM     40  H   UNL     1      -9.547  -8.714  14.698  0.00  0.00    +0.149 HD
BRANCH   8  27
ATOM     27  C   UNL     1     -10.051  -7.191  16.067  0.00  0.00    +0.119 C 
BRANCH  27  29
ATOM     29  C   UNL     1     -11.544  -7.410  16.265  0.00  0.00    +0.103 C 
BRANCH  29  10
ATOM      6  O   UNL     1     -13.875  -4.954  13.785  0.00  0.00    -0.377 OA
ATOM     10  N   UNL     1     -12.308  -6.920  15.120  0.00  0.00    -0.297 NA
ATOM     34  C   UNL     1     -11.704  -5.696  14.575  0.00  0.00    +0.112 C 
ATOM     35  C   UNL     1     -13.706  -6.667  15.494  0.00  0.00    +0.112 C 
ATOM     36  C   UNL     1     -12.525  -5.198  13.389  0.00  0.00    +0.175 C 
ATOM     37  C   UNL     1     -14.479  -6.147  14.286  0.00  0.00    +0.175 C 
ENDBRANCH  29  10
ENDBRANCH  27  29
ENDBRANCH   8  27
ENDBRANCH  24  25
ENDBRANCH  14  24
TORSDOF 9
ENDMDL
MODEL 5
REMARK VINA RESULT:      -6.4     30.058     33.357
REMARK  Name = 11883013
REMARK  14 active torsions:
REMARK  status: ('A' for Active; 'I' for Inactive)
REMARK    1  A    between atoms: O_2  and  C_16
REMARK    2  A    between atoms: O_3  and  C_21
REMARK    3  A    between atoms: N_8  and  C_27
REMARK    4  A    between atoms: N_10  and  C_29
REMARK    5  A    between atoms: C_11  and  C_19
REMARK    6  A    between atoms: C_13  and  C_21
REMARK    7  A    between atoms: C_13  and  C_22
REMARK    8  A    between atoms: C_14  and  C_24
REMARK    9  A    between atoms: C_24  and  C_25
REMARK   10  A    between atoms: C_27  and  C_29
REMARK   11  A    between atoms: C_28  and  C_30
REMARK   12  A    between atoms: C_30  and  C_31
REMARK   13  A    between atoms: C_30  and  C_32
REMARK   14  A    between atoms: C_30  and  C_33
REMARK                            x       y       z     vdW  Elec       q    Type
REMARK                         _______ _______ _______ _____ _____    ______ ____
ROOT
ATOM      1  S   UNL     1     -10.353 -12.824  20.014  0.00  0.00    -0.057 S 
ATOM      5  O   UNL     1     -13.541  -9.526  19.305  0.00  0.00    -0.275 OA
ATOM      7  N   UNL     1     -10.847 -10.595  18.797  0.00  0.00    -0.229 NA
ATOM      9  N   UNL     1     -12.612 -11.501  20.168  0.00  0.00    -0.264 N 
ATOM     11  C   UNL     1      -7.167 -10.557  17.646  0.00  0.00    -0.019 C 
ATOM     12  C   UNL     1      -7.082 -12.147  17.607  0.00  0.00    +0.011 C 
ATOM     13  C   UNL     1      -5.672 -12.779  17.290  0.00  0.00    +0.021 C 
ATOM     14  C   UNL     1      -8.707 -10.143  17.540  0.00  0.00    +0.054 C 
ATOM     15  C   UNL     1      -6.419  -9.970  16.422  0.00  0.00    +0.010 C 
ATOM     16  C   UNL     1      -5.044 -12.046  16.070  0.00  0.00    +0.123 C 
ATOM     17  C   UNL     1      -7.794 -12.785  18.835  0.00  0.00    +0.049 C 
ATOM     18  C   UNL     1      -5.017 -10.530  16.229  0.00  0.00    +0.032 C 
ATOM     19  C   UNL     1      -6.561  -9.953  18.936  0.00  0.00    +0.012 C 
ATOM     20  C   UNL     1      -9.555 -10.967  18.476  0.00  0.00    +0.058 A 
ATOM     22  C   UNL     1      -5.864 -14.268  16.886  0.00  0.00    +0.016 C 
ATOM     23  C   UNL     1      -9.132 -12.158  19.030  0.00  0.00    +0.015 A 
ATOM     26  C   UNL     1     -11.362 -11.494  19.608  0.00  0.00    +0.165 A 
ATOM     28  C   UNL     1     -13.626 -10.538  19.997  0.00  0.00    +0.224 C 
ATOM     41  H   UNL     1     -12.797 -12.300  20.766  0.00  0.00    +0.157 HD
ENDROOT
BRANCH  28  30
ATOM     30  C   UNL     1     -14.925 -10.853  20.781  0.00  0.00    +0.039 C 
ATOM     31  C   UNL     1     -15.621  -9.550  21.201  0.00  0.00    +0.020 C 
ATOM     32  C   UNL     1     -15.870 -11.707  19.921  0.00  0.00    +0.020 C 
ATOM     33  C   UNL     1     -14.576 -11.649  22.054  0.00  0.00    +0.020 C 
ENDBRANCH  28  30
BRANCH  16   2
ATOM      2  O   UNL     1      -3.713 -12.508  15.837  0.00  0.00    -0.391 OA
ATOM     38  H   UNL     1      -3.450 -13.059  16.592  0.00  0.00    +0.210 HD
ENDBRANCH  16   2
BRANCH  13  21
ATOM     21  C   UNL     1      -4.693 -12.796  18.486  0.00  0.00    +0.165 C 
BRANCH  21   3
ATOM      3  O   UNL     1      -4.033 -14.041  18.485  0.00  0.00    -0.394 OA
ATOM     39  H   UNL     1      -3.838 -14.279  17.563  0.00  0.00    +0.209 HD
ENDBRANCH  21   3
ENDBRANCH  13  21
BRANCH  14  24
ATOM     24  C   UNL     1      -8.979  -8.643  17.710  0.00  0.00    +0.106 C 
BRANCH  24  25
ATOM      4  O   UNL     1      -9.581  -8.504  15.371  0.00  0.00    -0.276 OA
ATOM      8  N   UNL     1     -10.441  -6.950  16.869  0.00  0.00    -0.314 N 
ATOM     25  C   UNL     1      -9.682  -8.054  16.509  0.00  0.00    +0.214 C 
ATOM     40  H   UNL     1     -10.509  -6.682  17.846  0.00  0.00    +0.149 HD
BRANCH   8  27
ATOM     27  C   UNL     1     -11.220  -6.185  15.924  0.00  0.00    +0.119 C 
BRANCH  27  29
ATOM     29  C   UNL     1     -12.635  -6.736  15.836  0.00  0.00    +0.103 C 
BRANCH  29  10
ATOM      6  O   UNL     1     -14.841  -4.631  12.952  0.00  0.00    -0.377 OA
ATOM     10  N   UNL     1     -13.271  -6.365  14.574  0.00  0.00    -0.297 NA
ATOM     34  C   UNL     1     -12.742  -5.086  14.078  0.00  0.00    +0.112 C 
ATOM     35  C   UNL     1     -14.729  -6.279  14.728  0.00  0.00    +0.112 C 
ATOM     36  C   UNL     1     -13.428  -4.715  12.767  0.00  0.00    +0.175 C 
ATOM     37  C   UNL     1     -15.368  -5.880  13.402  0.00  0.00    +0.175 C 
ENDBRANCH  29  10
ENDBRANCH  27  29
ENDBRANCH   8  27
ENDBRANCH  24  25
ENDBRANCH  14  24
TORSDOF 9
ENDMDL
MODEL 6
REMARK VINA RESULT:      -6.3     28.581     31.968
REMARK  Name = 11883013
REMARK  14 active torsions:
REMARK  status: ('A' for Active; 'I' for Inactive)
REMARK    1  A    between atoms: O_2  and  C_16
REMARK    2  A    between atoms: O_3  and  C_21
REMARK    3  A    between atoms: N_8  and  C_27
REMARK    4  A    between atoms: N_10  and  C_29
REMARK    5  A    between atoms: C_11  and  C_19
REMARK    6  A    between atoms: C_13  and  C_21
REMARK    7  A    between atoms: C_13  and  C_22
REMARK    8  A    between atoms: C_14  and  C_24
REMARK    9  A    between atoms: C_24  and  C_25
REMARK   10  A    between atoms: C_27  and  C_29
REMARK   11  A    between atoms: C_28  and  C_30
REMARK   12  A    between atoms: C_30  and  C_31
REMARK   13  A    between atoms: C_30  and  C_32
REMARK   14  A    between atoms: C_30  and  C_33
REMARK                            x       y       z     vdW  Elec       q    Type
REMARK                         _______ _______ _______ _____ _____    ______ ____
ROOT
ATOM      1  S   UNL     1      -8.115 -10.023  12.871  0.00  0.00    -0.057 S 
ATOM      5  O   UNL     1      -3.829 -10.622  14.547  0.00  0.00    -0.275 OA
ATOM      7  N   UNL     1      -6.704 -10.231  15.030  0.00  0.00    -0.229 NA
ATOM      9  N   UNL     1      -5.518 -10.377  12.936  0.00  0.00    -0.264 N 
ATOM     11  C   UNL     1      -9.891  -9.404  17.038  0.00  0.00    -0.019 C 
ATOM     12  C   UNL     1     -10.843 -10.081  15.956  0.00  0.00    +0.011 C 
ATOM     13  C   UNL     1     -12.397  -9.947  16.187  0.00  0.00    +0.021 C 
ATOM     14  C   UNL     1      -8.427 -10.020  16.861  0.00  0.00    +0.054 C 
ATOM     15  C   UNL     1     -10.398  -9.752  18.461  0.00  0.00    +0.010 C 
ATOM     16  C   UNL     1     -12.725 -10.285  17.670  0.00  0.00    +0.123 C 
ATOM     17  C   UNL     1     -10.392  -9.735  14.507  0.00  0.00    +0.049 C 
ATOM     18  C   UNL     1     -11.884  -9.495  18.666  0.00  0.00    +0.032 C 
ATOM     19  C   UNL     1      -9.820  -7.864  16.898  0.00  0.00    +0.012 C 
ATOM     20  C   UNL     1      -8.020 -10.042  15.409  0.00  0.00    +0.058 A 
ATOM     22  C   UNL     1     -13.133 -10.992  15.302  0.00  0.00    +0.016 C 
ATOM     23  C   UNL     1      -8.921  -9.932  14.370  0.00  0.00    +0.015 A 
ATOM     26  C   UNL     1      -6.634 -10.230  13.716  0.00  0.00    +0.165 A 
ATOM     28  C   UNL     1      -4.192 -10.563  13.375  0.00  0.00    +0.224 C 
ATOM     41  H   UNL     1      -5.699 -10.344  11.938  0.00  0.00    +0.157 HD
ENDROOT
BRANCH  28  30
ATOM     30  C   UNL     1      -3.165 -10.693  12.221  0.00  0.00    +0.039 C 
ATOM     31  C   UNL     1      -3.039 -12.161  11.786  0.00  0.00    +0.020 C 
ATOM     32  C   UNL     1      -3.593  -9.821  11.029  0.00  0.00    +0.020 C 
ATOM     33  C   UNL     1      -1.785 -10.209  12.705  0.00  0.00    +0.020 C 
ENDBRANCH  28  30
BRANCH  16   2
ATOM      2  O   UNL     1     -14.106 -10.049  17.945  0.00  0.00    -0.391 OA
ATOM     38  H   UNL     1     -14.163  -9.385  18.652  0.00  0.00    +0.210 HD
ENDBRANCH  16   2
BRANCH  13  21
ATOM     21  C   UNL     1     -12.989  -8.576  15.791  0.00  0.00    +0.165 C 
BRANCH  21   3
ATOM      3  O   UNL     1     -14.307  -8.789  15.339  0.00  0.00    -0.394 OA
ATOM     39  H   UNL     1     -14.840  -9.090  16.095  0.00  0.00    +0.209 HD
ENDBRANCH  21   3
ENDBRANCH  13  21
BRANCH  14  24
ATOM     24  C   UNL     1      -7.348  -9.366  17.736  0.00  0.00    +0.106 C 
BRANCH  24  25
ATOM      4  O   UNL     1      -7.034 -10.728  19.710  0.00  0.00    -0.276 OA
ATOM      8  N   UNL     1      -5.480 -10.834  17.985  0.00  0.00    -0.314 N 
ATOM     25  C   UNL     1      -6.634 -10.375  18.604  0.00  0.00    +0.214 C 
ATOM     40  H   UNL     1      -5.256 -10.527  17.044  0.00  0.00    +0.149 HD
BRANCH   8  27
ATOM     27  C   UNL     1      -4.595 -11.806  18.585  0.00  0.00    +0.119 C 
BRANCH  27  29
ATOM     29  C   UNL     1      -4.913 -13.201  18.069  0.00  0.00    +0.103 C 
BRANCH  29  10
ATOM      6  O   UNL     1      -7.017 -14.360  14.627  0.00  0.00    -0.377 OA
ATOM     10  N   UNL     1      -5.670 -13.144  16.820  0.00  0.00    -0.297 NA
ATOM     34  C   UNL     1      -6.989 -13.773  16.980  0.00  0.00    +0.112 C 
ATOM     35  C   UNL     1      -4.932 -13.797  15.731  0.00  0.00    +0.112 C 
ATOM     36  C   UNL     1      -7.756 -13.712  15.662  0.00  0.00    +0.175 C 
ATOM     37  C   UNL     1      -5.746 -13.734  14.442  0.00  0.00    +0.175 C 
ENDBRANCH  29  10
ENDBRANCH  27  29
ENDBRANCH   8  27
ENDBRANCH  24  25
ENDBRANCH  14  24
TORSDOF 9
ENDMDL
MODEL 7
REMARK VINA RESULT:      -6.2     29.546     32.094
REMARK  Name = 11883013
REMARK  14 active torsions:
REMARK  status: ('A' for Active; 'I' for Inactive)
REMARK    1  A    between atoms: O_2  and  C_16
REMARK    2  A    between atoms: O_3  and  C_21
REMARK    3  A    between atoms: N_8  and  C_27
REMARK    4  A    between atoms: N_10  and  C_29
REMARK    5  A    between atoms: C_11  and  C_19
REMARK    6  A    between atoms: C_13  and  C_21
REMARK    7  A    between atoms: C_13  and  C_22
REMARK    8  A    between atoms: C_14  and  C_24
REMARK    9  A    between atoms: C_24  and  C_25
REMARK   10  A    between atoms: C_27  and  C_29
REMARK   11  A    between atoms: C_28  and  C_30
REMARK   12  A    between atoms: C_30  and  C_31
REMARK   13  A    between atoms: C_30  and  C_32
REMARK   14  A    between atoms: C_30  and  C_33
REMARK                            x       y       z     vdW  Elec       q    Type
REMARK                         _______ _______ _______ _____ _____    ______ ____
ROOT
ATOM      1  S   UNL     1      -5.465 -11.032  12.656  0.00  0.00    -0.057 S 
ATOM      5  O   UNL     1      -8.830  -8.859  10.313  0.00  0.00    -0.275 OA
ATOM      7  N   UNL     1      -7.776  -9.887  12.860  0.00  0.00    -0.229 NA
ATOM      9  N   UNL     1      -6.793  -9.971  10.660  0.00  0.00    -0.264 N 
ATOM     11  C   UNL     1      -7.861 -11.008  16.548  0.00  0.00    -0.019 C 
ATOM     12  C   UNL     1      -6.278 -10.926  16.691  0.00  0.00    +0.011 C 
ATOM     13  C   UNL     1      -5.656 -11.418  18.055  0.00  0.00    +0.021 C 
ATOM     14  C   UNL     1      -8.295 -10.080  15.321  0.00  0.00    +0.054 C 
ATOM     15  C   UNL     1      -8.525 -10.454  17.836  0.00  0.00    +0.010 C 
ATOM     16  C   UNL     1      -6.466 -10.809  19.236  0.00  0.00    +0.123 C 
ATOM     17  C   UNL     1      -5.563 -11.500  15.433  0.00  0.00    +0.049 C 
ATOM     18  C   UNL     1      -7.967 -11.048  19.122  0.00  0.00    +0.032 C 
ATOM     19  C   UNL     1      -8.371 -12.450  16.307  0.00  0.00    +0.012 C 
ATOM     20  C   UNL     1      -7.416 -10.326  14.121  0.00  0.00    +0.058 A 
ATOM     22  C   UNL     1      -4.201 -10.885  18.170  0.00  0.00    +0.016 C 
ATOM     23  C   UNL     1      -6.187 -10.948  14.197  0.00  0.00    +0.015 A 
ATOM     26  C   UNL     1      -6.828 -10.212  12.008  0.00  0.00    +0.165 A 
ATOM     28  C   UNL     1      -7.774  -9.320   9.887  0.00  0.00    +0.224 C 
ATOM     41  H   UNL     1      -5.957 -10.312  10.197  0.00  0.00    +0.157 HD
ENDROOT
BRANCH  28  30
ATOM     30  C   UNL     1      -7.417  -9.217   8.382  0.00  0.00    +0.039 C 
ATOM     31  C   UNL     1      -8.198 -10.269   7.578  0.00  0.00    +0.020 C 
ATOM     32  C   UNL     1      -7.730  -7.807   7.857  0.00  0.00    +0.020 C 
ATOM     33  C   UNL     1      -5.911  -9.483   8.193  0.00  0.00    +0.020 C 
ENDBRANCH  28  30
BRANCH  16   2
ATOM      2  O   UNL     1      -6.010 -11.337  20.482  0.00  0.00    -0.391 OA
ATOM     38  H   UNL     1      -5.081 -11.598  20.376  0.00  0.00    +0.210 HD
ENDBRANCH  16   2
BRANCH  13  21
ATOM     21  C   UNL     1      -5.550 -12.953  18.194  0.00  0.00    +0.165 C 
BRANCH  21   3
ATOM      3  O   UNL     1      -4.285 -13.250  18.742  0.00  0.00    -0.394 OA
ATOM     39  H   UNL     1      -4.286 -12.970  19.673  0.00  0.00    +0.209 HD
ENDBRANCH  21   3
ENDBRANCH  13  21
BRANCH  14  24
ATOM     24  C   UNL     1      -9.782 -10.159  14.954  0.00  0.00    +0.106 C 
BRANCH  24  25
ATOM      4  O   UNL     1     -11.161  -8.594  13.729  0.00  0.00    -0.276 OA
ATOM      8  N   UNL     1      -9.867  -7.836  15.503  0.00  0.00    -0.314 N 
ATOM     25  C   UNL     1     -10.361  -8.800  14.638  0.00  0.00    +0.214 C 
ATOM     40  H   UNL     1      -9.250  -8.108  16.262  0.00  0.00    +0.149 HD
BRANCH   8  27
ATOM     27  C   UNL     1     -10.246  -6.444  15.434  0.00  0.00    +0.119 C 
BRANCH  27  29
ATOM     29  C   UNL     1     -11.449  -6.178  16.326  0.00  0.00    +0.103 C 
BRANCH  29  10
ATOM      6  O   UNL     1     -14.387  -6.059  13.332  0.00  0.00    -0.377 OA
ATOM     10  N   UNL     1     -12.613  -5.777  15.540  0.00  0.00    -0.297 NA
ATOM     34  C   UNL     1     -13.603  -6.863  15.482  0.00  0.00    +0.112 C 
ATOM     35  C   UNL     1     -12.217  -5.385  14.181  0.00  0.00    +0.112 C 
ATOM     36  C   UNL     1     -14.803  -6.426  14.648  0.00  0.00    +0.175 C 
ATOM     37  C   UNL     1     -13.450  -4.982  13.378  0.00  0.00    +0.175 C 
ENDBRANCH  29  10
ENDBRANCH  27  29
ENDBRANCH   8  27
ENDBRANCH  24  25
ENDBRANCH  14  24
TORSDOF 9
ENDMDL
MODEL 8
REMARK VINA RESULT:      -6.2     25.466     29.105
REMARK  Name = 11883013
REMARK  14 active torsions:
REMARK  status: ('A' for Active; 'I' for Inactive)
REMARK    1  A    between atoms: O_2  and  C_16
REMARK    2  A    between atoms: O_3  and  C_21
REMARK    3  A    between atoms: N_8  and  C_27
REMARK    4  A    between atoms: N_10  and  C_29
REMARK    5  A    between atoms: C_11  and  C_19
REMARK    6  A    between atoms: C_13  and  C_21
REMARK    7  A    between atoms: C_13  and  C_22
REMARK    8  A    between atoms: C_14  and  C_24
REMARK    9  A    between atoms: C_24  and  C_25
REMARK   10  A    between atoms: C_27  and  C_29
REMARK   11  A    between atoms: C_28  and  C_30
REMARK   12  A    between atoms: C_30  and  C_31
REMARK   13  A    between atoms: C_30  and  C_32
REMARK   14  A    between atoms: C_30  and  C_33
REMARK                            x       y       z     vdW  Elec       q    Type
REMARK                         _______ _______ _______ _____ _____    ______ ____
ROOT
ATOM      1  S   UNL     1      19.059  -4.585  -1.936  0.00  0.00    -0.057 S 
ATOM      5  O   UNL     1      16.015  -7.772  -3.392  0.00  0.00    -0.275 OA
ATOM      7  N   UNL     1      18.337  -7.061  -1.732  0.00  0.00    -0.229 NA
ATOM      9  N   UNL     1      17.051  -5.672  -3.224  0.00  0.00    -0.264 N 
ATOM     11  C   UNL     1      21.454  -7.653   0.460  0.00  0.00    -0.019 C 
ATOM     12  C   UNL     1      21.427  -6.169   1.036  0.00  0.00    +0.011 C 
ATOM     13  C   UNL     1      22.622  -5.745   1.975  0.00  0.00    +0.021 C 
ATOM     14  C   UNL     1      19.988  -8.002  -0.072  0.00  0.00    +0.054 C 
ATOM     15  C   UNL     1      21.807  -8.643   1.600  0.00  0.00    +0.010 C 
ATOM     16  C   UNL     1      22.871  -6.864   3.025  0.00  0.00    +0.123 C 
ATOM     17  C   UNL     1      21.106  -5.132  -0.079  0.00  0.00    +0.049 C 
ATOM     18  C   UNL     1      23.038  -8.246   2.403  0.00  0.00    +0.032 C 
ATOM     19  C   UNL     1      22.475  -7.835  -0.690  0.00  0.00    +0.012 C 
ATOM     20  C   UNL     1      19.435  -6.878  -0.912  0.00  0.00    +0.058 A 
ATOM     22  C   UNL     1      22.222  -4.460   2.754  0.00  0.00    +0.016 C 
ATOM     23  C   UNL     1      19.940  -5.594  -0.885  0.00  0.00    +0.015 A 
ATOM     26  C   UNL     1      18.055  -5.922  -2.328  0.00  0.00    +0.165 A 
ATOM     28  C   UNL     1      16.095  -6.587  -3.708  0.00  0.00    +0.224 C 
ATOM     41  H   UNL     1      17.019  -4.714  -3.558  0.00  0.00    +0.157 HD
ENDROOT
BRANCH  28  30
ATOM     30  C   UNL     1      15.097  -5.970  -4.721  0.00  0.00    +0.039 C 
ATOM     31  C   UNL     1      14.697  -7.014  -5.776  0.00  0.00    +0.020 C 
ATOM     32  C   UNL     1      13.849  -5.451  -3.988  0.00  0.00    +0.020 C 
ATOM     33  C   UNL     1      15.764  -4.783  -5.442  0.00  0.00    +0.020 C 
ENDBRANCH  28  30
BRANCH  16   2
ATOM      2  O   UNL     1      24.028  -6.570   3.808  0.00  0.00    -0.391 OA
ATOM     38  H   UNL     1      23.761  -5.977   4.530  0.00  0.00    +0.210 HD
ENDBRANCH  16   2
BRANCH  13  21
ATOM     21  C   UNL     1      23.928  -5.389   1.229  0.00  0.00    +0.165 C 
BRANCH  21   3
ATOM      3  O   UNL     1      24.541  -4.323   1.917  0.00  0.00    -0.394 OA
ATOM     39  H   UNL     1      25.503  -4.407   1.810  0.00  0.00    +0.209 HD
ENDBRANCH  21   3
ENDBRANCH  13  21
BRANCH  14  24
ATOM     24  C   UNL     1      19.875  -9.350  -0.796  0.00  0.00    +0.106 C 
BRANCH  24  25
ATOM      4  O   UNL     1      18.288 -11.175  -0.757  0.00  0.00    -0.276 OA
ATOM      8  N   UNL     1      18.576  -9.867   1.142  0.00  0.00    -0.314 N 
ATOM     25  C   UNL     1      18.831 -10.245  -0.169  0.00  0.00    +0.214 C 
ATOM     40  H   UNL     1      19.114  -9.118   1.564  0.00  0.00    +0.149 HD
BRANCH   8  27
ATOM     27  C   UNL     1      17.619 -10.544   1.986  0.00  0.00    +0.119 C 
BRANCH  27  29
ATOM     29  C   UNL     1      18.286 -11.696   2.723  0.00  0.00    +0.103 C 
BRANCH  29  10
ATOM      6  O   UNL     1      14.787 -13.879   3.503  0.00  0.00    -0.377 OA
ATOM     10  N   UNL     1      17.298 -12.543   3.388  0.00  0.00    -0.297 NA
ATOM     34  C   UNL     1      17.036 -13.756   2.601  0.00  0.00    +0.112 C 
ATOM     35  C   UNL     1      16.045 -11.808   3.611  0.00  0.00    +0.112 C 
ATOM     36  C   UNL     1      15.994 -14.618   3.308  0.00  0.00    +0.175 C 
ATOM     37  C   UNL     1      15.028 -12.716   4.295  0.00  0.00    +0.175 C 
ENDBRANCH  29  10
ENDBRANCH  27  29
ENDBRANCH   8  27
ENDBRANCH  24  25
ENDBRANCH  14  24
TORSDOF 9
ENDMDL
MODEL 9
REMARK VINA RESULT:      -6.1     18.386     22.642
REMARK  Name = 11883013
REMARK  14 active torsions:
REMARK  status: ('A' for Active; 'I' for Inactive)
REMARK    1  A    between atoms: O_2  and  C_16
REMARK    2  A    between atoms: O_3  and  C_21
REMARK    3  A    between atoms: N_8  and  C_27
REMARK    4  A    between atoms: N_10  and  C_29
REMARK    5  A    between atoms: C_11  and  C_19
REMARK    6  A    between atoms: C_13  and  C_21
REMARK    7  A    between atoms: C_13  and  C_22
REMARK    8  A    between atoms: C_14  and  C_24
REMARK    9  A    between atoms: C_24  and  C_25
REMARK   10  A    between atoms: C_27  and  C_29
REMARK   11  A    between atoms: C_28  and  C_30
REMARK   12  A    between atoms: C_30  and  C_31
REMARK   13  A    between atoms: C_30  and  C_32
REMARK   14  A    between atoms: C_30  and  C_33
REMARK                            x       y       z     vdW  Elec       q    Type
REMARK                         _______ _______ _______ _____ _____    ______ ____
ROOT
ATOM      1  S   UNL     1      11.238   4.012   1.905  0.00  0.00    -0.057 S 
ATOM      5  O   UNL     1       9.711   5.635  -2.166  0.00  0.00    -0.275 OA
ATOM      7  N   UNL     1      10.082   6.005   0.729  0.00  0.00    -0.229 NA
ATOM      9  N   UNL     1      10.698   4.131  -0.658  0.00  0.00    -0.264 N 
ATOM     11  C   UNL     1       9.548   7.581   4.207  0.00  0.00    -0.019 C 
ATOM     12  C   UNL     1      10.873   6.922   4.796  0.00  0.00    +0.011 C 
ATOM     13  C   UNL     1      11.152   7.128   6.334  0.00  0.00    +0.021 C 
ATOM     14  C   UNL     1       9.687   7.632   2.616  0.00  0.00    +0.054 C 
ATOM     15  C   UNL     1       9.417   9.034   4.733  0.00  0.00    +0.010 C 
ATOM     16  C   UNL     1      10.931   8.624   6.699  0.00  0.00    +0.123 C 
ATOM     17  C   UNL     1      11.033   5.448   4.321  0.00  0.00    +0.049 C 
ATOM     18  C   UNL     1       9.580   9.162   6.240  0.00  0.00    +0.032 C 
ATOM     19  C   UNL     1       8.267   6.799   4.586  0.00  0.00    +0.012 C 
ATOM     20  C   UNL     1      10.178   6.314   2.073  0.00  0.00    +0.058 A 
ATOM     22  C   UNL     1      12.641   6.796   6.628  0.00  0.00    +0.016 C 
ATOM     23  C   UNL     1      10.795   5.357   2.852  0.00  0.00    +0.015 A 
ATOM     26  C   UNL     1      10.601   4.813   0.526  0.00  0.00    +0.165 A 
ATOM     28  C   UNL     1      10.258   4.561  -1.925  0.00  0.00    +0.224 C 
ATOM     41  H   UNL     1      11.139   3.221  -0.579  0.00  0.00    +0.157 HD
ENDROOT
BRANCH  28  30
ATOM     30  C   UNL     1      10.523   3.537  -3.058  0.00  0.00    +0.039 C 
ATOM     31  C   UNL     1      11.196   2.278  -2.489  0.00  0.00    +0.020 C 
ATOM     32  C   UNL     1       9.205   3.164  -3.756  0.00  0.00    +0.020 C 
ATOM     33  C   UNL     1      11.466   4.160  -4.104  0.00  0.00    +0.020 C 
ENDBRANCH  28  30
BRANCH  16   2
ATOM      2  O   UNL     1      11.050   8.821   8.108  0.00  0.00    -0.391 OA
ATOM     38  H   UNL     1      10.606   9.655   8.334  0.00  0.00    +0.210 HD
ENDBRANCH  16   2
BRANCH  13  21
ATOM     21  C   UNL     1      10.329   6.209   7.264  0.00  0.00    +0.165 C 
BRANCH  21   3
ATOM      3  O   UNL     1      11.229   5.554   8.130  0.00  0.00    -0.394 OA
ATOM     39  H   UNL     1      11.748   4.923   7.604  0.00  0.00    +0.209 HD
ENDBRANCH  21   3
ENDBRANCH  13  21
BRANCH  14  24
ATOM     24  C   UNL     1       8.428   8.109   1.879  0.00  0.00    +0.106 C 
BRANCH  24  25
ATOM      4  O   UNL     1       8.981  10.272   0.949  0.00  0.00    -0.276 OA
ATOM      8  N   UNL     1       8.759   8.440  -0.464  0.00  0.00    -0.314 N 
ATOM     25  C   UNL     1       8.755   9.079   0.768  0.00  0.00    +0.214 C 
ATOM     40  H   UNL     1       8.615   7.437  -0.512  0.00  0.00    +0.149 HD
BRANCH   8  27
ATOM     27  C   UNL     1       9.038   9.122  -1.706  0.00  0.00    +0.119 C 
BRANCH  27  29
ATOM     29  C   UNL     1       7.760   9.289  -2.515  0.00  0.00    +0.103 C 
BRANCH  29  10
ATOM      6  O   UNL     1       5.184   6.309  -3.965  0.00  0.00    -0.377 OA
ATOM     10  N   UNL     1       7.065   8.014  -2.677  0.00  0.00    -0.297 NA
ATOM     34  C   UNL     1       7.331   7.439  -4.004  0.00  0.00    +0.112 C 
ATOM     35  C   UNL     1       5.618   8.178  -2.482  0.00  0.00    +0.112 C 
ATOM     36  C   UNL     1       6.586   6.115  -4.153  0.00  0.00    +0.175 C 
ATOM     37  C   UNL     1       4.915   6.837  -2.666  0.00  0.00    +0.175 C 
ENDBRANCH  29  10
ENDBRANCH  27  29
ENDBRANCH   8  27
ENDBRANCH  24  25
ENDBRANCH  14  24
TORSDOF 9
ENDMDL
MODEL 10
REMARK VINA RESULT:      -6.0     16.791     20.818
REMARK  Name = 11883013
REMARK  14 active torsions:
REMARK  status: ('A' for Active; 'I' for Inactive)
REMARK    1  A    between atoms: O_2  and  C_16
REMARK    2  A    between atoms: O_3  and  C_21
REMARK    3  A    between atoms: N_8  and  C_27
REMARK    4  A    between atoms: N_10  and  C_29
REMARK    5  A    between atoms: C_11  and  C_19
REMARK    6  A    between atoms: C_13  and  C_21
REMARK    7  A    between atoms: C_13  and  C_22
REMARK    8  A    between atoms: C_14  and  C_24
REMARK    9  A    between atoms: C_24  and  C_25
REMARK   10  A    between atoms: C_27  and  C_29
REMARK   11  A    between atoms: C_28  and  C_30
REMARK   12  A    between atoms: C_30  and  C_31
REMARK   13  A    between atoms: C_30  and  C_32
REMARK   14  A    between atoms: C_30  and  C_33
REMARK                            x       y       z     vdW  Elec       q    Type
REMARK                         _______ _______ _______ _____ _____    ______ ____
ROOT
ATOM      1  S   UNL     1      10.027   5.003   2.987  0.00  0.00    -0.057 S 
ATOM      5  O   UNL     1      11.887   7.882   6.116  0.00  0.00    -0.275 OA
ATOM      7  N   UNL     1      12.108   6.423   3.571  0.00  0.00    -0.229 NA
ATOM      9  N   UNL     1      10.285   6.466   5.147  0.00  0.00    -0.264 N 
ATOM     11  C   UNL     1      13.854   4.897   0.490  0.00  0.00    -0.019 C 
ATOM     12  C   UNL     1      12.484   4.742  -0.307  0.00  0.00    +0.011 C 
ATOM     13  C   UNL     1      12.547   4.011  -1.703  0.00  0.00    +0.021 C 
ATOM     14  C   UNL     1      13.647   6.014   1.614  0.00  0.00    +0.054 C 
ATOM     15  C   UNL     1      14.963   5.380  -0.480  0.00  0.00    +0.010 C 
ATOM     16  C   UNL     1      13.738   4.581  -2.526  0.00  0.00    +0.123 C 
ATOM     17  C   UNL     1      11.343   4.228   0.619  0.00  0.00    +0.049 C 
ATOM     18  C   UNL     1      15.058   4.567  -1.763  0.00  0.00    +0.032 C 
ATOM     19  C   UNL     1      14.316   3.577   1.156  0.00  0.00    +0.012 C 
ATOM     20  C   UNL     1      12.359   5.793   2.366  0.00  0.00    +0.058 A 
ATOM     22  C   UNL     1      11.247   4.321  -2.497  0.00  0.00    +0.016 C 
ATOM     23  C   UNL     1      11.332   5.003   1.892  0.00  0.00    +0.015 A 
ATOM     26  C   UNL     1      10.913   6.074   3.995  0.00  0.00    +0.165 A 
ATOM     28  C   UNL     1      10.788   7.333   6.138  0.00  0.00    +0.224 C 
ATOM     41  H   UNL     1       9.359   6.070   5.273  0.00  0.00    +0.157 HD
ENDROOT
BRANCH  28  30
ATOM     30  C   UNL     1       9.812   7.563   7.320  0.00  0.00    +0.039 C 
ATOM     31  C   UNL     1       9.943   6.425   8.345  0.00  0.00    +0.020 C 
ATOM     32  C   UNL     1      10.098   8.916   7.989  0.00  0.00    +0.020 C 
ATOM     33  C   UNL     1       8.363   7.578   6.795  0.00  0.00    +0.020 C 
ENDBRANCH  28  30
BRANCH  16   2
ATOM      2  O   UNL     1      13.902   3.853  -3.743  0.00  0.00    -0.391 OA
ATOM     38  H   UNL     1      14.124   4.486  -4.445  0.00  0.00    +0.210 HD
ENDBRANCH  16   2
BRANCH  13  21
ATOM     21  C   UNL     1      12.626   2.471  -1.618  0.00  0.00    +0.165 C 
BRANCH  21   3
ATOM      3  O   UNL     1      11.926   1.941  -2.721  0.00  0.00    -0.394 OA
ATOM     39  H   UNL     1      12.223   1.026  -2.856  0.00  0.00    +0.209 HD
ENDBRANCH  21   3
ENDBRANCH  13  21
BRANCH  14  24
ATOM     24  C   UNL     1      14.834   6.184   2.572  0.00  0.00    +0.106 C 
BRANCH  24  25
ATOM      4  O   UNL     1      14.698   8.597   2.466  0.00  0.00    -0.276 OA
ATOM      8  N   UNL     1      16.779   7.572   2.596  0.00  0.00    -0.314 N 
ATOM     25  C   UNL     1      15.393   7.587   2.538  0.00  0.00    +0.214 C 
ATOM     40  H   UNL     1      17.269   6.690   2.710  0.00  0.00    +0.149 HD
BRANCH   8  27
ATOM     27  C   UNL     1      17.584   8.771   2.578  0.00  0.00    +0.119 C 
BRANCH  27  29
ATOM     29  C   UNL     1      19.059   8.415   2.474  0.00  0.00    +0.103 C 
BRANCH  29  10
ATOM      6  O   UNL     1      21.401   7.599   5.860  0.00  0.00    -0.377 OA
ATOM     10  N   UNL     1      19.547   7.808   3.710  0.00  0.00    -0.297 NA
ATOM     34  C   UNL     1      19.574   8.793   4.801  0.00  0.00    +0.112 C 
ATOM     35  C   UNL     1      20.886   7.234   3.518  0.00  0.00    +0.112 C 
ATOM     36  C   UNL     1      20.097   8.139   6.076  0.00  0.00    +0.175 C 
ATOM     37  C   UNL     1      21.377   6.616   4.824  0.00  0.00    +0.175 C 
ENDBRANCH  29  10
ENDBRANCH  27  29
ENDBRANCH   8  27
ENDBRANCH  24  25
ENDBRANCH  14  24
TORSDOF 9
ENDMDL
