MODEL 1
REMARK VINA RESULT:      -7.3      0.000      0.000
REMARK  Name = 7675147
REMARK  4 active torsions:
REMARK  status: ('A' for Active; 'I' for Inactive)
REMARK    1  A    between atoms: N_5  and  C_13
REMARK    2  A    between atoms: C_13  and  C_15
REMARK    3  A    between atoms: C_13  and  C_16
REMARK    4  A    between atoms: C_14  and  C_17
REMARK                            x       y       z     vdW  Elec       q    Type
REMARK                         _______ _______ _______ _____ _____    ______ ____
ROOT
ATOM      1  O   UNL     1      14.297   9.943  19.216  0.00  0.00    -0.273 OA
ATOM      2  O   UNL     1      11.652   6.330  20.310  0.00  0.00    -0.252 OA
ATOM      3  O   UNL     1      10.392  11.811  24.309  0.00  0.00    -0.276 OA
ATOM      4  N   UNL     1      11.542   8.608  20.845  0.00  0.00    -0.271 N 
ATOM      5  N   UNL     1      13.170   7.913  19.498  0.00  0.00    -0.217 N 
ATOM      6  N   UNL     1      11.664  10.579  22.806  0.00  0.00    -0.298 N 
ATOM      7  C   UNL     1      12.277   9.819  20.553  0.00  0.00    +0.181 C 
ATOM      8  C   UNL     1      12.772  10.464  21.839  0.00  0.00    +0.139 C 
ATOM      9  C   UNL     1      10.463   8.657  21.815  0.00  0.00    +0.129 C 
ATOM     10  C   UNL     1      10.963   9.318  23.098  0.00  0.00    +0.127 C 
ATOM     11  C   UNL     1      13.386   9.266  19.674  0.00  0.00    +0.246 C 
ATOM     12  C   UNL     1      12.069   7.478  20.218  0.00  0.00    +0.312 C 
ATOM     14  C   UNL     1      11.292  11.748  23.468  0.00  0.00    +0.213 C 
ATOM     17  C   UNL     1      12.057  12.997  23.110  0.00  0.00    +0.109 C 
ENDROOT
BRANCH   5  13
ATOM     13  C   UNL     1      14.024   7.048  18.710  0.00  0.00    +0.113 C 
ATOM     16  C   UNL     1      14.222   7.619  17.307  0.00  0.00    +0.034 C 
BRANCH  13  15
ATOM     15  C   UNL     1      15.336   6.781  19.416  0.00  0.00    -0.027 A 
ATOM     18  C   UNL     1      15.438   7.036  20.773  0.00  0.00    +0.005 A 
ATOM     19  C   UNL     1      16.406   6.288  18.690  0.00  0.00    +0.005 A 
ATOM     20  C   UNL     1      16.646   6.790  21.424  0.00  0.00    +0.000 A 
ATOM     21  C   UNL     1      17.615   6.042  19.341  0.00  0.00    +0.000 A 
ATOM     22  C   UNL     1      17.735   6.293  20.708  0.00  0.00    +0.000 A 
ENDBRANCH  13  15
ENDBRANCH   5  13
TORSDOF 2
ENDMDL
MODEL 2
REMARK VINA RESULT:      -6.5      3.561      7.146
REMARK  Name = 7675147
REMARK  4 active torsions:
REMARK  status: ('A' for Active; 'I' for Inactive)
REMARK    1  A    between atoms: N_5  and  C_13
REMARK    2  A    between atoms: C_13  and  C_15
REMARK    3  A    between atoms: C_13  and  C_16
REMARK    4  A    between atoms: C_14  and  C_17
REMARK                            x       y       z     vdW  Elec       q    Type
REMARK                         _______ _______ _______ _____ _____    ______ ____
ROOT
ATOM      1  O   UNL     1      16.820   5.469  18.547  0.00  0.00    -0.273 OA
ATOM      2  O   UNL     1      15.793   8.677  21.694  0.00  0.00    -0.252 OA
ATOM      3  O   UNL     1      22.270   6.379  22.306  0.00  0.00    -0.276 OA
ATOM      4  N   UNL     1      17.816   7.759  20.952  0.00  0.00    -0.271 N 
ATOM      5  N   UNL     1      15.929   7.078  19.992  0.00  0.00    -0.217 N 
ATOM      6  N   UNL     1      20.081   6.254  21.542  0.00  0.00    -0.298 N 
ATOM      7  C   UNL     1      18.266   6.790  19.978  0.00  0.00    +0.181 C 
ATOM      8  C   UNL     1      19.050   5.677  20.658  0.00  0.00    +0.139 C 
ATOM      9  C   UNL     1      18.783   8.334  21.870  0.00  0.00    +0.129 C 
ATOM     10  C   UNL     1      19.576   7.213  22.539  0.00  0.00    +0.127 C 
ATOM     11  C   UNL     1      16.935   6.340  19.399  0.00  0.00    +0.246 C 
ATOM     12  C   UNL     1      16.432   7.934  20.960  0.00  0.00    +0.312 C 
ATOM     14  C   UNL     1      21.434   5.919  21.525  0.00  0.00    +0.213 C 
ATOM     17  C   UNL     1      21.871   4.933  20.472  0.00  0.00    +0.109 C 
ENDROOT
BRANCH   5  13
ATOM     13  C   UNL     1      14.521   6.930  19.686  0.00  0.00    +0.113 C 
ATOM     16  C   UNL     1      13.687   6.949  20.965  0.00  0.00    +0.034 C 
BRANCH  13  15
ATOM     15  C   UNL     1      14.065   7.967  18.682  0.00  0.00    -0.027 A 
ATOM     18  C   UNL     1      13.496   9.144  19.137  0.00  0.00    +0.005 A 
ATOM     19  C   UNL     1      14.226   7.716  17.331  0.00  0.00    +0.005 A 
ATOM     20  C   UNL     1      13.076  10.100  18.213  0.00  0.00    +0.000 A 
ATOM     21  C   UNL     1      13.807   8.673  16.406  0.00  0.00    +0.000 A 
ATOM     22  C   UNL     1      13.231   9.864  16.847  0.00  0.00    +0.000 A 
ENDBRANCH  13  15
ENDBRANCH   5  13
TORSDOF 2
ENDMDL
MODEL 3
REMARK VINA RESULT:      -6.3      1.629      2.410
REMARK  Name = 7675147
REMARK  4 active torsions:
REMARK  status: ('A' for Active; 'I' for Inactive)
REMARK    1  A    between atoms: N_5  and  C_13
REMARK    2  A    between atoms: C_13  and  C_15
REMARK    3  A    between atoms: C_13  and  C_16
REMARK    4  A    between atoms: C_14  and  C_17
REMARK                            x       y       z     vdW  Elec       q    Type
REMARK                         _______ _______ _______ _____ _____    ______ ____
ROOT
ATOM      1  O   UNL     1      13.243  10.755  19.666  0.00  0.00    -0.273 OA
ATOM      2  O   UNL     1      10.700   8.289  22.615  0.00  0.00    -0.252 OA
ATOM      3  O   UNL     1      12.579  14.390  25.235  0.00  0.00    -0.276 OA
ATOM      4  N   UNL     1      11.325  10.545  22.546  0.00  0.00    -0.271 N 
ATOM      5  N   UNL     1      11.973   9.216  20.886  0.00  0.00    -0.217 N 
ATOM      6  N   UNL     1      12.736  12.638  23.717  0.00  0.00    -0.298 N 
ATOM      7  C   UNL     1      12.080  11.428  21.685  0.00  0.00    +0.181 C 
ATOM      8  C   UNL     1      13.230  12.064  22.451  0.00  0.00    +0.139 C 
ATOM      9  C   UNL     1      10.844  11.049  23.821  0.00  0.00    +0.129 C 
ATOM     10  C   UNL     1      12.000  11.699  24.579  0.00  0.00    +0.127 C 
ATOM     11  C   UNL     1      12.523  10.452  20.608  0.00  0.00    +0.246 C 
ATOM     12  C   UNL     1      11.258   9.234  22.073  0.00  0.00    +0.312 C 
ATOM     14  C   UNL     1      12.961  13.944  24.150  0.00  0.00    +0.213 C 
ATOM     17  C   UNL     1      13.720  14.845  23.209  0.00  0.00    +0.109 C 
ENDROOT
BRANCH   5  13
ATOM     13  C   UNL     1      12.172   8.034  20.071  0.00  0.00    +0.113 C 
ATOM     16  C   UNL     1      11.712   8.286  18.637  0.00  0.00    +0.034 C 
BRANCH  13  15
ATOM     15  C   UNL     1      13.605   7.552  20.143  0.00  0.00    -0.027 A 
ATOM     18  C   UNL     1      14.198   7.376  21.382  0.00  0.00    +0.005 A 
ATOM     19  C   UNL     1      14.293   7.298  18.969  0.00  0.00    +0.005 A 
ATOM     20  C   UNL     1      15.518   6.933  21.449  0.00  0.00    +0.000 A 
ATOM     21  C   UNL     1      15.613   6.854  19.036  0.00  0.00    +0.000 A 
ATOM     22  C   UNL     1      16.226   6.671  20.276  0.00  0.00    +0.000 A 
ENDBRANCH  13  15
ENDBRANCH   5  13
TORSDOF 2
ENDMDL
MODEL 4
REMARK VINA RESULT:      -6.2     12.133     14.271
REMARK  Name = 7675147
REMARK  4 active torsions:
REMARK  status: ('A' for Active; 'I' for Inactive)
REMARK    1  A    between atoms: N_5  and  C_13
REMARK    2  A    between atoms: C_13  and  C_15
REMARK    3  A    between atoms: C_13  and  C_16
REMARK    4  A    between atoms: C_14  and  C_17
REMARK                            x       y       z     vdW  Elec       q    Type
REMARK                         _______ _______ _______ _____ _____    ______ ____
ROOT
ATOM      1  O   UNL     1      17.918  -4.076  26.701  0.00  0.00    -0.273 OA
ATOM      2  O   UNL     1      21.147  -0.913  27.606  0.00  0.00    -0.252 OA
ATOM      3  O   UNL     1      16.632  -1.608  32.777  0.00  0.00    -0.276 OA
ATOM      4  N   UNL     1      19.589  -2.033  28.949  0.00  0.00    -0.271 N 
ATOM      5  N   UNL     1      19.679  -2.539  26.786  0.00  0.00    -0.217 N 
ATOM      6  N   UNL     1      17.341  -1.880  30.583  0.00  0.00    -0.298 N 
ATOM      7  C   UNL     1      18.563  -3.041  28.797  0.00  0.00    +0.181 C 
ATOM      8  C   UNL     1      17.215  -2.500  29.250  0.00  0.00    +0.139 C 
ATOM      9  C   UNL     1      19.736  -1.366  30.231  0.00  0.00    +0.129 C 
ATOM     10  C   UNL     1      18.376  -0.838  30.686  0.00  0.00    +0.127 C 
ATOM     11  C   UNL     1      18.651  -3.303  27.303  0.00  0.00    +0.246 C 
ATOM     12  C   UNL     1      20.254  -1.737  27.759  0.00  0.00    +0.312 C 
ATOM     14  C   UNL     1      16.540  -2.172  31.685  0.00  0.00    +0.213 C 
ATOM     17  C   UNL     1      15.506  -3.254  31.498  0.00  0.00    +0.109 C 
ENDROOT
BRANCH   5  13
ATOM     13  C   UNL     1      20.065  -2.532  25.389  0.00  0.00    +0.113 C 
ATOM     16  C   UNL     1      20.681  -3.872  24.994  0.00  0.00    +0.034 C 
BRANCH  13  15
ATOM     15  C   UNL     1      18.902  -2.144  24.500  0.00  0.00    -0.027 A 
ATOM     18  C   UNL     1      18.577  -2.951  23.423  0.00  0.00    +0.005 A 
ATOM     19  C   UNL     1      18.190  -0.992  24.783  0.00  0.00    +0.005 A 
ATOM     20  C   UNL     1      17.506  -2.595  22.604  0.00  0.00    +0.000 A 
ATOM     21  C   UNL     1      17.119  -0.635  23.963  0.00  0.00    +0.000 A 
ATOM     22  C   UNL     1      16.777  -1.437  22.874  0.00  0.00    +0.000 A 
ENDBRANCH  13  15
ENDBRANCH   5  13
TORSDOF 2
ENDMDL
MODEL 5
REMARK VINA RESULT:      -6.0     15.907     18.622
REMARK  Name = 7675147
REMARK  4 active torsions:
REMARK  status: ('A' for Active; 'I' for Inactive)
REMARK    1  A    between atoms: N_5  and  C_13
REMARK    2  A    between atoms: C_13  and  C_15
REMARK    3  A    between atoms: C_13  and  C_16
REMARK    4  A    between atoms: C_14  and  C_17
REMARK                            x       y       z     vdW  Elec       q    Type
REMARK                         _______ _______ _______ _____ _____    ______ ____
ROOT
ATOM      1  O   UNL     1      13.233   7.359   2.534  0.00  0.00    -0.273 OA
ATOM      2  O   UNL     1      11.193   3.226   2.571  0.00  0.00    -0.252 OA
ATOM      3  O   UNL     1       9.535   7.020   8.091  0.00  0.00    -0.276 OA
ATOM      4  N   UNL     1      10.823   5.199   3.777  0.00  0.00    -0.271 N 
ATOM      5  N   UNL     1      12.415   5.190   2.225  0.00  0.00    -0.217 N 
ATOM      6  N   UNL     1      10.835   6.496   6.239  0.00  0.00    -0.298 N 
ATOM      7  C   UNL     1      11.362   6.539   3.842  0.00  0.00    +0.181 C 
ATOM      8  C   UNL     1      11.868   6.842   5.244  0.00  0.00    +0.139 C 
ATOM      9  C   UNL     1       9.827   4.794   4.754  0.00  0.00    +0.129 C 
ATOM     10  C   UNL     1      10.336   5.114   6.159  0.00  0.00    +0.127 C 
ATOM     11  C   UNL     1      12.462   6.446   2.797  0.00  0.00    +0.246 C 
ATOM     12  C   UNL     1      11.444   4.399   2.817  0.00  0.00    +0.312 C 
ATOM     14  C   UNL     1      10.365   7.346   7.239  0.00  0.00    +0.213 C 
ATOM     17  C   UNL     1      10.924   8.746   7.252  0.00  0.00    +0.109 C 
ENDROOT
BRANCH   5  13
ATOM     13  C   UNL     1      13.312   4.737   1.181  0.00  0.00    +0.113 C 
ATOM     16  C   UNL     1      14.228   3.631   1.701  0.00  0.00    +0.034 C 
BRANCH  13  15
ATOM     15  C   UNL     1      12.546   4.319  -0.057  0.00  0.00    -0.027 A 
ATOM     18  C   UNL     1      11.546   5.144  -0.544  0.00  0.00    +0.005 A 
ATOM     19  C   UNL     1      12.862   3.122  -0.675  0.00  0.00    +0.005 A 
ATOM     20  C   UNL     1      10.841   4.759  -1.683  0.00  0.00    +0.000 A 
ATOM     21  C   UNL     1      12.157   2.738  -1.815  0.00  0.00    +0.000 A 
ATOM     22  C   UNL     1      11.146   3.556  -2.320  0.00  0.00    +0.000 A 
ENDBRANCH  13  15
ENDBRANCH   5  13
TORSDOF 2
ENDMDL
MODEL 6
REMARK VINA RESULT:      -6.0      2.246      7.384
REMARK  Name = 7675147
REMARK  4 active torsions:
REMARK  status: ('A' for Active; 'I' for Inactive)
REMARK    1  A    between atoms: N_5  and  C_13
REMARK    2  A    between atoms: C_13  and  C_15
REMARK    3  A    between atoms: C_13  and  C_16
REMARK    4  A    between atoms: C_14  and  C_17
REMARK                            x       y       z     vdW  Elec       q    Type
REMARK                         _______ _______ _______ _____ _____    ______ ____
ROOT
ATOM      1  O   UNL     1      13.761  12.553  21.275  0.00  0.00    -0.273 OA
ATOM      2  O   UNL     1      10.373  11.116  24.050  0.00  0.00    -0.252 OA
ATOM      3  O   UNL     1      12.056   6.399  19.305  0.00  0.00    -0.276 OA
ATOM      4  N   UNL     1      11.782  10.005  22.544  0.00  0.00    -0.271 N 
ATOM      5  N   UNL     1      12.060  12.192  22.838  0.00  0.00    -0.217 N 
ATOM      6  N   UNL     1      12.033   8.546  20.188  0.00  0.00    -0.298 N 
ATOM      7  C   UNL     1      12.874  10.328  21.653  0.00  0.00    +0.181 C 
ATOM      8  C   UNL     1      12.529   9.935  20.224  0.00  0.00    +0.139 C 
ATOM      9  C   UNL     1      11.232   8.661  22.526  0.00  0.00    +0.129 C 
ATOM     10  C   UNL     1      10.901   8.269  21.087  0.00  0.00    +0.127 C 
ATOM     11  C   UNL     1      12.977  11.828  21.872  0.00  0.00    +0.246 C 
ATOM     12  C   UNL     1      11.299  11.109  23.250  0.00  0.00    +0.312 C 
ATOM     14  C   UNL     1      12.517   7.541  19.352  0.00  0.00    +0.213 C 
ATOM     17  C   UNL     1      13.680   7.905  18.464  0.00  0.00    +0.109 C 
ENDROOT
BRANCH   5  13
ATOM     13  C   UNL     1      11.873  13.548  23.314  0.00  0.00    +0.113 C 
ATOM     16  C   UNL     1      13.163  14.352  23.168  0.00  0.00    +0.034 C 
BRANCH  13  15
ATOM     15  C   UNL     1      10.697  14.213  22.632  0.00  0.00    -0.027 A 
ATOM     18  C   UNL     1      10.798  14.561  21.296  0.00  0.00    +0.005 A 
ATOM     19  C   UNL     1       9.545  14.458  23.358  0.00  0.00    +0.005 A 
ATOM     20  C   UNL     1       9.715  15.174  20.667  0.00  0.00    +0.000 A 
ATOM     21  C   UNL     1       8.460  15.071  22.729  0.00  0.00    +0.000 A 
ATOM     22  C   UNL     1       8.546  15.429  21.384  0.00  0.00    +0.000 A 
ENDBRANCH  13  15
ENDBRANCH   5  13
TORSDOF 2
ENDMDL
MODEL 7
REMARK VINA RESULT:      -6.0     26.618     27.945
REMARK  Name = 7675147
REMARK  4 active torsions:
REMARK  status: ('A' for Active; 'I' for Inactive)
REMARK    1  A    between atoms: N_5  and  C_13
REMARK    2  A    between atoms: C_13  and  C_15
REMARK    3  A    between atoms: C_13  and  C_16
REMARK    4  A    between atoms: C_14  and  C_17
REMARK                            x       y       z     vdW  Elec       q    Type
REMARK                         _______ _______ _______ _____ _____    ______ ____
ROOT
ATOM      1  O   UNL     1      -5.785 -12.730  12.666  0.00  0.00    -0.273 OA
ATOM      2  O   UNL     1      -1.688 -11.767  14.546  0.00  0.00    -0.252 OA
ATOM      3  O   UNL     1      -6.943  -9.928  18.623  0.00  0.00    -0.276 OA
ATOM      4  N   UNL     1      -3.858 -11.880  15.420  0.00  0.00    -0.271 N 
ATOM      5  N   UNL     1      -3.556 -12.366  13.271  0.00  0.00    -0.217 N 
ATOM      6  N   UNL     1      -6.001 -10.547  16.591  0.00  0.00    -0.298 N 
ATOM      7  C   UNL     1      -5.192 -12.188  14.954  0.00  0.00    +0.181 C 
ATOM      8  C   UNL     1      -6.124 -11.010  15.196  0.00  0.00    +0.139 C 
ATOM      9  C   UNL     1      -3.682 -11.388  16.775  0.00  0.00    +0.129 C 
ATOM     10  C   UNL     1      -4.631 -10.215  17.015  0.00  0.00    +0.127 C 
ATOM     11  C   UNL     1      -4.916 -12.463  13.486  0.00  0.00    +0.246 C 
ATOM     12  C   UNL     1      -2.886 -11.988  14.425  0.00  0.00    +0.312 C 
ATOM     14  C   UNL     1      -7.064 -10.363  17.475  0.00  0.00    +0.213 C 
ATOM     17  C   UNL     1      -8.435 -10.728  16.965  0.00  0.00    +0.109 C 
ENDROOT
BRANCH   5  13
ATOM     13  C   UNL     1      -2.917 -12.571  11.987  0.00  0.00    +0.113 C 
ATOM     16  C   UNL     1      -3.211 -13.973  11.458  0.00  0.00    +0.034 C 
BRANCH  13  15
ATOM     15  C   UNL     1      -3.303 -11.488  11.002  0.00  0.00    -0.027 A 
ATOM     18  C   UNL     1      -2.910 -10.183  11.245  0.00  0.00    +0.005 A 
ATOM     19  C   UNL     1      -4.041 -11.826   9.881  0.00  0.00    +0.005 A 
ATOM     20  C   UNL     1      -3.266  -9.185  10.338  0.00  0.00    +0.000 A 
ATOM     21  C   UNL     1      -4.396 -10.827   8.974  0.00  0.00    +0.000 A 
ATOM     22  C   UNL     1      -4.009  -9.507   9.202  0.00  0.00    +0.000 A 
ENDBRANCH  13  15
ENDBRANCH   5  13
TORSDOF 2
ENDMDL
MODEL 8
REMARK VINA RESULT:      -6.0     26.782     27.870
REMARK  Name = 7675147
REMARK  4 active torsions:
REMARK  status: ('A' for Active; 'I' for Inactive)
REMARK    1  A    between atoms: N_5  and  C_13
REMARK    2  A    between atoms: C_13  and  C_15
REMARK    3  A    between atoms: C_13  and  C_16
REMARK    4  A    between atoms: C_14  and  C_17
REMARK                            x       y       z     vdW  Elec       q    Type
REMARK                         _______ _______ _______ _____ _____    ______ ____
ROOT
ATOM      1  O   UNL     1      -3.006 -12.890  14.429  0.00  0.00    -0.273 OA
ATOM      2  O   UNL     1      -6.491 -10.151  13.163  0.00  0.00    -0.252 OA
ATOM      3  O   UNL     1      -5.954 -10.714  20.019  0.00  0.00    -0.276 OA
ATOM      4  N   UNL     1      -5.388 -10.492  15.201  0.00  0.00    -0.271 N 
ATOM      5  N   UNL     1      -4.679 -11.609  13.414  0.00  0.00    -0.217 N 
ATOM      6  N   UNL     1      -5.523 -11.378  17.835  0.00  0.00    -0.298 N 
ATOM      7  C   UNL     1      -4.292 -11.283  15.713  0.00  0.00    +0.181 C 
ATOM      8  C   UNL     1      -4.766 -12.175  16.851  0.00  0.00    +0.139 C 
ATOM      9  C   UNL     1      -6.189  -9.714  16.131  0.00  0.00    +0.129 C 
ATOM     10  C   UNL     1      -6.649 -10.612  17.278  0.00  0.00    +0.127 C 
ATOM     11  C   UNL     1      -3.891 -12.045  14.461  0.00  0.00    +0.246 C 
ATOM     12  C   UNL     1      -5.618 -10.681  13.838  0.00  0.00    +0.312 C 
ATOM     14  C   UNL     1      -5.278 -11.351  19.207  0.00  0.00    +0.213 C 
ATOM     17  C   UNL     1      -4.104 -12.160  19.699  0.00  0.00    +0.109 C 
ENDROOT
BRANCH   5  13
ATOM     13  C   UNL     1      -4.579 -12.107  12.057  0.00  0.00    +0.113 C 
ATOM     16  C   UNL     1      -5.815 -12.927  11.692  0.00  0.00    +0.034 C 
BRANCH  13  15
ATOM     15  C   UNL     1      -4.322 -10.982  11.077  0.00  0.00    -0.027 A 
ATOM     18  C   UNL     1      -3.171 -10.224  11.205  0.00  0.00    +0.005 A 
ATOM     19  C   UNL     1      -5.244 -10.735  10.075  0.00  0.00    +0.005 A 
ATOM     20  C   UNL     1      -2.934  -9.187  10.302  0.00  0.00    +0.000 A 
ATOM     21  C   UNL     1      -5.007  -9.698   9.172  0.00  0.00    +0.000 A 
ATOM     22  C   UNL     1      -3.852  -8.924   9.286  0.00  0.00    +0.000 A 
ENDBRANCH  13  15
ENDBRANCH   5  13
TORSDOF 2
ENDMDL
MODEL 9
REMARK VINA RESULT:      -5.8     15.346     17.984
REMARK  Name = 7675147
REMARK  4 active torsions:
REMARK  status: ('A' for Active; 'I' for Inactive)
REMARK    1  A    between atoms: N_5  and  C_13
REMARK    2  A    between atoms: C_13  and  C_15
REMARK    3  A    between atoms: C_13  and  C_16
REMARK    4  A    between atoms: C_14  and  C_17
REMARK                            x       y       z     vdW  Elec       q    Type
REMARK                         _______ _______ _______ _____ _____    ______ ____
ROOT
ATOM      1  O   UNL     1      10.537   3.519   4.215  0.00  0.00    -0.273 OA
ATOM      2  O   UNL     1      11.553   7.228   1.674  0.00  0.00    -0.252 OA
ATOM      3  O   UNL     1       9.277   8.903   7.968  0.00  0.00    -0.276 OA
ATOM      4  N   UNL     1      11.175   6.918   3.964  0.00  0.00    -0.271 N 
ATOM      5  N   UNL     1      11.119   5.139   2.631  0.00  0.00    -0.217 N 
ATOM      6  N   UNL     1       9.585   7.447   6.185  0.00  0.00    -0.298 N 
ATOM      7  C   UNL     1      10.880   5.829   4.869  0.00  0.00    +0.181 C 
ATOM      8  C   UNL     1       9.575   6.090   5.607  0.00  0.00    +0.139 C 
ATOM      9  C   UNL     1      11.165   8.278   4.473  0.00  0.00    +0.129 C 
ATOM     10  C   UNL     1       9.859   8.528   5.225  0.00  0.00    +0.127 C 
ATOM     11  C   UNL     1      10.813   4.667   3.893  0.00  0.00    +0.246 C 
ATOM     12  C   UNL     1      11.320   6.510   2.638  0.00  0.00    +0.312 C 
ATOM     14  C   UNL     1       9.310   7.756   7.517  0.00  0.00    +0.213 C 
ATOM     17  C   UNL     1       9.043   6.592   8.437  0.00  0.00    +0.109 C 
ENDROOT
BRANCH   5  13
ATOM     13  C   UNL     1      11.160   4.313   1.441  0.00  0.00    +0.113 C 
ATOM     16  C   UNL     1      10.175   4.828   0.394  0.00  0.00    +0.034 C 
BRANCH  13  15
ATOM     15  C   UNL     1      12.570   4.199   0.901  0.00  0.00    -0.027 A 
ATOM     18  C   UNL     1      13.565   3.683   1.714  0.00  0.00    +0.005 A 
ATOM     19  C   UNL     1      12.834   4.614  -0.392  0.00  0.00    +0.005 A 
ATOM     20  C   UNL     1      14.864   3.579   1.217  0.00  0.00    +0.000 A 
ATOM     21  C   UNL     1      14.133   4.509  -0.890  0.00  0.00    +0.000 A 
ATOM     22  C   UNL     1      15.148   3.991  -0.085  0.00  0.00    +0.000 A 
ENDBRANCH  13  15
ENDBRANCH   5  13
TORSDOF 2
ENDMDL
MODEL 10
REMARK VINA RESULT:      -5.8     26.089     27.820
REMARK  Name = 7675147
REMARK  4 active torsions:
REMARK  status: ('A' for Active; 'I' for Inactive)
REMARK    1  A    between atoms: N_5  and  C_13
REMARK    2  A    between atoms: C_13  and  C_15
REMARK    3  A    between atoms: C_13  and  C_16
REMARK    4  A    between atoms: C_14  and  C_17
REMARK                            x       y       z     vdW  Elec       q    Type
REMARK                         _______ _______ _______ _____ _____    ______ ____
ROOT
ATOM      1  O   UNL     1      -4.245 -13.953  14.119  0.00  0.00    -0.273 OA
ATOM      2  O   UNL     1      -2.025 -10.277  15.793  0.00  0.00    -0.252 OA
ATOM      3  O   UNL     1      -8.285 -11.058  18.587  0.00  0.00    -0.276 OA
ATOM      4  N   UNL     1      -3.916 -11.460  16.506  0.00  0.00    -0.271 N 
ATOM      5  N   UNL     1      -2.838 -12.178  14.698  0.00  0.00    -0.217 N 
ATOM      6  N   UNL     1      -6.659 -11.459  16.979  0.00  0.00    -0.298 N 
ATOM      7  C   UNL     1      -4.681 -12.616  16.095  0.00  0.00    +0.181 C 
ATOM      8  C   UNL     1      -6.131 -12.231  15.838  0.00  0.00    +0.139 C 
ATOM      9  C   UNL     1      -4.408 -10.645  17.603  0.00  0.00    +0.129 C 
ATOM     10  C   UNL     1      -5.867 -10.273  17.344  0.00  0.00    +0.127 C 
ATOM     11  C   UNL     1      -3.920 -13.022  14.844  0.00  0.00    +0.246 C 
ATOM     12  C   UNL     1      -2.821 -11.200  15.681  0.00  0.00    +0.312 C 
ATOM     14  C   UNL     1      -7.837 -11.745  17.666  0.00  0.00    +0.213 C 
ATOM     17  C   UNL     1      -8.588 -12.978  17.233  0.00  0.00    +0.109 C 
ENDROOT
BRANCH   5  13
ATOM     13  C   UNL     1      -1.876 -12.265  13.618  0.00  0.00    +0.113 C 
ATOM     16  C   UNL     1      -1.460 -13.715  13.383  0.00  0.00    +0.034 C 
BRANCH  13  15
ATOM     15  C   UNL     1      -2.401 -11.603  12.361  0.00  0.00    -0.027 A 
ATOM     18  C   UNL     1      -2.072 -10.283  12.104  0.00  0.00    +0.005 A 
ATOM     19  C   UNL     1      -3.200 -12.332  11.497  0.00  0.00    +0.005 A 
ATOM     20  C   UNL     1      -2.556  -9.673  10.947  0.00  0.00    +0.000 A 
ATOM     21  C   UNL     1      -3.683 -11.722  10.339  0.00  0.00    +0.000 A 
ATOM     22  C   UNL     1      -3.362 -10.393  10.064  0.00  0.00    +0.000 A 
ENDBRANCH  13  15
ENDBRANCH   5  13
TORSDOF 2
ENDMDL
