MODEL 1
REMARK VINA RESULT:      -6.9      0.000      0.000
REMARK  Name = 9424556
REMARK  4 active torsions:
REMARK  status: ('A' for Active; 'I' for Inactive)
REMARK    1  A    between atoms: N_7  and  C_16
REMARK    2  A    between atoms: C_18  and  C_21
REMARK    3  A    between atoms: C_22  and  C_25
REMARK    4  A    between atoms: C_33  and  C_34
REMARK                            x       y       z     vdW  Elec       q    Type
REMARK                         _______ _______ _______ _____ _____    ______ ____
ROOT
ATOM      2  O   UNL     1      10.687   5.607   8.522  0.00  0.00    -0.268 OA
ATOM      3  O   UNL     1      10.443  10.507   6.813  0.00  0.00    -0.270 OA
ATOM      5  N   UNL     1      11.875   9.325   5.389  0.00  0.00    -0.297 N 
ATOM      6  N   UNL     1      11.668   6.367   6.536  0.00  0.00    -0.310 N 
ATOM      9  C   UNL     1      13.644   7.999   6.536  0.00  0.00    +0.027 C 
ATOM     10  C   UNL     1      12.708   7.207   4.403  0.00  0.00    +0.055 C 
ATOM     11  C   UNL     1      13.999   7.341   5.211  0.00  0.00    +0.018 C 
ATOM     12  C   UNL     1      13.015   9.386   6.304  0.00  0.00    +0.113 C 
ATOM     13  C   UNL     1      12.712   7.060   7.305  0.00  0.00    +0.130 C 
ATOM     14  C   UNL     1      12.128   8.608   4.129  0.00  0.00    +0.117 C 
ATOM     15  C   UNL     1      11.670   6.354   5.128  0.00  0.00    +0.048 A 
ATOM     16  C   UNL     1      10.737   5.633   4.465  0.00  0.00    +0.054 A 
ATOM     17  C   UNL     1      10.726   5.646   7.292  0.00  0.00    +0.252 A 
ATOM     18  C   UNL     1      10.661   9.908   5.761  0.00  0.00    +0.247 C 
ATOM     19  C   UNL     1       9.751   4.874   5.195  0.00  0.00    +0.030 A 
ATOM     20  C   UNL     1       9.717   4.871   6.529  0.00  0.00    +0.072 A 
ENDROOT
BRANCH  18  21
ATOM      1  F   UNL     1       6.354   9.456   2.225  0.00  0.00    -0.205 F 
ATOM     21  C   UNL     1       9.530   9.790   4.835  0.00  0.00    +0.037 A 
ATOM     23  C   UNL     1       9.271  10.812   3.926  0.00  0.00    +0.016 A 
ATOM     24  C   UNL     1       8.723   8.654   4.867  0.00  0.00    +0.016 A 
ATOM     26  C   UNL     1       8.196  10.699   3.043  0.00  0.00    +0.039 A 
ATOM     27  C   UNL     1       7.649   8.542   3.985  0.00  0.00    +0.039 A 
ATOM     28  C   UNL     1       7.385   9.564   3.073  0.00  0.00    +0.123 A 
ENDBRANCH  18  21
BRANCH  16   7
ATOM      4  O   UNL     1      11.541   3.468   2.789  0.00  0.00    -0.270 OA
ATOM      7  N   UNL     1      10.640   5.589   3.101  0.00  0.00    -0.280 N 
ATOM     22  C   UNL     1      11.050   4.503   2.344  0.00  0.00    +0.248 C 
ATOM     35  H   UNL     1      10.038   6.275   2.659  0.00  0.00    +0.155 HD
BRANCH  22  25
ATOM     25  C   UNL     1      10.843   4.630   0.878  0.00  0.00    +0.037 A 
ATOM     29  C   UNL     1      11.685   3.945   0.027  0.00  0.00    +0.014 A 
ATOM     30  C   UNL     1       9.819   5.429   0.417  0.00  0.00    +0.014 A 
ATOM     31  C   UNL     1      11.492   4.065  -1.350  0.00  0.00    +0.019 A 
ATOM     32  C   UNL     1       9.626   5.549  -0.959  0.00  0.00    +0.019 A 
ATOM     33  C   UNL     1      10.463   4.867  -1.843  0.00  0.00    +0.052 A 
BRANCH  33  34
ATOM      8  N   UNL     1      10.106   5.091  -4.399  0.00  0.00    -0.191 NA
ATOM     34  C   UNL     1      10.266   4.990  -3.253  0.00  0.00    +0.099 C 
ENDBRANCH  33  34
ENDBRANCH  22  25
ENDBRANCH  16   7
TORSDOF 4
ENDMDL
MODEL 2
REMARK VINA RESULT:      -6.7     15.683     18.258
REMARK  Name = 9424556
REMARK  4 active torsions:
REMARK  status: ('A' for Active; 'I' for Inactive)
REMARK    1  A    between atoms: N_7  and  C_16
REMARK    2  A    between atoms: C_18  and  C_21
REMARK    3  A    between atoms: C_22  and  C_25
REMARK    4  A    between atoms: C_33  and  C_34
REMARK                            x       y       z     vdW  Elec       q    Type
REMARK                         _______ _______ _______ _____ _____    ______ ____
ROOT
ATOM      2  O   UNL     1      10.511   8.471  18.763  0.00  0.00    -0.268 OA
ATOM      3  O   UNL     1      12.347  13.297  19.339  0.00  0.00    -0.270 OA
ATOM      5  N   UNL     1      13.374  11.945  20.949  0.00  0.00    -0.297 N 
ATOM      6  N   UNL     1      12.235   9.065  20.233  0.00  0.00    -0.310 N 
ATOM      9  C   UNL     1      11.819  10.535  22.290  0.00  0.00    +0.027 C 
ATOM     10  C   UNL     1      14.090   9.728  21.799  0.00  0.00    +0.055 C 
ATOM     11  C   UNL     1      13.009   9.795  22.879  0.00  0.00    +0.018 C 
ATOM     12  C   UNL     1      12.222  11.956  21.852  0.00  0.00    +0.113 C 
ATOM     13  C   UNL     1      11.263   9.707  21.129  0.00  0.00    +0.130 C 
ATOM     14  C   UNL     1      14.524  11.157  21.421  0.00  0.00    +0.117 C 
ATOM     15  C   UNL     1      13.604   8.992  20.553  0.00  0.00    +0.048 A 
ATOM     16  C   UNL     1      14.446   8.317  19.738  0.00  0.00    +0.054 A 
ATOM     17  C   UNL     1      11.699   8.454  19.084  0.00  0.00    +0.252 A 
ATOM     18  C   UNL     1      13.306  12.637  19.738  0.00  0.00    +0.247 C 
ATOM     19  C   UNL     1      13.946   7.671  18.549  0.00  0.00    +0.030 A 
ATOM     20  C   UNL     1      12.656   7.728  18.213  0.00  0.00    +0.072 A 
ENDROOT
BRANCH  18  21
ATOM      1  F   UNL     1      17.728  12.372  16.327  0.00  0.00    -0.205 F 
ATOM     21  C   UNL     1      14.465  12.568  18.842  0.00  0.00    +0.037 A 
ATOM     23  C   UNL     1      15.558  13.401  19.061  0.00  0.00    +0.016 A 
ATOM     24  C   UNL     1      14.467  11.668  17.778  0.00  0.00    +0.016 A 
ATOM     26  C   UNL     1      16.663  13.335  18.209  0.00  0.00    +0.039 A 
ATOM     27  C   UNL     1      15.571  11.603  16.928  0.00  0.00    +0.039 A 
ATOM     28  C   UNL     1      16.668  12.436  17.144  0.00  0.00    +0.123 A 
ENDBRANCH  18  21
BRANCH  16   7
ATOM      4  O   UNL     1      15.790   6.203  21.103  0.00  0.00    -0.270 OA
ATOM      7  N   UNL     1      15.795   8.223  19.950  0.00  0.00    -0.280 N 
ATOM     22  C   UNL     1      16.385   7.165  20.623  0.00  0.00    +0.248 C 
ATOM     35  H   UNL     1      16.393   8.826  19.397  0.00  0.00    +0.155 HD
BRANCH  22  25
ATOM     25  C   UNL     1      17.866   7.225  20.736  0.00  0.00    +0.037 A 
ATOM     29  C   UNL     1      18.450   8.380  21.214  0.00  0.00    +0.014 A 
ATOM     30  C   UNL     1      18.607   6.126  20.358  0.00  0.00    +0.014 A 
ATOM     31  C   UNL     1      19.840   8.436  21.319  0.00  0.00    +0.019 A 
ATOM     32  C   UNL     1      19.997   6.182  20.463  0.00  0.00    +0.019 A 
ATOM     33  C   UNL     1      20.614   7.338  20.944  0.00  0.00    +0.052 A 
BRANCH  33  34
ATOM      8  N   UNL     1      23.195   7.444  21.138  0.00  0.00    -0.191 NA
ATOM     34  C   UNL     1      22.037   7.396  21.051  0.00  0.00    +0.099 C 
ENDBRANCH  33  34
ENDBRANCH  22  25
ENDBRANCH  16   7
TORSDOF 4
ENDMDL
MODEL 3
REMARK VINA RESULT:      -6.3     15.216     18.251
REMARK  Name = 9424556
REMARK  4 active torsions:
REMARK  status: ('A' for Active; 'I' for Inactive)
REMARK    1  A    between atoms: N_7  and  C_16
REMARK    2  A    between atoms: C_18  and  C_21
REMARK    3  A    between atoms: C_22  and  C_25
REMARK    4  A    between atoms: C_33  and  C_34
REMARK                            x       y       z     vdW  Elec       q    Type
REMARK                         _______ _______ _______ _____ _____    ______ ____
ROOT
ATOM      2  O   UNL     1      10.550  12.430  22.492  0.00  0.00    -0.268 OA
ATOM      3  O   UNL     1      12.992  14.167  18.248  0.00  0.00    -0.270 OA
ATOM      5  N   UNL     1      14.622  13.595  19.826  0.00  0.00    -0.297 N 
ATOM      6  N   UNL     1      12.872  12.392  22.192  0.00  0.00    -0.310 N 
ATOM      9  C   UNL     1      14.265  14.541  22.102  0.00  0.00    +0.027 C 
ATOM     10  C   UNL     1      15.364  12.356  21.843  0.00  0.00    +0.055 C 
ATOM     11  C   UNL     1      15.386  13.664  22.636  0.00  0.00    +0.018 C 
ATOM     12  C   UNL     1      14.461  14.825  20.601  0.00  0.00    +0.113 C 
ATOM     13  C   UNL     1      12.932  13.847  22.391  0.00  0.00    +0.130 C 
ATOM     14  C   UNL     1      15.625  12.656  20.354  0.00  0.00    +0.117 C 
ATOM     15  C   UNL     1      14.034  11.622  21.994  0.00  0.00    +0.048 A 
ATOM     16  C   UNL     1      13.936  10.276  21.900  0.00  0.00    +0.054 A 
ATOM     17  C   UNL     1      11.596  11.810  22.302  0.00  0.00    +0.252 A 
ATOM     18  C   UNL     1      13.832  13.386  18.694  0.00  0.00    +0.247 C 
ATOM     19  C   UNL     1      12.651   9.631  22.009  0.00  0.00    +0.030 A 
ATOM     20  C   UNL     1      11.530  10.332  22.189  0.00  0.00    +0.072 A 
ENDROOT
BRANCH  18  21
ATOM      1  F   UNL     1      14.453   8.567  15.929  0.00  0.00    -0.205 F 
ATOM     21  C   UNL     1      13.994  12.122  17.967  0.00  0.00    +0.037 A 
ATOM     23  C   UNL     1      14.896  12.042  16.910  0.00  0.00    +0.016 A 
ATOM     24  C   UNL     1      13.245  11.008  18.340  0.00  0.00    +0.016 A 
ATOM     26  C   UNL     1      15.051  10.839  16.220  0.00  0.00    +0.039 A 
ATOM     27  C   UNL     1      13.401   9.806  17.650  0.00  0.00    +0.039 A 
ATOM     28  C   UNL     1      14.303   9.722  16.591  0.00  0.00    +0.123 A 
ENDBRANCH  18  21
BRANCH  16   7
ATOM      4  O   UNL     1      14.004   8.068  20.094  0.00  0.00    -0.270 OA
ATOM      7  N   UNL     1      15.005   9.452  21.673  0.00  0.00    -0.280 N 
ATOM     22  C   UNL     1      14.971   8.394  20.778  0.00  0.00    +0.248 C 
ATOM     35  H   UNL     1      15.911   9.771  21.996  0.00  0.00    +0.155 HD
BRANCH  22  25
ATOM     25  C   UNL     1      16.236   7.625  20.649  0.00  0.00    +0.037 A 
ATOM     29  C   UNL     1      17.270   7.893  21.523  0.00  0.00    +0.014 A 
ATOM     30  C   UNL     1      16.337   6.671  19.660  0.00  0.00    +0.014 A 
ATOM     31  C   UNL     1      18.457   7.172  21.402  0.00  0.00    +0.019 A 
ATOM     32  C   UNL     1      17.525   5.950  19.538  0.00  0.00    +0.019 A 
ATOM     33  C   UNL     1      18.586   6.200  20.409  0.00  0.00    +0.052 A 
BRANCH  33  34
ATOM      8  N   UNL     1      20.792   4.861  20.182  0.00  0.00    -0.191 NA
ATOM     34  C   UNL     1      19.802   5.462  20.284  0.00  0.00    +0.099 C 
ENDBRANCH  33  34
ENDBRANCH  22  25
ENDBRANCH  16   7
TORSDOF 4
ENDMDL
MODEL 4
REMARK VINA RESULT:      -6.3      3.031      4.633
REMARK  Name = 9424556
REMARK  4 active torsions:
REMARK  status: ('A' for Active; 'I' for Inactive)
REMARK    1  A    between atoms: N_7  and  C_16
REMARK    2  A    between atoms: C_18  and  C_21
REMARK    3  A    between atoms: C_22  and  C_25
REMARK    4  A    between atoms: C_33  and  C_34
REMARK                            x       y       z     vdW  Elec       q    Type
REMARK                         _______ _______ _______ _____ _____    ______ ____
ROOT
ATOM      2  O   UNL     1       7.106   9.021   4.616  0.00  0.00    -0.268 OA
ATOM      3  O   UNL     1      11.092   9.630   7.891  0.00  0.00    -0.270 OA
ATOM      5  N   UNL     1      11.246   7.485   6.970  0.00  0.00    -0.297 N 
ATOM      6  N   UNL     1       8.842   7.474   4.889  0.00  0.00    -0.310 N 
ATOM      9  C   UNL     1       9.148   6.146   7.059  0.00  0.00    +0.027 C 
ATOM     10  C   UNL     1      10.724   5.831   5.196  0.00  0.00    +0.055 C 
ATOM     11  C   UNL     1       9.785   5.100   6.157  0.00  0.00    +0.018 C 
ATOM     12  C   UNL     1      10.224   6.914   7.848  0.00  0.00    +0.113 C 
ATOM     13  C   UNL     1       8.292   7.072   6.192  0.00  0.00    +0.130 C 
ATOM     14  C   UNL     1      11.829   6.541   6.002  0.00  0.00    +0.117 C 
ATOM     15  C   UNL     1       9.978   6.850   4.339  0.00  0.00    +0.048 A 
ATOM     16  C   UNL     1      10.397   7.197   3.100  0.00  0.00    +0.054 A 
ATOM     17  C   UNL     1       8.113   8.455   4.192  0.00  0.00    +0.252 A 
ATOM     18  C   UNL     1      11.576   8.837   7.085  0.00  0.00    +0.247 C 
ATOM     19  C   UNL     1       9.681   8.195   2.343  0.00  0.00    +0.030 A 
ATOM     20  C   UNL     1       8.607   8.810   2.839  0.00  0.00    +0.072 A 
ENDROOT
BRANCH  18  21
ATOM      1  F   UNL     1      15.383  10.915   3.557  0.00  0.00    -0.205 F 
ATOM     21  C   UNL     1      12.575   9.381   6.159  0.00  0.00    +0.037 A 
ATOM     23  C   UNL     1      12.177   9.854   4.912  0.00  0.00    +0.016 A 
ATOM     24  C   UNL     1      13.917   9.422   6.533  0.00  0.00    +0.016 A 
ATOM     26  C   UNL     1      13.128  10.374   4.031  0.00  0.00    +0.039 A 
ATOM     27  C   UNL     1      14.866   9.941   5.652  0.00  0.00    +0.039 A 
ATOM     28  C   UNL     1      14.472  10.416   4.402  0.00  0.00    +0.123 A 
ENDBRANCH  18  21
BRANCH  16   7
ATOM      4  O   UNL     1      10.510   4.768   1.606  0.00  0.00    -0.270 OA
ATOM      7  N   UNL     1      11.507   6.670   2.500  0.00  0.00    -0.280 N 
ATOM     22  C   UNL     1      11.494   5.482   1.786  0.00  0.00    +0.248 C 
ATOM     35  H   UNL     1      12.304   7.285   2.380  0.00  0.00    +0.155 HD
BRANCH  22  25
ATOM     25  C   UNL     1      12.793   5.081   1.186  0.00  0.00    +0.037 A 
ATOM     29  C   UNL     1      13.463   3.997   1.714  0.00  0.00    +0.014 A 
ATOM     30  C   UNL     1      13.287   5.806   0.122  0.00  0.00    +0.014 A 
ATOM     31  C   UNL     1      14.683   3.622   1.151  0.00  0.00    +0.019 A 
ATOM     32  C   UNL     1      14.506   5.430  -0.441  0.00  0.00    +0.019 A 
ATOM     33  C   UNL     1      15.205   4.338   0.074  0.00  0.00    +0.052 A 
BRANCH  33  34
ATOM      8  N   UNL     1      17.471   3.640  -0.970  0.00  0.00    -0.191 NA
ATOM     34  C   UNL     1      16.455   3.953  -0.502  0.00  0.00    +0.099 C 
ENDBRANCH  33  34
ENDBRANCH  22  25
ENDBRANCH  16   7
TORSDOF 4
ENDMDL
MODEL 5
REMARK VINA RESULT:      -6.3      1.714      2.175
REMARK  Name = 9424556
REMARK  4 active torsions:
REMARK  status: ('A' for Active; 'I' for Inactive)
REMARK    1  A    between atoms: N_7  and  C_16
REMARK    2  A    between atoms: C_18  and  C_21
REMARK    3  A    between atoms: C_22  and  C_25
REMARK    4  A    between atoms: C_33  and  C_34
REMARK                            x       y       z     vdW  Elec       q    Type
REMARK                         _______ _______ _______ _____ _____    ______ ____
ROOT
ATOM      2  O   UNL     1       8.459   7.758   8.041  0.00  0.00    -0.268 OA
ATOM      3  O   UNL     1       9.429  11.826   4.959  0.00  0.00    -0.270 OA
ATOM      5  N   UNL     1      11.164  10.283   4.672  0.00  0.00    -0.297 N 
ATOM      6  N   UNL     1      10.211   7.856   6.490  0.00  0.00    -0.310 N 
ATOM      9  C   UNL     1      12.195   9.451   6.781  0.00  0.00    +0.027 C 
ATOM     10  C   UNL     1      12.081   7.983   4.811  0.00  0.00    +0.055 C 
ATOM     11  C   UNL     1      12.963   8.407   5.986  0.00  0.00    +0.018 C 
ATOM     12  C   UNL     1      11.859  10.669   5.901  0.00  0.00    +0.113 C 
ATOM     13  C   UNL     1      10.941   8.789   7.359  0.00  0.00    +0.130 C 
ATOM     14  C   UNL     1      11.809   9.203   3.909  0.00  0.00    +0.117 C 
ATOM     15  C   UNL     1      10.757   7.385   5.281  0.00  0.00    +0.048 A 
ATOM     16  C   UNL     1      10.083   6.462   4.556  0.00  0.00    +0.054 A 
ATOM     17  C   UNL     1       8.976   7.396   6.985  0.00  0.00    +0.252 A 
ATOM     18  C   UNL     1       9.972  10.923   4.325  0.00  0.00    +0.247 C 
ATOM     19  C   UNL     1       8.815   5.957   5.023  0.00  0.00    +0.030 A 
ATOM     20  C   UNL     1       8.266   6.388   6.159  0.00  0.00    +0.072 A 
ENDROOT
BRANCH  18  21
ATOM      1  F   UNL     1       7.347   9.236  -0.314  0.00  0.00    -0.205 F 
ATOM     21  C   UNL     1       9.285  10.480   3.108  0.00  0.00    +0.037 A 
ATOM     23  C   UNL     1       8.383   9.421   3.169  0.00  0.00    +0.016 A 
ATOM     24  C   UNL     1       9.537  11.121   1.897  0.00  0.00    +0.016 A 
ATOM     26  C   UNL     1       7.727   9.000   2.011  0.00  0.00    +0.039 A 
ATOM     27  C   UNL     1       8.881  10.700   0.740  0.00  0.00    +0.039 A 
ATOM     28  C   UNL     1       7.977   9.640   0.797  0.00  0.00    +0.123 A 
ENDBRANCH  18  21
BRANCH  16   7
ATOM      4  O   UNL     1      10.886   3.777   4.022  0.00  0.00    -0.270 OA
ATOM      7  N   UNL     1      10.519   5.975   3.355  0.00  0.00    -0.280 N 
ATOM     22  C   UNL     1      10.895   4.655   3.162  0.00  0.00    +0.248 C 
ATOM     35  H   UNL     1      10.340   6.541   2.534  0.00  0.00    +0.155 HD
BRANCH  22  25
ATOM     25  C   UNL     1      11.319   4.305   1.782  0.00  0.00    +0.037 A 
ATOM     29  C   UNL     1      12.506   3.625   1.603  0.00  0.00    +0.014 A 
ATOM     30  C   UNL     1      10.514   4.673   0.725  0.00  0.00    +0.014 A 
ATOM     31  C   UNL     1      12.904   3.297   0.307  0.00  0.00    +0.019 A 
ATOM     32  C   UNL     1      10.913   4.346  -0.571  0.00  0.00    +0.019 A 
ATOM     33  C   UNL     1      12.109   3.658  -0.781  0.00  0.00    +0.052 A 
BRANCH  33  34
ATOM      8  N   UNL     1      12.850   3.051  -3.187  0.00  0.00    -0.191 NA
ATOM     34  C   UNL     1      12.518   3.323  -2.108  0.00  0.00    +0.099 C 
ENDBRANCH  33  34
ENDBRANCH  22  25
ENDBRANCH  16   7
TORSDOF 4
ENDMDL
MODEL 6
REMARK VINA RESULT:      -6.3     27.536     30.681
REMARK  Name = 9424556
REMARK  4 active torsions:
REMARK  status: ('A' for Active; 'I' for Inactive)
REMARK    1  A    between atoms: N_7  and  C_16
REMARK    2  A    between atoms: C_18  and  C_21
REMARK    3  A    between atoms: C_22  and  C_25
REMARK    4  A    between atoms: C_33  and  C_34
REMARK                            x       y       z     vdW  Elec       q    Type
REMARK                         _______ _______ _______ _____ _____    ______ ____
ROOT
ATOM      2  O   UNL     1     -15.996  11.647  17.125  0.00  0.00    -0.268 OA
ATOM      3  O   UNL     1     -12.359   7.938  17.057  0.00  0.00    -0.270 OA
ATOM      5  N   UNL     1     -11.539   9.718  18.335  0.00  0.00    -0.297 N 
ATOM      6  N   UNL     1     -14.014  11.713  18.372  0.00  0.00    -0.310 N 
ATOM      9  C   UNL     1     -11.718  11.958  17.261  0.00  0.00    +0.027 C 
ATOM     10  C   UNL     1     -11.881  11.756  19.707  0.00  0.00    +0.055 C 
ATOM     11  C   UNL     1     -11.315  12.612  18.573  0.00  0.00    +0.018 C 
ATOM     12  C   UNL     1     -11.164  10.524  17.173  0.00  0.00    +0.113 C 
ATOM     13  C   UNL     1     -13.244  11.997  17.153  0.00  0.00    +0.130 C 
ATOM     14  C   UNL     1     -11.266  10.345  19.638  0.00  0.00    +0.117 C 
ATOM     15  C   UNL     1     -13.403  11.657  19.639  0.00  0.00    +0.048 A 
ATOM     16  C   UNL     1     -14.165  11.476  20.742  0.00  0.00    +0.054 A 
ATOM     17  C   UNL     1     -15.406  11.590  18.204  0.00  0.00    +0.252 A 
ATOM     18  C   UNL     1     -12.128   8.466  18.144  0.00  0.00    +0.247 C 
ATOM     19  C   UNL     1     -15.597  11.348  20.623  0.00  0.00    +0.030 A 
ATOM     20  C   UNL     1     -16.206  11.388  19.437  0.00  0.00    +0.072 A 
ENDROOT
BRANCH  18  21
ATOM      1  F   UNL     1     -13.654   5.567  22.674  0.00  0.00    -0.205 F 
ATOM     21  C   UNL     1     -12.528   7.707  19.333  0.00  0.00    +0.037 A 
ATOM     23  C   UNL     1     -13.852   7.739  19.761  0.00  0.00    +0.016 A 
ATOM     24  C   UNL     1     -11.581   6.956  20.027  0.00  0.00    +0.016 A 
ATOM     26  C   UNL     1     -14.233   7.014  20.892  0.00  0.00    +0.039 A 
ATOM     27  C   UNL     1     -11.963   6.233  21.157  0.00  0.00    +0.039 A 
ATOM     28  C   UNL     1     -13.288   6.262  21.589  0.00  0.00    +0.123 A 
ENDBRANCH  18  21
BRANCH  16   7
ATOM      4  O   UNL     1     -13.841  13.616  22.602  0.00  0.00    -0.270 OA
ATOM      7  N   UNL     1     -13.656  11.375  22.008  0.00  0.00    -0.280 N 
ATOM     22  C   UNL     1     -13.526  12.457  22.863  0.00  0.00    +0.248 C 
ATOM     35  H   UNL     1     -13.592  10.445  22.407  0.00  0.00    +0.155 HD
BRANCH  22  25
ATOM     25  C   UNL     1     -12.974  12.148  24.208  0.00  0.00    +0.037 A 
ATOM     29  C   UNL     1     -12.147  11.053  24.351  0.00  0.00    +0.014 A 
ATOM     30  C   UNL     1     -13.306  12.964  25.268  0.00  0.00    +0.014 A 
ATOM     31  C   UNL     1     -11.629  10.762  25.613  0.00  0.00    +0.019 A 
ATOM     32  C   UNL     1     -12.788  12.673  26.530  0.00  0.00    +0.019 A 
ATOM     33  C   UNL     1     -11.950  11.572  26.703  0.00  0.00    +0.052 A 
BRANCH  33  34
ATOM      8  N   UNL     1     -10.989  11.030  29.047  0.00  0.00    -0.191 NA
ATOM     34  C   UNL     1     -11.420  11.273  27.995  0.00  0.00    +0.099 C 
ENDBRANCH  33  34
ENDBRANCH  22  25
ENDBRANCH  16   7
TORSDOF 4
ENDMDL
MODEL 7
REMARK VINA RESULT:      -6.2     23.650     26.442
REMARK  Name = 9424556
REMARK  4 active torsions:
REMARK  status: ('A' for Active; 'I' for Inactive)
REMARK    1  A    between atoms: N_7  and  C_16
REMARK    2  A    between atoms: C_18  and  C_21
REMARK    3  A    between atoms: C_22  and  C_25
REMARK    4  A    between atoms: C_33  and  C_34
REMARK                            x       y       z     vdW  Elec       q    Type
REMARK                         _______ _______ _______ _____ _____    ______ ____
ROOT
ATOM      2  O   UNL     1      -1.670 -11.051  17.926  0.00  0.00    -0.268 OA
ATOM      3  O   UNL     1      -4.204 -15.415  16.690  0.00  0.00    -0.270 OA
ATOM      5  N   UNL     1      -5.444 -13.611  15.865  0.00  0.00    -0.297 N 
ATOM      6  N   UNL     1      -3.580 -11.135  16.574  0.00  0.00    -0.310 N 
ATOM      9  C   UNL     1      -5.876 -11.789  17.507  0.00  0.00    +0.027 C 
ATOM     10  C   UNL     1      -5.630 -11.253  15.119  0.00  0.00    +0.055 C 
ATOM     11  C   UNL     1      -6.418 -10.916  16.385  0.00  0.00    +0.018 C 
ATOM     12  C   UNL     1      -6.035 -13.281  17.162  0.00  0.00    +0.113 C 
ATOM     13  C   UNL     1      -4.415 -11.403  17.753  0.00  0.00    +0.130 C 
ATOM     14  C   UNL     1      -5.854 -12.734  14.756  0.00  0.00    +0.117 C 
ATOM     15  C   UNL     1      -4.137 -10.985  15.290  0.00  0.00    +0.048 A 
ATOM     16  C   UNL     1      -3.338 -10.656  14.249  0.00  0.00    +0.054 A 
ATOM     17  C   UNL     1      -2.208 -10.950  16.824  0.00  0.00    +0.252 A 
ATOM     18  C   UNL     1      -4.550 -14.679  15.767  0.00  0.00    +0.247 C 
ATOM     19  C   UNL     1      -1.925 -10.452  14.453  0.00  0.00    +0.030 A 
ATOM     20  C   UNL     1      -1.365 -10.595  15.656  0.00  0.00    +0.072 A 
ENDROOT
BRANCH  18  21
ATOM      1  F   UNL     1      -2.249 -15.724  10.780  0.00  0.00    -0.205 F 
ATOM     21  C   UNL     1      -3.947 -14.952  14.458  0.00  0.00    +0.037 A 
ATOM     23  C   UNL     1      -2.798 -14.270  14.070  0.00  0.00    +0.016 A 
ATOM     24  C   UNL     1      -4.528 -15.894  13.611  0.00  0.00    +0.016 A 
ATOM     26  C   UNL     1      -2.223 -14.531  12.825  0.00  0.00    +0.039 A 
ATOM     27  C   UNL     1      -3.953 -16.154  12.367  0.00  0.00    +0.039 A 
ATOM     28  C   UNL     1      -2.801 -15.473  11.974  0.00  0.00    +0.123 A 
ENDBRANCH  18  21
BRANCH  16   7
ATOM      4  O   UNL     1      -1.837 -11.197  11.883  0.00  0.00    -0.270 OA
ATOM      7  N   UNL     1      -3.784 -10.523  12.962  0.00  0.00    -0.280 N 
ATOM     22  C   UNL     1      -3.001 -10.804  11.854  0.00  0.00    +0.248 C 
ATOM     35  H   UNL     1      -4.785 -10.441  12.826  0.00  0.00    +0.155 HD
BRANCH  22  25
ATOM     25  C   UNL     1      -3.666 -10.623  10.538  0.00  0.00    +0.037 A 
ATOM     29  C   UNL     1      -3.835  -9.344  10.048  0.00  0.00    +0.014 A 
ATOM     30  C   UNL     1      -4.095 -11.738   9.849  0.00  0.00    +0.014 A 
ATOM     31  C   UNL     1      -4.460  -9.173   8.813  0.00  0.00    +0.019 A 
ATOM     32  C   UNL     1      -4.720 -11.567   8.614  0.00  0.00    +0.019 A 
ATOM     33  C   UNL     1      -4.903 -10.285   8.095  0.00  0.00    +0.052 A 
BRANCH  33  34
ATOM      8  N   UNL     1      -6.066  -9.967   5.802  0.00  0.00    -0.191 NA
ATOM     34  C   UNL     1      -5.544 -10.110   6.831  0.00  0.00    +0.099 C 
ENDBRANCH  33  34
ENDBRANCH  22  25
ENDBRANCH  16   7
TORSDOF 4
ENDMDL
MODEL 8
REMARK VINA RESULT:      -6.2     23.760     27.393
REMARK  Name = 9424556
REMARK  4 active torsions:
REMARK  status: ('A' for Active; 'I' for Inactive)
REMARK    1  A    between atoms: N_7  and  C_16
REMARK    2  A    between atoms: C_18  and  C_21
REMARK    3  A    between atoms: C_22  and  C_25
REMARK    4  A    between atoms: C_33  and  C_34
REMARK                            x       y       z     vdW  Elec       q    Type
REMARK                         _______ _______ _______ _____ _____    ______ ____
ROOT
ATOM      2  O   UNL     1      19.077  -0.736  30.357  0.00  0.00    -0.268 OA
ATOM      3  O   UNL     1      20.411  -0.555  25.339  0.00  0.00    -0.270 OA
ATOM      5  N   UNL     1      20.671  -2.763  26.067  0.00  0.00    -0.297 N 
ATOM      6  N   UNL     1      19.603  -2.613  29.058  0.00  0.00    -0.310 N 
ATOM      9  C   UNL     1      21.971  -3.032  28.174  0.00  0.00    +0.027 C 
ATOM     10  C   UNL     1      20.164  -4.614  27.639  0.00  0.00    +0.055 C 
ATOM     11  C   UNL     1      21.572  -4.499  28.225  0.00  0.00    +0.018 C 
ATOM     12  C   UNL     1      21.953  -2.512  26.725  0.00  0.00    +0.113 C 
ATOM     13  C   UNL     1      21.026  -2.246  29.085  0.00  0.00    +0.130 C 
ATOM     14  C   UNL     1      20.181  -4.147  26.170  0.00  0.00    +0.117 C 
ATOM     15  C   UNL     1      19.152  -3.788  28.429  0.00  0.00    +0.048 A 
ATOM     16  C   UNL     1      17.844  -4.127  28.503  0.00  0.00    +0.054 A 
ATOM     17  C   UNL     1      18.737  -1.765  29.774  0.00  0.00    +0.252 A 
ATOM     18  C   UNL     1      20.007  -1.713  25.428  0.00  0.00    +0.247 C 
ATOM     19  C   UNL     1      16.917  -3.293  29.228  0.00  0.00    +0.030 A 
ATOM     20  C   UNL     1      17.311  -2.168  29.828  0.00  0.00    +0.072 A 
ENDROOT
BRANCH  18  21
ATOM      1  F   UNL     1      15.042  -2.797  23.097  0.00  0.00    -0.205 F 
ATOM     21  C   UNL     1      18.704  -1.996  24.816  0.00  0.00    +0.037 A 
ATOM     23  C   UNL     1      18.641  -2.448  23.501  0.00  0.00    +0.016 A 
ATOM     24  C   UNL     1      17.537  -1.812  25.555  0.00  0.00    +0.016 A 
ATOM     26  C   UNL     1      17.401  -2.719  22.919  0.00  0.00    +0.039 A 
ATOM     27  C   UNL     1      16.299  -2.083  24.973  0.00  0.00    +0.039 A 
ATOM     28  C   UNL     1      16.231  -2.536  23.656  0.00  0.00    +0.123 A 
ENDBRANCH  18  21
BRANCH  16   7
ATOM      4  O   UNL     1      17.354  -6.654  29.732  0.00  0.00    -0.270 OA
ATOM      7  N   UNL     1      17.310  -5.230  27.895  0.00  0.00    -0.280 N 
ATOM     22  C   UNL     1      17.097  -6.431  28.552  0.00  0.00    +0.248 C 
ATOM     35  H   UNL     1      16.846  -5.088  27.005  0.00  0.00    +0.155 HD
BRANCH  22  25
ATOM     25  C   UNL     1      16.487  -7.510  27.732  0.00  0.00    +0.037 A 
ATOM     29  C   UNL     1      15.992  -7.197  26.483  0.00  0.00    +0.014 A 
ATOM     30  C   UNL     1      16.434  -8.788  28.246  0.00  0.00    +0.014 A 
ATOM     31  C   UNL     1      15.418  -8.209  25.713  0.00  0.00    +0.019 A 
ATOM     32  C   UNL     1      15.860  -9.800  27.477  0.00  0.00    +0.019 A 
ATOM     33  C   UNL     1      15.352  -9.511  26.210  0.00  0.00    +0.052 A 
BRANCH  33  34
ATOM      8  N   UNL     1      14.285 -11.391  24.781  0.00  0.00    -0.191 NA
ATOM     34  C   UNL     1      14.764 -10.547  25.422  0.00  0.00    +0.099 C 
ENDBRANCH  33  34
ENDBRANCH  22  25
ENDBRANCH  16   7
TORSDOF 4
ENDMDL
MODEL 9
REMARK VINA RESULT:      -6.2     26.024     28.090
REMARK  Name = 9424556
REMARK  4 active torsions:
REMARK  status: ('A' for Active; 'I' for Inactive)
REMARK    1  A    between atoms: N_7  and  C_16
REMARK    2  A    between atoms: C_18  and  C_21
REMARK    3  A    between atoms: C_22  and  C_25
REMARK    4  A    between atoms: C_33  and  C_34
REMARK                            x       y       z     vdW  Elec       q    Type
REMARK                         _______ _______ _______ _____ _____    ______ ____
ROOT
ATOM      2  O   UNL     1     -14.880  -2.858  13.352  0.00  0.00    -0.268 OA
ATOM      3  O   UNL     1     -17.957  -5.716  10.293  0.00  0.00    -0.270 OA
ATOM      5  N   UNL     1     -16.299  -4.760   8.946  0.00  0.00    -0.297 N 
ATOM      6  N   UNL     1     -14.478  -3.267  11.081  0.00  0.00    -0.310 N 
ATOM      9  C   UNL     1     -15.984  -2.308   9.242  0.00  0.00    +0.027 C 
ATOM     10  C   UNL     1     -14.065  -3.726   8.641  0.00  0.00    +0.055 C 
ATOM     11  C   UNL     1     -14.729  -2.373   8.384  0.00  0.00    +0.018 C 
ATOM     12  C   UNL     1     -16.950  -3.452   8.882  0.00  0.00    +0.113 C 
ATOM     13  C   UNL     1     -15.563  -2.345  10.713  0.00  0.00    +0.130 C 
ATOM     14  C   UNL     1     -15.025  -4.855   8.216  0.00  0.00    +0.117 C 
ATOM     15  C   UNL     1     -13.683  -3.902  10.109  0.00  0.00    +0.048 A 
ATOM     16  C   UNL     1     -12.643  -4.675  10.497  0.00  0.00    +0.054 A 
ATOM     17  C   UNL     1     -14.230  -3.402  12.459  0.00  0.00    +0.252 A 
ATOM     18  C   UNL     1     -16.892  -5.790   9.681  0.00  0.00    +0.247 C 
ATOM     19  C   UNL     1     -12.345  -4.843  11.898  0.00  0.00    +0.030 A 
ATOM     20  C   UNL     1     -13.084  -4.262  12.844  0.00  0.00    +0.072 A 
ENDROOT
BRANCH  18  21
ATOM      1  F   UNL     1     -14.213 -10.688   9.965  0.00  0.00    -0.205 F 
ATOM     21  C   UNL     1     -16.188  -7.074   9.754  0.00  0.00    +0.037 A 
ATOM     23  C   UNL     1     -15.235  -7.285  10.746  0.00  0.00    +0.016 A 
ATOM     24  C   UNL     1     -16.479  -8.078   8.832  0.00  0.00    +0.016 A 
ATOM     26  C   UNL     1     -14.566  -8.508  10.818  0.00  0.00    +0.039 A 
ATOM     27  C   UNL     1     -15.810  -9.300   8.904  0.00  0.00    +0.039 A 
ATOM     28  C   UNL     1     -14.854  -9.515   9.896  0.00  0.00    +0.123 A 
ENDBRANCH  18  21
BRANCH  16   7
ATOM      4  O   UNL     1     -10.314  -3.653   9.203  0.00  0.00    -0.270 OA
ATOM      7  N   UNL     1     -11.839  -5.358   9.625  0.00  0.00    -0.280 N 
ATOM     22  C   UNL     1     -10.718  -4.801   9.031  0.00  0.00    +0.248 C 
ATOM     35  H   UNL     1     -11.937  -6.367   9.599  0.00  0.00    +0.155 HD
BRANCH  22  25
ATOM     25  C   UNL     1      -9.955  -5.704   8.130  0.00  0.00    +0.037 A 
ATOM     29  C   UNL     1      -8.611  -5.902   8.369  0.00  0.00    +0.014 A 
ATOM     30  C   UNL     1     -10.615  -6.315   7.085  0.00  0.00    +0.014 A 
ATOM     31  C   UNL     1      -7.895  -6.749   7.524  0.00  0.00    +0.019 A 
ATOM     32  C   UNL     1      -9.899  -7.162   6.240  0.00  0.00    +0.019 A 
ATOM     33  C   UNL     1      -8.539  -7.379   6.458  0.00  0.00    +0.052 A 
BRANCH  33  34
ATOM      8  N   UNL     1      -7.208  -8.952   4.887  0.00  0.00    -0.191 NA
ATOM     34  C   UNL     1      -7.805  -8.246   5.592  0.00  0.00    +0.099 C 
ENDBRANCH  33  34
ENDBRANCH  22  25
ENDBRANCH  16   7
TORSDOF 4
ENDMDL
MODEL 10
REMARK VINA RESULT:      -6.1     27.979     31.092
REMARK  Name = 9424556
REMARK  4 active torsions:
REMARK  status: ('A' for Active; 'I' for Inactive)
REMARK    1  A    between atoms: N_7  and  C_16
REMARK    2  A    between atoms: C_18  and  C_21
REMARK    3  A    between atoms: C_22  and  C_25
REMARK    4  A    between atoms: C_33  and  C_34
REMARK                            x       y       z     vdW  Elec       q    Type
REMARK                         _______ _______ _______ _____ _____    ______ ____
ROOT
ATOM      2  O   UNL     1      -3.722 -11.374  17.473  0.00  0.00    -0.268 OA
ATOM      3  O   UNL     1      -6.996 -10.075  13.654  0.00  0.00    -0.270 OA
ATOM      5  N   UNL     1      -7.932 -11.878  14.814  0.00  0.00    -0.297 N 
ATOM      6  N   UNL     1      -5.848 -12.311  17.175  0.00  0.00    -0.310 N 
ATOM      9  C   UNL     1      -6.402 -13.811  15.172  0.00  0.00    +0.027 C 
ATOM     10  C   UNL     1      -8.138 -13.298  16.838  0.00  0.00    +0.055 C 
ATOM     11  C   UNL     1      -7.423 -14.437  16.109  0.00  0.00    +0.018 C 
ATOM     12  C   UNL     1      -7.092 -12.880  14.157  0.00  0.00    +0.113 C 
ATOM     13  C   UNL     1      -5.360 -13.075  16.018  0.00  0.00    +0.130 C 
ATOM     14  C   UNL     1      -8.873 -12.415  15.810  0.00  0.00    +0.117 C 
ATOM     15  C   UNL     1      -7.167 -12.443  17.648  0.00  0.00    +0.048 A 
ATOM     16  C   UNL     1      -7.546 -11.783  18.767  0.00  0.00    +0.054 A 
ATOM     17  C   UNL     1      -4.892 -11.513  17.830  0.00  0.00    +0.252 A 
ATOM     18  C   UNL     1      -7.781 -10.530  14.485  0.00  0.00    +0.247 C 
ATOM     19  C   UNL     1      -6.602 -10.954  19.476  0.00  0.00    +0.030 A 
ATOM     20  C   UNL     1      -5.347 -10.802  19.050  0.00  0.00    +0.072 A 
ENDROOT
BRANCH  18  21
ATOM      1  F   UNL     1     -10.956  -6.809  17.193  0.00  0.00    -0.205 F 
ATOM     21  C   UNL     1      -8.613  -9.552  15.195  0.00  0.00    +0.037 A 
ATOM     23  C   UNL     1      -9.744  -9.027  14.576  0.00  0.00    +0.016 A 
ATOM     24  C   UNL     1      -8.268  -9.156  16.485  0.00  0.00    +0.016 A 
ATOM     26  C   UNL     1     -10.537  -8.098  15.252  0.00  0.00    +0.039 A 
ATOM     27  C   UNL     1      -9.061  -8.228  17.160  0.00  0.00    +0.039 A 
ATOM     28  C   UNL     1     -10.195  -7.700  16.544  0.00  0.00    +0.123 A 
ENDBRANCH  18  21
BRANCH  16   7
ATOM      4  O   UNL     1      -8.582 -13.765  20.538  0.00  0.00    -0.270 OA
ATOM      7  N   UNL     1      -8.814 -11.823  19.279  0.00  0.00    -0.280 N 
ATOM     22  C   UNL     1      -9.254 -12.817  20.138  0.00  0.00    +0.248 C 
ATOM     35  H   UNL     1      -9.367 -10.977  19.210  0.00  0.00    +0.155 HD
BRANCH  22  25
ATOM     25  C   UNL     1     -10.657 -12.681  20.609  0.00  0.00    +0.037 A 
ATOM     29  C   UNL     1     -11.402 -11.603  20.177  0.00  0.00    +0.014 A 
ATOM     30  C   UNL     1     -11.168 -13.634  21.464  0.00  0.00    +0.014 A 
ATOM     31  C   UNL     1     -12.718 -11.474  20.619  0.00  0.00    +0.019 A 
ATOM     32  C   UNL     1     -12.484 -13.505  21.907  0.00  0.00    +0.019 A 
ATOM     33  C   UNL     1     -13.260 -12.425  21.485  0.00  0.00    +0.052 A 
BRANCH  33  34
ATOM      8  N   UNL     1     -15.705 -12.185  22.308  0.00  0.00    -0.191 NA
ATOM     34  C   UNL     1     -14.608 -12.293  21.938  0.00  0.00    +0.099 C 
ENDBRANCH  33  34
ENDBRANCH  22  25
ENDBRANCH  16   7
TORSDOF 4
ENDMDL
