MODEL 1
REMARK VINA RESULT:      -7.6      0.000      0.000
REMARK  Name = 71693178
REMARK  13 active torsions:
REMARK  status: ('A' for Active; 'I' for Inactive)
REMARK    1  A    between atoms: O_2  and  C_34
REMARK    2  A    between atoms: O_2  and  C_35
REMARK    3  A    between atoms: N_4  and  C_13
REMARK    4  A    between atoms: N_4  and  C_17
REMARK    5  A    between atoms: C_8  and  C_12
REMARK    6  A    between atoms: C_9  and  C_13
REMARK    7  A    between atoms: C_11  and  C_16
REMARK    8  A    between atoms: C_12  and  C_18
REMARK    9  A    between atoms: C_12  and  C_19
REMARK   10  A    between atoms: C_14  and  C_22
REMARK   11  A    between atoms: C_16  and  C_25
REMARK   12  A    between atoms: C_26  and  C_29
REMARK   13  A    between atoms: C_32  and  C_34
REMARK                            x       y       z     vdW  Elec       q    Type
REMARK                         _______ _______ _______ _____ _____    ______ ____
ROOT
ATOM      8  C   UNL     1     -13.674   8.600  20.683  0.00  0.00    +0.000 C 
ATOM      9  C   UNL     1     -12.356   7.964  20.180  0.00  0.00    +0.029 C 
ATOM     10  C   UNL     1     -14.756   7.525  20.859  0.00  0.00    +0.012 C 
ATOM     11  C   UNL     1     -14.338   6.386  21.815  0.00  0.00    +0.022 C 
ATOM     14  C   UNL     1     -12.883   5.975  21.648  0.00  0.00    -0.073 C 
ATOM     15  C   UNL     1     -12.017   6.686  20.904  0.00  0.00    -0.023 C 
ATOM     22  C   UNL     1     -12.415   4.758  22.400  0.00  0.00    +0.039 C 
ENDROOT
BRANCH   8  12
ATOM     12  C   UNL     1     -13.455   9.386  21.983  0.00  0.00    -0.013 C 
ATOM     18  C   UNL     1     -14.772   9.984  22.470  0.00  0.00    +0.007 C 
ATOM     19  C   UNL     1     -12.409  10.477  21.776  0.00  0.00    +0.007 C 
ENDBRANCH   8  12
BRANCH   9  13
ATOM     13  C   UNL     1     -12.399   7.693  18.673  0.00  0.00    +0.089 C 
BRANCH  13   4
ATOM      4  N   UNL     1     -11.095   7.269  18.191  0.00  0.00    -0.313 NA
ATOM     36  H   UNL     1     -11.193   6.367  17.726  0.00  0.00    +0.122 HD
BRANCH   4  17
ATOM      1  O   UNL     1     -11.042  13.048  16.090  0.00  0.00    -0.276 OA
ATOM      5  N   UNL     1     -10.731  10.759  15.835  0.00  0.00    -0.302 N 
ATOM     17  C   UNL     1     -10.535   8.246  17.260  0.00  0.00    +0.057 C 
ATOM     20  C   UNL     1     -10.330   9.591  17.969  0.00  0.00    +0.037 C 
ATOM     21  C   UNL     1     -11.466   8.414  16.051  0.00  0.00    +0.037 C 
ATOM     23  C   UNL     1      -9.836  10.654  16.989  0.00  0.00    +0.109 C 
ATOM     24  C   UNL     1     -10.949   9.502  15.109  0.00  0.00    +0.109 C 
ATOM     26  C   UNL     1     -11.268  11.996  15.484  0.00  0.00    +0.212 C 
ATOM     29  C   UNL     1     -12.183  12.021  14.285  0.00  0.00    +0.109 C 
ENDBRANCH   4  17
ENDBRANCH  13   4
ENDBRANCH   9  13
BRANCH  11  16
ATOM     16  C   UNL     1     -15.313   5.216  21.638  0.00  0.00    +0.082 C 
BRANCH  16  25
ATOM      6  N   UNL     1     -15.747   3.310  23.200  0.00  0.00    -0.342 N 
ATOM      7  N   UNL     1     -16.153   5.340  24.010  0.00  0.00    -0.232 NA
ATOM     25  C   UNL     1     -15.745   4.657  22.964  0.00  0.00    +0.109 A 
ATOM     27  C   UNL     1     -16.185   3.112  24.484  0.00  0.00    +0.067 A 
ATOM     28  C   UNL     1     -16.432   4.394  24.968  0.00  0.00    +0.089 A 
ATOM     30  C   UNL     1     -16.381   1.956  25.241  0.00  0.00    +0.042 A 
ATOM     31  C   UNL     1     -16.903   4.549  26.282  0.00  0.00    +0.030 A 
ATOM     32  C   UNL     1     -16.849   2.130  26.547  0.00  0.00    +0.061 A 
ATOM     33  C   UNL     1     -17.107   3.404  27.060  0.00  0.00    +0.017 A 
ATOM     37  H   UNL     1     -15.473   2.588  22.548  0.00  0.00    +0.167 HD
BRANCH  32  34
ATOM      3  O   UNL     1     -18.143   0.343  27.450  0.00  0.00    -0.245 OA
ATOM     34  C   UNL     1     -17.074   0.961  27.384  0.00  0.00    +0.339 C 
BRANCH  34   2
ATOM      2  O   UNL     1     -15.953   0.629  28.094  0.00  0.00    -0.464 OA
ATOM     35  C   UNL     1     -15.978   0.891  29.501  0.00  0.00    +0.280 C 
ENDBRANCH  34   2
ENDBRANCH  32  34
ENDBRANCH  16  25
ENDBRANCH  11  16
TORSDOF 8
ENDMDL
MODEL 2
REMARK VINA RESULT:      -7.4     21.104     24.373
REMARK  Name = 71693178
REMARK  13 active torsions:
REMARK  status: ('A' for Active; 'I' for Inactive)
REMARK    1  A    between atoms: O_2  and  C_34
REMARK    2  A    between atoms: O_2  and  C_35
REMARK    3  A    between atoms: N_4  and  C_13
REMARK    4  A    between atoms: N_4  and  C_17
REMARK    5  A    between atoms: C_8  and  C_12
REMARK    6  A    between atoms: C_9  and  C_13
REMARK    7  A    between atoms: C_11  and  C_16
REMARK    8  A    between atoms: C_12  and  C_18
REMARK    9  A    between atoms: C_12  and  C_19
REMARK   10  A    between atoms: C_14  and  C_22
REMARK   11  A    between atoms: C_16  and  C_25
REMARK   12  A    between atoms: C_26  and  C_29
REMARK   13  A    between atoms: C_32  and  C_34
REMARK                            x       y       z     vdW  Elec       q    Type
REMARK                         _______ _______ _______ _____ _____    ______ ____
ROOT
ATOM      8  C   UNL     1      -3.252 -12.311  13.565  0.00  0.00    +0.000 C 
ATOM      9  C   UNL     1      -2.090 -11.450  14.114  0.00  0.00    +0.029 C 
ATOM     10  C   UNL     1      -4.232 -11.442  12.764  0.00  0.00    +0.012 C 
ATOM     11  C   UNL     1      -3.564 -10.679  11.601  0.00  0.00    +0.022 C 
ATOM     14  C   UNL     1      -2.189 -10.135  11.958  0.00  0.00    -0.073 C 
ATOM     15  C   UNL     1      -1.553 -10.482  13.091  0.00  0.00    -0.023 C 
ATOM     22  C   UNL     1      -1.522  -9.224  10.963  0.00  0.00    +0.039 C 
ENDROOT
BRANCH   8  12
ATOM     12  C   UNL     1      -2.730 -13.482  12.721  0.00  0.00    -0.013 C 
ATOM     18  C   UNL     1      -3.881 -14.396  12.312  0.00  0.00    +0.007 C 
ATOM     19  C   UNL     1      -1.667 -14.260  13.489  0.00  0.00    +0.007 C 
ENDBRANCH   8  12
BRANCH   9  13
ATOM     13  C   UNL     1      -2.503 -10.677  15.370  0.00  0.00    +0.089 C 
BRANCH  13   4
ATOM      4  N   UNL     1      -3.302 -11.515  16.250  0.00  0.00    -0.313 NA
ATOM     36  H   UNL     1      -2.679 -12.015  16.884  0.00  0.00    +0.122 HD
BRANCH   4  17
ATOM      1  O   UNL     1      -8.312 -11.350  19.809  0.00  0.00    -0.276 OA
ATOM      5  N   UNL     1      -6.843 -10.410  18.273  0.00  0.00    -0.302 N 
ATOM     17  C   UNL     1      -4.252 -10.716  17.018  0.00  0.00    +0.057 C 
ATOM     20  C   UNL     1      -4.598 -11.427  18.332  0.00  0.00    +0.037 C 
ATOM     21  C   UNL     1      -5.522 -10.470  16.191  0.00  0.00    +0.037 C 
ATOM     23  C   UNL     1      -5.664 -10.654  19.107  0.00  0.00    +0.109 C 
ATOM     24  C   UNL     1      -6.571  -9.716  17.009  0.00  0.00    +0.109 C 
ATOM     26  C   UNL     1      -8.104 -10.798  18.725  0.00  0.00    +0.212 C 
ATOM     29  C   UNL     1      -9.267 -10.515  17.807  0.00  0.00    +0.109 C 
ENDBRANCH   4  17
ENDBRANCH  13   4
ENDBRANCH   9  13
BRANCH  11  16
ATOM     16  C   UNL     1      -4.528  -9.591  11.111  0.00  0.00    +0.082 C 
BRANCH  16  25
ATOM      6  N   UNL     1      -4.299 -10.747   8.904  0.00  0.00    -0.342 N 
ATOM      7  N   UNL     1      -5.895  -9.205   9.031  0.00  0.00    -0.232 NA
ATOM     25  C   UNL     1      -4.935  -9.821   9.684  0.00  0.00    +0.109 A 
ATOM     27  C   UNL     1      -4.888 -10.727   7.666  0.00  0.00    +0.067 A 
ATOM     28  C   UNL     1      -5.882  -9.757   7.771  0.00  0.00    +0.089 A 
ATOM     30  C   UNL     1      -4.645 -11.452   6.499  0.00  0.00    +0.042 A 
ATOM     31  C   UNL     1      -6.689  -9.481   6.655  0.00  0.00    +0.030 A 
ATOM     32  C   UNL     1      -5.459 -11.165   5.398  0.00  0.00    +0.061 A 
ATOM     33  C   UNL     1      -6.463 -10.196   5.473  0.00  0.00    +0.017 A 
ATOM     37  H   UNL     1      -3.532 -11.343   9.187  0.00  0.00    +0.167 HD
BRANCH  32  34
ATOM      3  O   UNL     1      -5.988 -11.798   3.161  0.00  0.00    -0.245 OA
ATOM     34  C   UNL     1      -5.253 -11.888   4.152  0.00  0.00    +0.339 C 
BRANCH  34   2
ATOM      2  O   UNL     1      -4.142 -12.684   4.212  0.00  0.00    -0.464 OA
ATOM     35  C   UNL     1      -3.200 -12.560   3.140  0.00  0.00    +0.280 C 
ENDBRANCH  34   2
ENDBRANCH  32  34
ENDBRANCH  16  25
ENDBRANCH  11  16
TORSDOF 8
ENDMDL
MODEL 3
REMARK VINA RESULT:      -7.4     20.798     24.249
REMARK  Name = 71693178
REMARK  13 active torsions:
REMARK  status: ('A' for Active; 'I' for Inactive)
REMARK    1  A    between atoms: O_2  and  C_34
REMARK    2  A    between atoms: O_2  and  C_35
REMARK    3  A    between atoms: N_4  and  C_13
REMARK    4  A    between atoms: N_4  and  C_17
REMARK    5  A    between atoms: C_8  and  C_12
REMARK    6  A    between atoms: C_9  and  C_13
REMARK    7  A    between atoms: C_11  and  C_16
REMARK    8  A    between atoms: C_12  and  C_18
REMARK    9  A    between atoms: C_12  and  C_19
REMARK   10  A    between atoms: C_14  and  C_22
REMARK   11  A    between atoms: C_16  and  C_25
REMARK   12  A    between atoms: C_26  and  C_29
REMARK   13  A    between atoms: C_32  and  C_34
REMARK                            x       y       z     vdW  Elec       q    Type
REMARK                         _______ _______ _______ _____ _____    ______ ____
ROOT
ATOM      8  C   UNL     1      -3.827 -12.134  12.431  0.00  0.00    +0.000 C 
ATOM      9  C   UNL     1      -2.958 -11.384  13.468  0.00  0.00    +0.029 C 
ATOM     10  C   UNL     1      -4.347 -11.161  11.363  0.00  0.00    +0.012 C 
ATOM     11  C   UNL     1      -3.223 -10.395  10.633  0.00  0.00    +0.022 C 
ATOM     14  C   UNL     1      -2.096  -9.968  11.560  0.00  0.00    -0.073 C 
ATOM     15  C   UNL     1      -2.002 -10.411  12.827  0.00  0.00    -0.023 C 
ATOM     22  C   UNL     1      -1.036  -9.062  10.994  0.00  0.00    +0.039 C 
ENDROOT
BRANCH   8  12
ATOM     12  C   UNL     1      -3.058 -13.299  11.793  0.00  0.00    -0.013 C 
ATOM     18  C   UNL     1      -3.983 -14.125  10.906  0.00  0.00    +0.007 C 
ATOM     19  C   UNL     1      -2.422 -14.170  12.872  0.00  0.00    +0.007 C 
ENDBRANCH   8  12
BRANCH   9  13
ATOM     13  C   UNL     1      -3.818 -10.643  14.496  0.00  0.00    +0.089 C 
BRANCH  13   4
ATOM      4  N   UNL     1      -3.486 -11.067  15.846  0.00  0.00    -0.313 NA
ATOM     36  H   UNL     1      -2.515 -10.826  16.038  0.00  0.00    +0.122 HD
BRANCH   4  17
ATOM      1  O   UNL     1      -8.017 -11.631  19.964  0.00  0.00    -0.276 OA
ATOM      5  N   UNL     1      -6.780 -10.420  18.413  0.00  0.00    -0.302 N 
ATOM     17  C   UNL     1      -4.358 -10.426  16.827  0.00  0.00    +0.057 C 
ATOM     20  C   UNL     1      -4.515 -11.327  18.059  0.00  0.00    +0.037 C 
ATOM     21  C   UNL     1      -5.727 -10.130  16.201  0.00  0.00    +0.037 C 
ATOM     23  C   UNL     1      -5.499 -10.719  19.057  0.00  0.00    +0.109 C 
ATOM     24  C   UNL     1      -6.689  -9.547  17.237  0.00  0.00    +0.109 C 
ATOM     26  C   UNL     1      -7.962 -10.926  18.952  0.00  0.00    +0.212 C 
ATOM     29  C   UNL     1      -9.239 -10.575  18.229  0.00  0.00    +0.109 C 
ENDBRANCH   4  17
ENDBRANCH  13   4
ENDBRANCH   9  13
BRANCH  11  16
ATOM     16  C   UNL     1      -3.847  -9.220   9.870  0.00  0.00    +0.082 C 
BRANCH  16  25
ATOM      6  N   UNL     1      -5.513  -8.933   8.026  0.00  0.00    -0.342 N 
ATOM      7  N   UNL     1      -4.304 -10.797   7.960  0.00  0.00    -0.232 NA
ATOM     25  C   UNL     1      -4.534  -9.682   8.617  0.00  0.00    +0.109 A 
ATOM     27  C   UNL     1      -5.943  -9.609   6.913  0.00  0.00    +0.067 A 
ATOM     28  C   UNL     1      -5.173 -10.769   6.894  0.00  0.00    +0.089 A 
ATOM     30  C   UNL     1      -6.910  -9.315   5.951  0.00  0.00    +0.042 A 
ATOM     31  C   UNL     1      -5.367 -11.702   5.861  0.00  0.00    +0.030 A 
ATOM     32  C   UNL     1      -7.089 -10.254   4.930  0.00  0.00    +0.061 A 
ATOM     33  C   UNL     1      -6.332 -11.428   4.885  0.00  0.00    +0.017 A 
ATOM     37  H   UNL     1      -5.859  -8.039   8.348  0.00  0.00    +0.167 HD
BRANCH  32  34
ATOM      3  O   UNL     1      -9.297 -10.201   4.034  0.00  0.00    -0.245 OA
ATOM     34  C   UNL     1      -8.084 -10.003   3.898  0.00  0.00    +0.339 C 
BRANCH  34   2
ATOM      2  O   UNL     1      -7.510  -9.519   2.755  0.00  0.00    -0.464 OA
ATOM     35  C   UNL     1      -7.993  -8.261   2.271  0.00  0.00    +0.280 C 
ENDBRANCH  34   2
ENDBRANCH  32  34
ENDBRANCH  16  25
ENDBRANCH  11  16
TORSDOF 8
ENDMDL
MODEL 4
REMARK VINA RESULT:      -7.2     16.236     18.203
REMARK  Name = 71693178
REMARK  13 active torsions:
REMARK  status: ('A' for Active; 'I' for Inactive)
REMARK    1  A    between atoms: O_2  and  C_34
REMARK    2  A    between atoms: O_2  and  C_35
REMARK    3  A    between atoms: N_4  and  C_13
REMARK    4  A    between atoms: N_4  and  C_17
REMARK    5  A    between atoms: C_8  and  C_12
REMARK    6  A    between atoms: C_9  and  C_13
REMARK    7  A    between atoms: C_11  and  C_16
REMARK    8  A    between atoms: C_12  and  C_18
REMARK    9  A    between atoms: C_12  and  C_19
REMARK   10  A    between atoms: C_14  and  C_22
REMARK   11  A    between atoms: C_16  and  C_25
REMARK   12  A    between atoms: C_26  and  C_29
REMARK   13  A    between atoms: C_32  and  C_34
REMARK                            x       y       z     vdW  Elec       q    Type
REMARK                         _______ _______ _______ _____ _____    ______ ____
ROOT
ATOM      8  C   UNL     1     -11.349  -8.172  14.269  0.00  0.00    +0.000 C 
ATOM      9  C   UNL     1     -12.656  -7.836  15.024  0.00  0.00    +0.029 C 
ATOM     10  C   UNL     1     -10.135  -8.002  15.194  0.00  0.00    +0.012 C 
ATOM     11  C   UNL     1     -10.220  -8.855  16.478  0.00  0.00    +0.022 C 
ATOM     14  C   UNL     1     -11.621  -8.902  17.069  0.00  0.00    -0.073 C 
ATOM     15  C   UNL     1     -12.694  -8.431  16.409  0.00  0.00    -0.023 C 
ATOM     22  C   UNL     1     -11.786  -9.556  18.414  0.00  0.00    +0.039 C 
ENDROOT
BRANCH   8  12
ATOM     12  C   UNL     1     -11.396  -9.583  13.668  0.00  0.00    -0.013 C 
ATOM     18  C   UNL     1     -10.224  -9.795  12.716  0.00  0.00    +0.007 C 
ATOM     19  C   UNL     1     -12.724  -9.812  12.953  0.00  0.00    +0.007 C 
ENDBRANCH   8  12
BRANCH   9  13
ATOM     13  C   UNL     1     -12.882  -6.324  15.120  0.00  0.00    +0.089 C 
BRANCH  13   4
ATOM      4  N   UNL     1     -14.083  -5.936  14.400  0.00  0.00    -0.313 NA
ATOM     36  H   UNL     1     -14.826  -5.750  15.073  0.00  0.00    +0.122 HD
BRANCH   4  17
ATOM      1  O   UNL     1     -13.484  -3.489   8.791  0.00  0.00    -0.276 OA
ATOM      5  N   UNL     1     -13.054  -3.541  11.074  0.00  0.00    -0.302 N 
ATOM     17  C   UNL     1     -13.847  -4.749  13.583  0.00  0.00    +0.057 C 
ATOM     20  C   UNL     1     -14.769  -4.761  12.357  0.00  0.00    +0.037 C 
ATOM     21  C   UNL     1     -12.377  -4.694  13.147  0.00  0.00    +0.037 C 
ATOM     23  C   UNL     1     -14.472  -3.577  11.439  0.00  0.00    +0.109 C 
ATOM     24  C   UNL     1     -12.126  -3.511  12.212  0.00  0.00    +0.109 C 
ATOM     26  C   UNL     1     -12.684  -3.498   9.731  0.00  0.00    +0.212 C 
ATOM     29  C   UNL     1     -11.205  -3.466   9.438  0.00  0.00    +0.109 C 
ENDBRANCH   4  17
ENDBRANCH  13   4
ENDBRANCH   9  13
BRANCH  11  16
ATOM     16  C   UNL     1      -9.169  -8.349  17.473  0.00  0.00    +0.082 C 
BRANCH  16  25
ATOM      6  N   UNL     1      -7.179  -9.149  16.185  0.00  0.00    -0.342 N 
ATOM      7  N   UNL     1      -7.304  -9.827  18.298  0.00  0.00    -0.232 NA
ATOM     25  C   UNL     1      -7.886  -9.120  17.355  0.00  0.00    +0.109 A 
ATOM     27  C   UNL     1      -6.067  -9.926  16.387  0.00  0.00    +0.067 A 
ATOM     28  C   UNL     1      -6.168 -10.337  17.713  0.00  0.00    +0.089 A 
ATOM     30  C   UNL     1      -5.014 -10.293  15.549  0.00  0.00    +0.042 A 
ATOM     31  C   UNL     1      -5.168 -11.165  18.251  0.00  0.00    +0.030 A 
ATOM     32  C   UNL     1      -4.027 -11.116  16.101  0.00  0.00    +0.061 A 
ATOM     33  C   UNL     1      -4.101 -11.546  17.429  0.00  0.00    +0.017 A 
ATOM     37  H   UNL     1      -7.427  -8.681  15.324  0.00  0.00    +0.167 HD
BRANCH  32  34
ATOM      3  O   UNL     1      -3.013 -12.097  14.179  0.00  0.00    -0.245 OA
ATOM     34  C   UNL     1      -2.904 -11.533  15.275  0.00  0.00    +0.339 C 
BRANCH  34   2
ATOM      2  O   UNL     1      -1.707 -11.225  15.861  0.00  0.00    -0.464 OA
ATOM     35  C   UNL     1      -1.135  -9.954  15.533  0.00  0.00    +0.280 C 
ENDBRANCH  34   2
ENDBRANCH  32  34
ENDBRANCH  16  25
ENDBRANCH  11  16
TORSDOF 8
ENDMDL
MODEL 5
REMARK VINA RESULT:      -7.1     19.964     23.215
REMARK  Name = 71693178
REMARK  13 active torsions:
REMARK  status: ('A' for Active; 'I' for Inactive)
REMARK    1  A    between atoms: O_2  and  C_34
REMARK    2  A    between atoms: O_2  and  C_35
REMARK    3  A    between atoms: N_4  and  C_13
REMARK    4  A    between atoms: N_4  and  C_17
REMARK    5  A    between atoms: C_8  and  C_12
REMARK    6  A    between atoms: C_9  and  C_13
REMARK    7  A    between atoms: C_11  and  C_16
REMARK    8  A    between atoms: C_12  and  C_18
REMARK    9  A    between atoms: C_12  and  C_19
REMARK   10  A    between atoms: C_14  and  C_22
REMARK   11  A    between atoms: C_16  and  C_25
REMARK   12  A    between atoms: C_26  and  C_29
REMARK   13  A    between atoms: C_32  and  C_34
REMARK                            x       y       z     vdW  Elec       q    Type
REMARK                         _______ _______ _______ _____ _____    ______ ____
ROOT
ATOM      8  C   UNL     1      -4.973 -12.529  15.467  0.00  0.00    +0.000 C 
ATOM      9  C   UNL     1      -4.901 -11.027  15.829  0.00  0.00    +0.029 C 
ATOM     10  C   UNL     1      -3.965 -12.864  14.359  0.00  0.00    +0.012 C 
ATOM     11  C   UNL     1      -2.511 -12.492  14.721  0.00  0.00    +0.022 C 
ATOM     14  C   UNL     1      -2.403 -11.171  15.468  0.00  0.00    -0.073 C 
ATOM     15  C   UNL     1      -3.484 -10.526  15.944  0.00  0.00    -0.023 C 
ATOM     22  C   UNL     1      -1.024 -10.623  15.715  0.00  0.00    +0.039 C 
ENDROOT
BRANCH   8  12
ATOM     12  C   UNL     1      -4.754 -13.413  16.703  0.00  0.00    -0.013 C 
ATOM     18  C   UNL     1      -5.204 -14.843  16.419  0.00  0.00    +0.007 C 
ATOM     19  C   UNL     1      -5.497 -12.840  17.905  0.00  0.00    +0.007 C 
ENDBRANCH   8  12
BRANCH   9  13
ATOM     13  C   UNL     1      -5.659 -10.164  14.815  0.00  0.00    +0.089 C 
BRANCH  13   4
ATOM      4  N   UNL     1      -6.732  -9.431  15.464  0.00  0.00    -0.313 NA
ATOM     36  H   UNL     1      -7.284  -8.953  14.752  0.00  0.00    +0.122 HD
BRANCH   4  17
ATOM      1  O   UNL     1     -12.280 -10.578  17.854  0.00  0.00    -0.276 OA
ATOM      5  N   UNL     1      -9.965 -10.780  17.828  0.00  0.00    -0.302 N 
ATOM     17  C   UNL     1      -7.590 -10.327  16.235  0.00  0.00    +0.057 C 
ATOM     20  C   UNL     1      -8.984 -10.400  15.599  0.00  0.00    +0.037 C 
ATOM     21  C   UNL     1      -7.688  -9.840  17.687  0.00  0.00    +0.037 C 
ATOM     23  C   UNL     1      -9.925 -11.256  16.444  0.00  0.00    +0.109 C 
ATOM     24  C   UNL     1      -8.658 -10.707  18.492  0.00  0.00    +0.109 C 
ATOM     26  C   UNL     1     -11.189 -10.476  18.422  0.00  0.00    +0.212 C 
ATOM     29  C   UNL     1     -11.145  -9.989  19.849  0.00  0.00    +0.109 C 
ENDBRANCH   4  17
ENDBRANCH  13   4
ENDBRANCH   9  13
BRANCH  11  16
ATOM     16  C   UNL     1      -1.664 -12.526  13.443  0.00  0.00    +0.082 C 
BRANCH  16  25
ATOM      6  N   UNL     1      -3.027 -12.395  11.350  0.00  0.00    -0.342 N 
ATOM      7  N   UNL     1      -2.300 -10.456  12.158  0.00  0.00    -0.232 NA
ATOM     25  C   UNL     1      -2.318 -11.759  12.331  0.00  0.00    +0.109 A 
ATOM     27  C   UNL     1      -3.498 -11.439  10.487  0.00  0.00    +0.067 A 
ATOM     28  C   UNL     1      -3.031 -10.237  11.013  0.00  0.00    +0.089 A 
ATOM     30  C   UNL     1      -4.268 -11.519   9.327  0.00  0.00    +0.042 A 
ATOM     31  C   UNL     1      -3.342  -9.035  10.355  0.00  0.00    +0.030 A 
ATOM     32  C   UNL     1      -4.569 -10.313   8.686  0.00  0.00    +0.061 A 
ATOM     33  C   UNL     1      -4.115  -9.092   9.189  0.00  0.00    +0.017 A 
ATOM     37  H   UNL     1      -3.179 -13.391  11.272  0.00  0.00    +0.167 HD
BRANCH  32  34
ATOM      3  O   UNL     1      -6.204  -9.471   7.168  0.00  0.00    -0.245 OA
ATOM     34  C   UNL     1      -5.369 -10.333   7.470  0.00  0.00    +0.339 C 
BRANCH  34   2
ATOM      2  O   UNL     1      -5.085 -11.427   6.700  0.00  0.00    -0.464 OA
ATOM     35  C   UNL     1      -5.308 -11.301   5.291  0.00  0.00    +0.280 C 
ENDBRANCH  34   2
ENDBRANCH  32  34
ENDBRANCH  16  25
ENDBRANCH  11  16
TORSDOF 8
ENDMDL
MODEL 6
REMARK VINA RESULT:      -7.1     20.482     22.977
REMARK  Name = 71693178
REMARK  13 active torsions:
REMARK  status: ('A' for Active; 'I' for Inactive)
REMARK    1  A    between atoms: O_2  and  C_34
REMARK    2  A    between atoms: O_2  and  C_35
REMARK    3  A    between atoms: N_4  and  C_13
REMARK    4  A    between atoms: N_4  and  C_17
REMARK    5  A    between atoms: C_8  and  C_12
REMARK    6  A    between atoms: C_9  and  C_13
REMARK    7  A    between atoms: C_11  and  C_16
REMARK    8  A    between atoms: C_12  and  C_18
REMARK    9  A    between atoms: C_12  and  C_19
REMARK   10  A    between atoms: C_14  and  C_22
REMARK   11  A    between atoms: C_16  and  C_25
REMARK   12  A    between atoms: C_26  and  C_29
REMARK   13  A    between atoms: C_32  and  C_34
REMARK                            x       y       z     vdW  Elec       q    Type
REMARK                         _______ _______ _______ _____ _____    ______ ____
ROOT
ATOM      8  C   UNL     1      -5.046 -12.264  15.681  0.00  0.00    +0.000 C 
ATOM      9  C   UNL     1      -4.963 -10.747  15.973  0.00  0.00    +0.029 C 
ATOM     10  C   UNL     1      -4.008 -12.665  14.623  0.00  0.00    +0.012 C 
ATOM     11  C   UNL     1      -2.561 -12.295  15.014  0.00  0.00    +0.022 C 
ATOM     14  C   UNL     1      -2.458 -10.942  15.700  0.00  0.00    -0.073 C 
ATOM     15  C   UNL     1      -3.543 -10.261  16.110  0.00  0.00    -0.023 C 
ATOM     22  C   UNL     1      -1.079 -10.400  15.965  0.00  0.00    +0.039 C 
ENDROOT
BRANCH   8  12
ATOM     12  C   UNL     1      -4.879 -13.091  16.964  0.00  0.00    -0.013 C 
ATOM     18  C   UNL     1      -5.220 -14.554  16.701  0.00  0.00    +0.007 C 
ATOM     19  C   UNL     1      -5.750 -12.524  18.080  0.00  0.00    +0.007 C 
ENDBRANCH   8  12
BRANCH   9  13
ATOM     13  C   UNL     1      -5.676  -9.925  14.896  0.00  0.00    +0.089 C 
BRANCH  13   4
ATOM      4  N   UNL     1      -7.104 -10.195  14.903  0.00  0.00    -0.313 NA
ATOM     36  H   UNL     1      -7.594  -9.373  15.252  0.00  0.00    +0.122 HD
BRANCH   4  17
ATOM      1  O   UNL     1      -8.009  -8.402   9.092  0.00  0.00    -0.276 OA
ATOM      5  N   UNL     1      -8.525  -9.691  10.955  0.00  0.00    -0.302 N 
ATOM     17  C   UNL     1      -7.583 -10.524  13.563  0.00  0.00    +0.057 C 
ATOM     20  C   UNL     1      -6.628  -9.955  12.507  0.00  0.00    +0.037 C 
ATOM     21  C   UNL     1      -9.000  -9.969  13.360  0.00  0.00    +0.037 C 
ATOM     23  C   UNL     1      -7.161 -10.205  11.097  0.00  0.00    +0.109 C 
ATOM     24  C   UNL     1      -9.486 -10.218  11.932  0.00  0.00    +0.109 C 
ATOM     26  C   UNL     1      -8.828  -8.804   9.923  0.00  0.00    +0.212 C 
ATOM     29  C   UNL     1     -10.254  -8.318   9.846  0.00  0.00    +0.109 C 
ENDBRANCH   4  17
ENDBRANCH  13   4
ENDBRANCH   9  13
BRANCH  11  16
ATOM     16  C   UNL     1      -1.675 -12.402  13.767  0.00  0.00    +0.082 C 
BRANCH  16  25
ATOM      6  N   UNL     1      -2.927 -12.461  11.603  0.00  0.00    -0.342 N 
ATOM      7  N   UNL     1      -2.361 -10.443  12.341  0.00  0.00    -0.232 NA
ATOM     25  C   UNL     1      -2.311 -11.733  12.583  0.00  0.00    +0.109 A 
ATOM     27  C   UNL     1      -3.406 -11.581  10.667  0.00  0.00    +0.067 A 
ATOM     28  C   UNL     1      -3.041 -10.328  11.150  0.00  0.00    +0.089 A 
ATOM     30  C   UNL     1      -4.107 -11.768   9.474  0.00  0.00    +0.042 A 
ATOM     31  C   UNL     1      -3.386  -9.183  10.413  0.00  0.00    +0.030 A 
ATOM     32  C   UNL     1      -4.443 -10.617   8.754  0.00  0.00    +0.061 A 
ATOM     33  C   UNL     1      -4.089  -9.346   9.214  0.00  0.00    +0.017 A 
ATOM     37  H   UNL     1      -3.017 -13.468  11.571  0.00  0.00    +0.167 HD
BRANCH  32  34
ATOM      3  O   UNL     1      -5.342 -11.816   6.900  0.00  0.00    -0.245 OA
ATOM     34  C   UNL     1      -5.173 -10.748   7.502  0.00  0.00    +0.339 C 
BRANCH  34   2
ATOM      2  O   UNL     1      -5.652  -9.542   7.071  0.00  0.00    -0.464 OA
ATOM     35  C   UNL     1      -6.694  -9.573   6.090  0.00  0.00    +0.280 C 
ENDBRANCH  34   2
ENDBRANCH  32  34
ENDBRANCH  16  25
ENDBRANCH  11  16
TORSDOF 8
ENDMDL
MODEL 7
REMARK VINA RESULT:      -7.1     19.183     21.367
REMARK  Name = 71693178
REMARK  13 active torsions:
REMARK  status: ('A' for Active; 'I' for Inactive)
REMARK    1  A    between atoms: O_2  and  C_34
REMARK    2  A    between atoms: O_2  and  C_35
REMARK    3  A    between atoms: N_4  and  C_13
REMARK    4  A    between atoms: N_4  and  C_17
REMARK    5  A    between atoms: C_8  and  C_12
REMARK    6  A    between atoms: C_9  and  C_13
REMARK    7  A    between atoms: C_11  and  C_16
REMARK    8  A    between atoms: C_12  and  C_18
REMARK    9  A    between atoms: C_12  and  C_19
REMARK   10  A    between atoms: C_14  and  C_22
REMARK   11  A    between atoms: C_16  and  C_25
REMARK   12  A    between atoms: C_26  and  C_29
REMARK   13  A    between atoms: C_32  and  C_34
REMARK                            x       y       z     vdW  Elec       q    Type
REMARK                         _______ _______ _______ _____ _____    ______ ____
ROOT
ATOM      8  C   UNL     1      -3.987 -10.411  11.710  0.00  0.00    +0.000 C 
ATOM      9  C   UNL     1      -4.829 -11.655  11.336  0.00  0.00    +0.029 C 
ATOM     10  C   UNL     1      -3.202 -10.663  13.005  0.00  0.00    +0.012 C 
ATOM     11  C   UNL     1      -2.283 -11.901  12.932  0.00  0.00    +0.022 C 
ATOM     14  C   UNL     1      -2.917 -13.070  12.192  0.00  0.00    -0.073 C 
ATOM     15  C   UNL     1      -4.061 -12.942  11.496  0.00  0.00    -0.023 C 
ATOM     22  C   UNL     1      -2.186 -14.385  12.214  0.00  0.00    +0.039 C 
ENDROOT
BRANCH   8  12
ATOM     12  C   UNL     1      -3.053 -10.003  10.563  0.00  0.00    -0.013 C 
ATOM     18  C   UNL     1      -1.852  -9.234  11.105  0.00  0.00    +0.007 C 
ATOM     19  C   UNL     1      -3.807  -9.172   9.531  0.00  0.00    +0.007 C 
ENDBRANCH   8  12
BRANCH   9  13
ATOM     13  C   UNL     1      -6.118 -11.732  12.159  0.00  0.00    +0.089 C 
BRANCH  13   4
ATOM      4  N   UNL     1      -6.443 -10.436  12.730  0.00  0.00    -0.313 NA
ATOM     36  H   UNL     1      -6.594  -9.771  11.973  0.00  0.00    +0.122 HD
BRANCH   4  17
ATOM      1  O   UNL     1     -11.036  -7.491  15.565  0.00  0.00    -0.276 OA
ATOM      5  N   UNL     1      -9.545  -9.261  15.348  0.00  0.00    -0.302 N 
ATOM     17  C   UNL     1      -7.638 -10.514  13.566  0.00  0.00    +0.057 C 
ATOM     20  C   UNL     1      -8.708  -9.546  13.046  0.00  0.00    +0.037 C 
ATOM     21  C   UNL     1      -7.283 -10.188  15.023  0.00  0.00    +0.037 C 
ATOM     23  C   UNL     1      -9.931  -9.542  13.963  0.00  0.00    +0.109 C 
ATOM     24  C   UNL     1      -8.534 -10.170  15.901  0.00  0.00    +0.109 C 
ATOM     26  C   UNL     1     -10.161  -8.221  16.042  0.00  0.00    +0.212 C 
ATOM     29  C   UNL     1      -9.707  -7.994  17.462  0.00  0.00    +0.109 C 
ENDBRANCH   4  17
ENDBRANCH  13   4
ENDBRANCH   9  13
BRANCH  11  16
ATOM     16  C   UNL     1      -1.838 -12.265  14.353  0.00  0.00    +0.082 C 
BRANCH  16  25
ATOM      6  N   UNL     1      -3.133 -11.437  16.327  0.00  0.00    -0.342 N 
ATOM      7  N   UNL     1      -4.001 -13.183  15.260  0.00  0.00    -0.232 NA
ATOM     25  C   UNL     1      -3.006 -12.325  15.295  0.00  0.00    +0.109 A 
ATOM     27  C   UNL     1      -4.287 -11.742  17.002  0.00  0.00    +0.067 A 
ATOM     28  C   UNL     1      -4.811 -12.835  16.316  0.00  0.00    +0.089 A 
ATOM     30  C   UNL     1      -4.899 -11.174  18.119  0.00  0.00    +0.042 A 
ATOM     31  C   UNL     1      -6.015 -13.407  16.759  0.00  0.00    +0.030 A 
ATOM     32  C   UNL     1      -6.098 -11.755  18.545  0.00  0.00    +0.061 A 
ATOM     33  C   UNL     1      -6.648 -12.852  17.878  0.00  0.00    +0.017 A 
ATOM     37  H   UNL     1      -2.493 -10.688  16.554  0.00  0.00    +0.167 HD
BRANCH  32  34
ATOM      3  O   UNL     1      -6.333 -10.301  20.420  0.00  0.00    -0.245 OA
ATOM     34  C   UNL     1      -6.783 -11.205  19.706  0.00  0.00    +0.339 C 
BRANCH  34   2
ATOM      2  O   UNL     1      -7.990 -11.815  19.911  0.00  0.00    -0.464 OA
ATOM     35  C   UNL     1      -9.160 -11.015  19.708  0.00  0.00    +0.280 C 
ENDBRANCH  34   2
ENDBRANCH  32  34
ENDBRANCH  16  25
ENDBRANCH  11  16
TORSDOF 8
ENDMDL
MODEL 8
REMARK VINA RESULT:      -6.9     28.502     32.061
REMARK  Name = 71693178
REMARK  13 active torsions:
REMARK  status: ('A' for Active; 'I' for Inactive)
REMARK    1  A    between atoms: O_2  and  C_34
REMARK    2  A    between atoms: O_2  and  C_35
REMARK    3  A    between atoms: N_4  and  C_13
REMARK    4  A    between atoms: N_4  and  C_17
REMARK    5  A    between atoms: C_8  and  C_12
REMARK    6  A    between atoms: C_9  and  C_13
REMARK    7  A    between atoms: C_11  and  C_16
REMARK    8  A    between atoms: C_12  and  C_18
REMARK    9  A    between atoms: C_12  and  C_19
REMARK   10  A    between atoms: C_14  and  C_22
REMARK   11  A    between atoms: C_16  and  C_25
REMARK   12  A    between atoms: C_26  and  C_29
REMARK   13  A    between atoms: C_32  and  C_34
REMARK                            x       y       z     vdW  Elec       q    Type
REMARK                         _______ _______ _______ _____ _____    ______ ____
ROOT
ATOM      8  C   UNL     1       8.767   9.060   4.081  0.00  0.00    +0.000 C 
ATOM      9  C   UNL     1       8.297   8.650   5.497  0.00  0.00    +0.029 C 
ATOM     10  C   UNL     1      10.063   8.324   3.712  0.00  0.00    +0.012 C 
ATOM     11  C   UNL     1       9.937   6.787   3.786  0.00  0.00    +0.022 C 
ATOM     14  C   UNL     1       9.111   6.315   4.973  0.00  0.00    -0.073 C 
ATOM     15  C   UNL     1       8.395   7.164   5.732  0.00  0.00    -0.023 C 
ATOM     22  C   UNL     1       9.069   4.836   5.246  0.00  0.00    +0.039 C 
ENDROOT
BRANCH   8  12
ATOM     12  C   UNL     1       7.672   8.815   3.035  0.00  0.00    -0.013 C 
ATOM     18  C   UNL     1       8.187   9.147   1.638  0.00  0.00    +0.007 C 
ATOM     19  C   UNL     1       6.429   9.636   3.363  0.00  0.00    +0.007 C 
ENDBRANCH   8  12
BRANCH   9  13
ATOM     13  C   UNL     1       9.081   9.386   6.588  0.00  0.00    +0.089 C 
BRANCH  13   4
ATOM      4  N   UNL     1       9.681   8.441   7.515  0.00  0.00    -0.313 NA
ATOM     36  H   UNL     1       9.446   7.494   7.219  0.00  0.00    +0.122 HD
BRANCH   4  17
ATOM      1  O   UNL     1      14.892   9.719   4.512  0.00  0.00    -0.276 OA
ATOM      5  N   UNL     1      13.695   8.685   6.214  0.00  0.00    -0.302 N 
ATOM     17  C   UNL     1      11.133   8.599   7.560  0.00  0.00    +0.057 C 
ATOM     20  C   UNL     1      11.558   9.807   6.716  0.00  0.00    +0.037 C 
ATOM     21  C   UNL     1      11.816   7.322   7.051  0.00  0.00    +0.037 C 
ATOM     23  C   UNL     1      13.080   9.933   6.671  0.00  0.00    +0.109 C 
ATOM     24  C   UNL     1      13.335   7.498   6.998  0.00  0.00    +0.109 C 
ATOM     26  C   UNL     1      14.578   8.701   5.135  0.00  0.00    +0.212 C 
ATOM     29  C   UNL     1      15.166   7.375   4.723  0.00  0.00    +0.109 C 
ENDBRANCH   4  17
ENDBRANCH  13   4
ENDBRANCH   9  13
BRANCH  11  16
ATOM     16  C   UNL     1      11.344   6.178   3.758  0.00  0.00    +0.082 C 
BRANCH  16  25
ATOM      6  N   UNL     1      10.646   5.375   1.494  0.00  0.00    -0.342 N 
ATOM      7  N   UNL     1      12.698   4.809   2.134  0.00  0.00    -0.232 NA
ATOM     25  C   UNL     1      11.598   5.444   2.472  0.00  0.00    +0.109 A 
ATOM     27  C   UNL     1      11.166   4.648   0.454  0.00  0.00    +0.067 A 
ATOM     28  C   UNL     1      12.448   4.306   0.878  0.00  0.00    +0.089 A 
ATOM     30  C   UNL     1      10.642   4.270  -0.782  0.00  0.00    +0.042 A 
ATOM     31  C   UNL     1      13.268   3.543   0.030  0.00  0.00    +0.030 A 
ATOM     32  C   UNL     1      11.473   3.511  -1.613  0.00  0.00    +0.061 A 
ATOM     33  C   UNL     1      12.763   3.153  -1.216  0.00  0.00    +0.017 A 
ATOM     37  H   UNL     1       9.723   5.787   1.526  0.00  0.00    +0.167 HD
BRANCH  32  34
ATOM      3  O   UNL     1      11.703   2.711  -3.848  0.00  0.00    -0.245 OA
ATOM     34  C   UNL     1      10.981   3.087  -2.916  0.00  0.00    +0.339 C 
BRANCH  34   2
ATOM      2  O   UNL     1       9.617   3.156  -2.984  0.00  0.00    -0.464 OA
ATOM     35  C   UNL     1       9.060   3.864  -4.097  0.00  0.00    +0.280 C 
ENDBRANCH  34   2
ENDBRANCH  32  34
ENDBRANCH  16  25
ENDBRANCH  11  16
TORSDOF 8
ENDMDL
MODEL 9
REMARK VINA RESULT:      -6.9      3.942      7.836
REMARK  Name = 71693178
REMARK  13 active torsions:
REMARK  status: ('A' for Active; 'I' for Inactive)
REMARK    1  A    between atoms: O_2  and  C_34
REMARK    2  A    between atoms: O_2  and  C_35
REMARK    3  A    between atoms: N_4  and  C_13
REMARK    4  A    between atoms: N_4  and  C_17
REMARK    5  A    between atoms: C_8  and  C_12
REMARK    6  A    between atoms: C_9  and  C_13
REMARK    7  A    between atoms: C_11  and  C_16
REMARK    8  A    between atoms: C_12  and  C_18
REMARK    9  A    between atoms: C_12  and  C_19
REMARK   10  A    between atoms: C_14  and  C_22
REMARK   11  A    between atoms: C_16  and  C_25
REMARK   12  A    between atoms: C_26  and  C_29
REMARK   13  A    between atoms: C_32  and  C_34
REMARK                            x       y       z     vdW  Elec       q    Type
REMARK                         _______ _______ _______ _____ _____    ______ ____
ROOT
ATOM      8  C   UNL     1     -10.080  12.408  17.574  0.00  0.00    +0.000 C 
ATOM      9  C   UNL     1     -11.526  12.833  17.924  0.00  0.00    +0.029 C 
ATOM     10  C   UNL     1     -10.040  10.930  17.160  0.00  0.00    +0.012 C 
ATOM     11  C   UNL     1     -10.972  10.601  15.975  0.00  0.00    +0.022 C 
ATOM     14  C   UNL     1     -12.305  11.330  16.047  0.00  0.00    -0.073 C 
ATOM     15  C   UNL     1     -12.537  12.316  16.932  0.00  0.00    -0.023 C 
ATOM     22  C   UNL     1     -13.360  10.950  15.042  0.00  0.00    +0.039 C 
ENDROOT
BRANCH   8  12
ATOM     12  C   UNL     1      -9.481  13.307  16.484  0.00  0.00    -0.013 C 
ATOM     18  C   UNL     1      -7.986  13.042  16.339  0.00  0.00    +0.007 C 
ATOM     19  C   UNL     1      -9.742  14.776  16.802  0.00  0.00    +0.007 C 
ENDBRANCH   8  12
BRANCH   9  13
ATOM     13  C   UNL     1     -11.924  12.379  19.331  0.00  0.00    +0.089 C 
BRANCH  13   4
ATOM      4  N   UNL     1     -13.035  11.445  19.275  0.00  0.00    -0.313 NA
ATOM     36  H   UNL     1     -12.740  10.611  18.769  0.00  0.00    +0.122 HD
BRANCH   4  17
ATOM      1  O   UNL     1     -13.257  12.812  25.266  0.00  0.00    -0.276 OA
ATOM      5  N   UNL     1     -13.253  11.309  23.494  0.00  0.00    -0.302 N 
ATOM     17  C   UNL     1     -13.481  11.076  20.617  0.00  0.00    +0.057 C 
ATOM     20  C   UNL     1     -13.981  12.318  21.365  0.00  0.00    +0.037 C 
ATOM     21  C   UNL     1     -12.333  10.411  21.388  0.00  0.00    +0.037 C 
ATOM     23  C   UNL     1     -14.362  11.971  22.804  0.00  0.00    +0.109 C 
ATOM     24  C   UNL     1     -12.746  10.103  22.828  0.00  0.00    +0.109 C 
ATOM     26  C   UNL     1     -12.790  11.815  24.707  0.00  0.00    +0.212 C 
ATOM     29  C   UNL     1     -11.644  11.078  25.353  0.00  0.00    +0.109 C 
ENDBRANCH   4  17
ENDBRANCH  13   4
ENDBRANCH   9  13
BRANCH  11  16
ATOM     16  C   UNL     1     -11.128   9.078  15.883  0.00  0.00    +0.082 C 
BRANCH  16  25
ATOM      6  N   UNL     1     -12.868   8.448  17.567  0.00  0.00    -0.342 N 
ATOM      7  N   UNL     1     -10.767   7.970  18.116  0.00  0.00    -0.232 NA
ATOM     25  C   UNL     1     -11.552   8.490  17.199  0.00  0.00    +0.109 A 
ATOM     27  C   UNL     1     -12.937   7.861  18.804  0.00  0.00    +0.067 A 
ATOM     28  C   UNL     1     -11.613   7.572  19.125  0.00  0.00    +0.089 A 
ATOM     30  C   UNL     1     -14.011   7.567  19.646  0.00  0.00    +0.042 A 
ATOM     31  C   UNL     1     -11.326   6.953  20.354  0.00  0.00    +0.030 A 
ATOM     32  C   UNL     1     -13.707   6.951  20.863  0.00  0.00    +0.061 A 
ATOM     33  C   UNL     1     -12.388   6.649  21.214  0.00  0.00    +0.017 A 
ATOM     37  H   UNL     1     -13.652   8.786  17.026  0.00  0.00    +0.167 HD
BRANCH  32  34
ATOM      3  O   UNL     1     -15.455   7.456  22.405  0.00  0.00    -0.245 OA
ATOM     34  C   UNL     1     -14.785   6.621  21.783  0.00  0.00    +0.339 C 
BRANCH  34   2
ATOM      2  O   UNL     1     -14.969   5.269  21.877  0.00  0.00    -0.464 OA
ATOM     35  C   UNL     1     -14.952   4.704  23.192  0.00  0.00    +0.280 C 
ENDBRANCH  34   2
ENDBRANCH  32  34
ENDBRANCH  16  25
ENDBRANCH  11  16
TORSDOF 8
ENDMDL
MODEL 10
REMARK VINA RESULT:      -6.8     25.662     27.692
REMARK  Name = 71693178
REMARK  13 active torsions:
REMARK  status: ('A' for Active; 'I' for Inactive)
REMARK    1  A    between atoms: O_2  and  C_34
REMARK    2  A    between atoms: O_2  and  C_35
REMARK    3  A    between atoms: N_4  and  C_13
REMARK    4  A    between atoms: N_4  and  C_17
REMARK    5  A    between atoms: C_8  and  C_12
REMARK    6  A    between atoms: C_9  and  C_13
REMARK    7  A    between atoms: C_11  and  C_16
REMARK    8  A    between atoms: C_12  and  C_18
REMARK    9  A    between atoms: C_12  and  C_19
REMARK   10  A    between atoms: C_14  and  C_22
REMARK   11  A    between atoms: C_16  and  C_25
REMARK   12  A    between atoms: C_26  and  C_29
REMARK   13  A    between atoms: C_32  and  C_34
REMARK                            x       y       z     vdW  Elec       q    Type
REMARK                         _______ _______ _______ _____ _____    ______ ____
ROOT
ATOM      8  C   UNL     1      13.973   8.569  20.153  0.00  0.00    +0.000 C 
ATOM      9  C   UNL     1      13.454   7.481  19.183  0.00  0.00    +0.029 C 
ATOM     10  C   UNL     1      12.826   9.106  21.021  0.00  0.00    +0.012 C 
ATOM     11  C   UNL     1      12.100   8.006  21.825  0.00  0.00    +0.022 C 
ATOM     14  C   UNL     1      11.913   6.719  21.036  0.00  0.00    -0.073 C 
ATOM     15  C   UNL     1      12.516   6.509  19.852  0.00  0.00    -0.023 C 
ATOM     22  C   UNL     1      11.063   5.642  21.655  0.00  0.00    +0.039 C 
ENDROOT
BRANCH   8  12
ATOM     12  C   UNL     1      15.126   8.043  21.018  0.00  0.00    -0.013 C 
ATOM     18  C   UNL     1      15.760   9.184  21.808  0.00  0.00    +0.007 C 
ATOM     19  C   UNL     1      16.165   7.341  20.151  0.00  0.00    +0.007 C 
ENDBRANCH   8  12
BRANCH   9  13
ATOM     13  C   UNL     1      12.757   8.095  17.965  0.00  0.00    +0.089 C 
BRANCH  13   4
ATOM      4  N   UNL     1      13.594   7.982  16.782  0.00  0.00    -0.313 NA
ATOM     36  H   UNL     1      13.001   7.784  15.977  0.00  0.00    +0.122 HD
BRANCH   4  17
ATOM      1  O   UNL     1      13.574  13.868  15.007  0.00  0.00    -0.276 OA
ATOM      5  N   UNL     1      14.604  11.805  15.291  0.00  0.00    -0.302 N 
ATOM     17  C   UNL     1      14.348   9.211  16.552  0.00  0.00    +0.057 C 
ATOM     20  C   UNL     1      13.541  10.423  17.035  0.00  0.00    +0.037 C 
ATOM     21  C   UNL     1      14.684   9.350  15.061  0.00  0.00    +0.037 C 
ATOM     23  C   UNL     1      14.271  11.726  16.716  0.00  0.00    +0.109 C 
ATOM     24  C   UNL     1      15.391  10.677  14.780  0.00  0.00    +0.109 C 
ATOM     26  C   UNL     1      14.207  12.914  14.546  0.00  0.00    +0.212 C 
ATOM     29  C   UNL     1      14.585  12.918  13.086  0.00  0.00    +0.109 C 
ENDBRANCH   4  17
ENDBRANCH  13   4
ENDBRANCH   9  13
BRANCH  11  16
ATOM     16  C   UNL     1      10.780   8.578  22.356  0.00  0.00    +0.082 C 
BRANCH  16  25
ATOM      6  N   UNL     1      11.247  10.215  24.189  0.00  0.00    -0.342 N 
ATOM      7  N   UNL     1      10.865  11.089  22.181  0.00  0.00    -0.232 NA
ATOM     25  C   UNL     1      10.958   9.976  22.874  0.00  0.00    +0.109 A 
ATOM     27  C   UNL     1      11.348  11.572  24.355  0.00  0.00    +0.067 A 
ATOM     28  C   UNL     1      11.106  12.096  23.088  0.00  0.00    +0.089 A 
ATOM     30  C   UNL     1      11.622  12.364  25.471  0.00  0.00    +0.042 A 
ATOM     31  C   UNL     1      11.135  13.488  22.906  0.00  0.00    +0.030 A 
ATOM     32  C   UNL     1      11.648  13.748  25.271  0.00  0.00    +0.061 A 
ATOM     33  C   UNL     1      11.408  14.302  24.012  0.00  0.00    +0.017 A 
ATOM     37  H   UNL     1      11.367   9.518  24.912  0.00  0.00    +0.167 HD
BRANCH  32  34
ATOM      3  O   UNL     1      11.142  15.474  26.836  0.00  0.00    -0.245 OA
ATOM     34  C   UNL     1      11.928  14.625  26.399  0.00  0.00    +0.339 C 
BRANCH  34   2
ATOM      2  O   UNL     1      13.173  14.395  26.917  0.00  0.00    -0.464 OA
ATOM     35  C   UNL     1      14.277  15.007  26.242  0.00  0.00    +0.280 C 
ENDBRANCH  34   2
ENDBRANCH  32  34
ENDBRANCH  16  25
ENDBRANCH  11  16
TORSDOF 8
ENDMDL
