MODEL 1
REMARK VINA RESULT:      -8.2      0.000      0.000
REMARK  Name = 26743266
REMARK  10 active torsions:
REMARK  status: ('A' for Active; 'I' for Inactive)
REMARK    1  A    between atoms: C_8  and  C_12
REMARK    2  A    between atoms: C_9  and  C_14
REMARK    3  A    between atoms: C_12  and  C_15
REMARK    4  A    between atoms: C_14  and  C_16
REMARK    5  A    between atoms: C_22  and  C_24
REMARK    6  A    between atoms: C_23  and  C_27
REMARK    7  A    between atoms: C_25  and  C_26
REMARK    8  A    between atoms: C_25  and  C_32
REMARK    9  A    between atoms: C_25  and  C_33
REMARK   10  A    between atoms: C_25  and  C_34
REMARK                            x       y       z     vdW  Elec       q    Type
REMARK                         _______ _______ _______ _____ _____    ______ ____
ROOT
ATOM      4  N   UNL     1      11.999   7.128  17.446  0.00  0.00    -0.316 NA
ATOM      8  C   UNL     1      13.490   9.306  18.766  0.00  0.00    +0.004 C 
ATOM      9  C   UNL     1      13.871   7.815  18.927  0.00  0.00    +0.012 C 
ATOM     10  C   UNL     1      12.726   9.489  17.444  0.00  0.00    +0.019 C 
ATOM     11  C   UNL     1      12.654   6.894  18.733  0.00  0.00    +0.085 C 
ATOM     13  C   UNL     1      11.557   8.515  17.305  0.00  0.00    +0.081 C 
ATOM     35  H   UNL     1      11.195   6.507  17.358  0.00  0.00    +0.122 HD
ENDROOT
BRANCH   8  12
ATOM     12  C   UNL     1      12.688   9.876  19.943  0.00  0.00    +0.100 C 
BRANCH  12  15
ATOM      1  O   UNL     1      14.576  11.289  20.168  0.00  0.00    -0.276 OA
ATOM      3  O   UNL     1      10.338  12.713  25.744  0.00  0.00    -0.276 OA
ATOM      5  N   UNL     1      12.821  11.661  21.643  0.00  0.00    -0.298 N 
ATOM      6  N   UNL     1      12.118  12.299  24.313  0.00  0.00    -0.299 N 
ATOM     15  C   UNL     1      13.451  11.004  20.588  0.00  0.00    +0.216 C 
ATOM     17  C   UNL     1      13.498  12.766  22.325  0.00  0.00    +0.126 C 
ATOM     18  C   UNL     1      11.456  11.395  22.117  0.00  0.00    +0.126 C 
ATOM     19  C   UNL     1      13.483  12.564  23.838  0.00  0.00    +0.126 C 
ATOM     20  C   UNL     1      11.442  11.192  23.630  0.00  0.00    +0.126 C 
ATOM     23  C   UNL     1      11.487  12.957  25.366  0.00  0.00    +0.213 C 
ATOM     27  C   UNL     1      12.282  14.031  26.064  0.00  0.00    +0.109 C 
ENDBRANCH  12  15
ENDBRANCH   8  12
BRANCH   9  14
ATOM     14  C   UNL     1      14.565   7.514  20.255  0.00  0.00    +0.064 C 
BRANCH  14  16
ATOM      2  O   UNL     1      17.490   5.754  19.109  0.00  0.00    -0.354 OA
ATOM      7  N   UNL     1      16.147   6.096  19.018  0.00  0.00    -0.083 NA
ATOM     16  C   UNL     1      15.932   6.932  20.038  0.00  0.00    +0.085 A 
ATOM     21  C   UNL     1      17.093   7.153  20.800  0.00  0.00    +0.076 A 
ATOM     22  C   UNL     1      18.043   6.390  20.174  0.00  0.00    +0.167 A 
BRANCH  22  24
ATOM     24  C   UNL     1      19.436   6.131  20.397  0.00  0.00    +0.020 A 
ATOM     26  C   UNL     1      22.146   5.629  20.829  0.00  0.00    -0.042 A 
ATOM     28  C   UNL     1      19.929   4.831  20.292  0.00  0.00    +0.012 A 
ATOM     29  C   UNL     1      20.298   7.180  20.718  0.00  0.00    +0.012 A 
ATOM     30  C   UNL     1      21.284   4.579  20.508  0.00  0.00    +0.005 A 
ATOM     31  C   UNL     1      21.653   6.929  20.933  0.00  0.00    +0.005 A 
BRANCH  26  25
ATOM     25  C   UNL     1      23.594   5.359  21.060  0.00  0.00    -0.013 C 
ATOM     32  C   UNL     1      24.447   6.653  20.882  0.00  0.00    +0.015 C 
ATOM     33  C   UNL     1      23.845   4.824  22.504  0.00  0.00    +0.015 C 
ATOM     34  C   UNL     1      24.241   4.300  20.106  0.00  0.00    +0.015 C 
ENDBRANCH  26  25
ENDBRANCH  22  24
ENDBRANCH  14  16
ENDBRANCH   9  14
TORSDOF 6
ENDMDL
MODEL 2
REMARK VINA RESULT:      -7.6      1.566      2.075
REMARK  Name = 26743266
REMARK  10 active torsions:
REMARK  status: ('A' for Active; 'I' for Inactive)
REMARK    1  A    between atoms: C_8  and  C_12
REMARK    2  A    between atoms: C_9  and  C_14
REMARK    3  A    between atoms: C_12  and  C_15
REMARK    4  A    between atoms: C_14  and  C_16
REMARK    5  A    between atoms: C_22  and  C_24
REMARK    6  A    between atoms: C_23  and  C_27
REMARK    7  A    between atoms: C_25  and  C_26
REMARK    8  A    between atoms: C_25  and  C_32
REMARK    9  A    between atoms: C_25  and  C_33
REMARK   10  A    between atoms: C_25  and  C_34
REMARK                            x       y       z     vdW  Elec       q    Type
REMARK                         _______ _______ _______ _____ _____    ______ ____
ROOT
ATOM      4  N   UNL     1      12.149   8.206  16.531  0.00  0.00    -0.316 NA
ATOM      8  C   UNL     1      13.962   9.972  18.047  0.00  0.00    +0.004 C 
ATOM      9  C   UNL     1      13.549   8.568  18.550  0.00  0.00    +0.012 C 
ATOM     10  C   UNL     1      13.830  10.016  16.516  0.00  0.00    +0.019 C 
ATOM     11  C   UNL     1      12.178   8.147  17.992  0.00  0.00    +0.085 C 
ATOM     13  C   UNL     1      12.458   9.546  16.035  0.00  0.00    +0.081 C 
ATOM     35  H   UNL     1      11.225   7.929  16.200  0.00  0.00    +0.122 HD
ENDROOT
BRANCH   8  12
ATOM     12  C   UNL     1      13.183  11.122  18.695  0.00  0.00    +0.100 C 
BRANCH  12  15
ATOM      1  O   UNL     1      15.179  12.255  19.280  0.00  0.00    -0.276 OA
ATOM      3  O   UNL     1      11.465  11.500  25.339  0.00  0.00    -0.276 OA
ATOM      5  N   UNL     1      13.566  12.074  20.941  0.00  0.00    -0.298 N 
ATOM      6  N   UNL     1      13.103  11.622  23.699  0.00  0.00    -0.299 N 
ATOM     15  C   UNL     1      14.070  11.869  19.658  0.00  0.00    +0.216 C 
ATOM     17  C   UNL     1      14.368  12.789  21.936  0.00  0.00    +0.126 C 
ATOM     18  C   UNL     1      12.223  11.695  21.399  0.00  0.00    +0.126 C 
ATOM     19  C   UNL     1      14.447  12.002  23.241  0.00  0.00    +0.126 C 
ATOM     20  C   UNL     1      12.301  10.906  22.703  0.00  0.00    +0.126 C 
ATOM     23  C   UNL     1      12.598  11.829  24.981  0.00  0.00    +0.213 C 
ATOM     27  C   UNL     1      13.517  12.504  25.968  0.00  0.00    +0.109 C 
ENDBRANCH  12  15
ENDBRANCH   8  12
BRANCH   9  14
ATOM     14  C   UNL     1      13.568   8.447  20.074  0.00  0.00    +0.064 C 
BRANCH  14  16
ATOM      2  O   UNL     1      16.746   8.429  21.766  0.00  0.00    -0.354 OA
ATOM      7  N   UNL     1      15.480   8.951  21.534  0.00  0.00    -0.083 NA
ATOM     16  C   UNL     1      14.954   8.174  20.583  0.00  0.00    +0.085 A 
ATOM     21  C   UNL     1      15.833   7.154  20.180  0.00  0.00    +0.076 A 
ATOM     22  C   UNL     1      16.945   7.358  20.954  0.00  0.00    +0.167 A 
BRANCH  22  24
ATOM     24  C   UNL     1      18.218   6.711  21.081  0.00  0.00    +0.020 A 
ATOM     26  C   UNL     1      20.694   5.449  21.330  0.00  0.00    -0.042 A 
ATOM     28  C   UNL     1      19.049   7.012  22.160  0.00  0.00    +0.012 A 
ATOM     29  C   UNL     1      18.626   5.778  20.127  0.00  0.00    +0.012 A 
ATOM     30  C   UNL     1      20.287   6.382  22.284  0.00  0.00    +0.005 A 
ATOM     31  C   UNL     1      19.863   5.148  20.251  0.00  0.00    +0.005 A 
BRANCH  26  25
ATOM     25  C   UNL     1      22.018   4.777  21.463  0.00  0.00    -0.013 C 
ATOM     32  C   UNL     1      21.901   3.241  21.212  0.00  0.00    +0.015 C 
ATOM     33  C   UNL     1      23.046   5.344  20.436  0.00  0.00    +0.015 C 
ATOM     34  C   UNL     1      22.706   4.919  22.861  0.00  0.00    +0.015 C 
ENDBRANCH  26  25
ENDBRANCH  22  24
ENDBRANCH  14  16
ENDBRANCH   9  14
TORSDOF 6
ENDMDL
MODEL 3
REMARK VINA RESULT:      -7.5      3.752      5.319
REMARK  Name = 26743266
REMARK  10 active torsions:
REMARK  status: ('A' for Active; 'I' for Inactive)
REMARK    1  A    between atoms: C_8  and  C_12
REMARK    2  A    between atoms: C_9  and  C_14
REMARK    3  A    between atoms: C_12  and  C_15
REMARK    4  A    between atoms: C_14  and  C_16
REMARK    5  A    between atoms: C_22  and  C_24
REMARK    6  A    between atoms: C_23  and  C_27
REMARK    7  A    between atoms: C_25  and  C_26
REMARK    8  A    between atoms: C_25  and  C_32
REMARK    9  A    between atoms: C_25  and  C_33
REMARK   10  A    between atoms: C_25  and  C_34
REMARK                            x       y       z     vdW  Elec       q    Type
REMARK                         _______ _______ _______ _____ _____    ______ ____
ROOT
ATOM      4  N   UNL     1      12.898   7.090  21.835  0.00  0.00    -0.316 NA
ATOM      8  C   UNL     1      13.840   7.674  19.100  0.00  0.00    +0.004 C 
ATOM      9  C   UNL     1      14.769   7.742  20.337  0.00  0.00    +0.012 C 
ATOM     10  C   UNL     1      12.670   6.723  19.403  0.00  0.00    +0.019 C 
ATOM     11  C   UNL     1      13.981   8.050  21.622  0.00  0.00    +0.085 C 
ATOM     13  C   UNL     1      11.962   7.067  20.712  0.00  0.00    +0.081 C 
ATOM     35  H   UNL     1      12.395   7.331  22.688  0.00  0.00    +0.122 HD
ENDROOT
BRANCH   8  12
ATOM     12  C   UNL     1      13.326   9.040  18.630  0.00  0.00    +0.100 C 
BRANCH  12  15
ATOM      1  O   UNL     1      13.321   8.260  16.394  0.00  0.00    -0.276 OA
ATOM      3  O   UNL     1      16.668  14.574  16.298  0.00  0.00    -0.276 OA
ATOM      5  N   UNL     1      14.072  10.431  16.732  0.00  0.00    -0.298 N 
ATOM      6  N   UNL     1      15.980  12.381  15.968  0.00  0.00    -0.299 N 
ATOM     15  C   UNL     1      13.569   9.201  17.152  0.00  0.00    +0.216 C 
ATOM     17  C   UNL     1      14.337  10.667  15.311  0.00  0.00    +0.126 C 
ATOM     18  C   UNL     1      14.306  11.595  17.597  0.00  0.00    +0.126 C 
ATOM     19  C   UNL     1      15.746  11.217  15.103  0.00  0.00    +0.126 C 
ATOM     20  C   UNL     1      15.714  12.145  17.390  0.00  0.00    +0.126 C 
ATOM     23  C   UNL     1      16.481  13.612  15.549  0.00  0.00    +0.213 C 
ATOM     27  C   UNL     1      16.799  13.747  14.081  0.00  0.00    +0.109 C 
ENDBRANCH  12  15
ENDBRANCH   8  12
BRANCH   9  14
ATOM     14  C   UNL     1      15.924   8.728  20.166  0.00  0.00    +0.064 C 
BRANCH  14  16
ATOM      2  O   UNL     1      18.986   8.116  21.958  0.00  0.00    -0.354 OA
ATOM      7  N   UNL     1      17.883   8.899  21.640  0.00  0.00    -0.083 NA
ATOM     16  C   UNL     1      17.198   8.183  20.743  0.00  0.00    +0.085 A 
ATOM     21  C   UNL     1      17.814   6.952  20.459  0.00  0.00    +0.076 A 
ATOM     22  C   UNL     1      18.934   6.958  21.249  0.00  0.00    +0.167 A 
BRANCH  22  24
ATOM     24  C   UNL     1      20.014   6.043  21.474  0.00  0.00    +0.020 A 
ATOM     26  C   UNL     1      22.116   4.261  21.914  0.00  0.00    -0.042 A 
ATOM     28  C   UNL     1      20.793   6.154  22.626  0.00  0.00    +0.012 A 
ATOM     29  C   UNL     1      20.287   5.041  20.543  0.00  0.00    +0.012 A 
ATOM     30  C   UNL     1      21.844   5.264  22.846  0.00  0.00    +0.005 A 
ATOM     31  C   UNL     1      21.337   4.150  20.762  0.00  0.00    +0.005 A 
BRANCH  26  25
ATOM     25  C   UNL     1      23.240   3.310  22.149  0.00  0.00    -0.013 C 
ATOM     32  C   UNL     1      24.593   4.066  22.329  0.00  0.00    +0.015 C 
ATOM     33  C   UNL     1      23.000   2.459  23.434  0.00  0.00    +0.015 C 
ATOM     34  C   UNL     1      23.492   2.272  21.004  0.00  0.00    +0.015 C 
ENDBRANCH  26  25
ENDBRANCH  22  24
ENDBRANCH  14  16
ENDBRANCH   9  14
TORSDOF 6
ENDMDL
MODEL 4
REMARK VINA RESULT:      -7.4     29.139     33.099
REMARK  Name = 26743266
REMARK  10 active torsions:
REMARK  status: ('A' for Active; 'I' for Inactive)
REMARK    1  A    between atoms: C_8  and  C_12
REMARK    2  A    between atoms: C_9  and  C_14
REMARK    3  A    between atoms: C_12  and  C_15
REMARK    4  A    between atoms: C_14  and  C_16
REMARK    5  A    between atoms: C_22  and  C_24
REMARK    6  A    between atoms: C_23  and  C_27
REMARK    7  A    between atoms: C_25  and  C_26
REMARK    8  A    between atoms: C_25  and  C_32
REMARK    9  A    between atoms: C_25  and  C_33
REMARK   10  A    between atoms: C_25  and  C_34
REMARK                            x       y       z     vdW  Elec       q    Type
REMARK                         _______ _______ _______ _____ _____    ______ ____
ROOT
ATOM      4  N   UNL     1     -14.579   1.221  32.652  0.00  0.00    -0.316 NA
ATOM      8  C   UNL     1     -15.024   3.018  30.355  0.00  0.00    +0.004 C 
ATOM      9  C   UNL     1     -15.026   3.517  31.820  0.00  0.00    +0.012 C 
ATOM     10  C   UNL     1     -14.192   1.728  30.266  0.00  0.00    +0.019 C 
ATOM     11  C   UNL     1     -15.430   2.402  32.799  0.00  0.00    +0.085 C 
ATOM     13  C   UNL     1     -14.624   0.683  31.294  0.00  0.00    +0.081 C 
ATOM     35  H   UNL     1     -14.882   0.503  33.310  0.00  0.00    +0.122 HD
ENDROOT
BRANCH   8  12
ATOM     12  C   UNL     1     -16.423   2.808  29.765  0.00  0.00    +0.100 C 
BRANCH  12  15
ATOM      1  O   UNL     1     -16.586   4.778  28.461  0.00  0.00    -0.276 OA
ATOM      3  O   UNL     1     -17.729  -0.678  23.987  0.00  0.00    -0.276 OA
ATOM      5  N   UNL     1     -16.614   2.764  27.304  0.00  0.00    -0.298 N 
ATOM      6  N   UNL     1     -17.768   1.332  25.149  0.00  0.00    -0.299 N 
ATOM     15  C   UNL     1     -16.547   3.545  28.457  0.00  0.00    +0.216 C 
ATOM     17  C   UNL     1     -16.738   3.405  25.992  0.00  0.00    +0.126 C 
ATOM     18  C   UNL     1     -16.495   1.301  27.259  0.00  0.00    +0.126 C 
ATOM     19  C   UNL     1     -17.887   2.796  25.194  0.00  0.00    +0.126 C 
ATOM     20  C   UNL     1     -17.644   0.692  26.461  0.00  0.00    +0.126 C 
ATOM     23  C   UNL     1     -17.832   0.551  23.996  0.00  0.00    +0.213 C 
ATOM     27  C   UNL     1     -18.037   1.285  22.695  0.00  0.00    +0.109 C 
ENDBRANCH  12  15
ENDBRANCH   8  12
BRANCH   9  14
ATOM     14  C   UNL     1     -15.897   4.757  32.029  0.00  0.00    +0.064 C 
BRANCH  14  16
ATOM      2  O   UNL     1     -14.467   8.054  31.812  0.00  0.00    -0.354 OA
ATOM      7  N   UNL     1     -15.447   7.117  31.510  0.00  0.00    -0.083 NA
ATOM     16  C   UNL     1     -15.062   6.000  32.135  0.00  0.00    +0.085 A 
ATOM     21  C   UNL     1     -13.859   6.172  32.840  0.00  0.00    +0.076 A 
ATOM     22  C   UNL     1     -13.527   7.480  32.605  0.00  0.00    +0.167 A 
BRANCH  22  24
ATOM     24  C   UNL     1     -12.444   8.332  33.001  0.00  0.00    +0.020 A 
ATOM     26  C   UNL     1     -10.338   9.992  33.772  0.00  0.00    -0.042 A 
ATOM     28  C   UNL     1     -11.538   8.797  32.048  0.00  0.00    +0.012 A 
ATOM     29  C   UNL     1     -12.296   8.697  34.339  0.00  0.00    +0.012 A 
ATOM     30  C   UNL     1     -10.485   9.627  32.433  0.00  0.00    +0.005 A 
ATOM     31  C   UNL     1     -11.244   9.527  34.724  0.00  0.00    +0.005 A 
BRANCH  26  25
ATOM     25  C   UNL     1      -9.211  10.878  34.183  0.00  0.00    -0.013 C 
ATOM     32  C   UNL     1      -8.154  10.097  35.023  0.00  0.00    +0.015 C 
ATOM     33  C   UNL     1      -8.479  11.475  32.940  0.00  0.00    +0.015 C 
ATOM     34  C   UNL     1      -9.612  12.111  35.060  0.00  0.00    +0.015 C 
ENDBRANCH  26  25
ENDBRANCH  22  24
ENDBRANCH  14  16
ENDBRANCH   9  14
TORSDOF 6
ENDMDL
MODEL 5
REMARK VINA RESULT:      -7.2     28.030     31.674
REMARK  Name = 26743266
REMARK  10 active torsions:
REMARK  status: ('A' for Active; 'I' for Inactive)
REMARK    1  A    between atoms: C_8  and  C_12
REMARK    2  A    between atoms: C_9  and  C_14
REMARK    3  A    between atoms: C_12  and  C_15
REMARK    4  A    between atoms: C_14  and  C_16
REMARK    5  A    between atoms: C_22  and  C_24
REMARK    6  A    between atoms: C_23  and  C_27
REMARK    7  A    between atoms: C_25  and  C_26
REMARK    8  A    between atoms: C_25  and  C_32
REMARK    9  A    between atoms: C_25  and  C_33
REMARK   10  A    between atoms: C_25  and  C_34
REMARK                            x       y       z     vdW  Elec       q    Type
REMARK                         _______ _______ _______ _____ _____    ______ ____
ROOT
ATOM      4  N   UNL     1     -13.819 -10.941  17.049  0.00  0.00    -0.316 NA
ATOM      8  C   UNL     1     -12.330  -8.782  15.698  0.00  0.00    +0.004 C 
ATOM      9  C   UNL     1     -11.747  -9.583  16.887  0.00  0.00    +0.012 C 
ATOM     10  C   UNL     1     -13.400  -9.634  14.996  0.00  0.00    +0.019 C 
ATOM     11  C   UNL     1     -12.856 -10.135  17.798  0.00  0.00    +0.085 C 
ATOM     13  C   UNL     1     -14.444 -10.179  15.969  0.00  0.00    +0.081 C 
ATOM     35  H   UNL     1     -14.542 -11.281  17.683  0.00  0.00    +0.122 HD
ENDROOT
BRANCH   8  12
ATOM     12  C   UNL     1     -12.893  -7.410  16.087  0.00  0.00    +0.100 C 
BRANCH  12  15
ATOM      1  O   UNL     1     -11.150  -5.870  15.635  0.00  0.00    -0.276 OA
ATOM      3  O   UNL     1     -16.342  -4.445  10.935  0.00  0.00    -0.276 OA
ATOM      5  N   UNL     1     -12.912  -5.915  14.122  0.00  0.00    -0.298 N 
ATOM      6  N   UNL     1     -14.615  -4.353  12.483  0.00  0.00    -0.299 N 
ATOM     15  C   UNL     1     -12.234  -6.331  15.267  0.00  0.00    +0.216 C 
ATOM     17  C   UNL     1     -12.338  -4.869  13.272  0.00  0.00    +0.126 C 
ATOM     18  C   UNL     1     -14.163  -6.495  13.616  0.00  0.00    +0.126 C 
ATOM     19  C   UNL     1     -13.363  -3.774  12.990  0.00  0.00    +0.126 C 
ATOM     20  C   UNL     1     -15.188  -5.400  13.334  0.00  0.00    +0.126 C 
ATOM     23  C   UNL     1     -15.291  -3.940  11.337  0.00  0.00    +0.213 C 
ATOM     27  C   UNL     1     -14.672  -2.805  10.561  0.00  0.00    +0.109 C 
ENDBRANCH  12  15
ENDBRANCH   8  12
BRANCH   9  14
ATOM     14  C   UNL     1     -10.727  -8.788  17.703  0.00  0.00    +0.064 C 
BRANCH  14  16
ATOM      2  O   UNL     1      -7.603 -10.538  18.077  0.00  0.00    -0.354 OA
ATOM      7  N   UNL     1      -8.880 -10.198  18.505  0.00  0.00    -0.083 NA
ATOM     16  C   UNL     1      -9.348  -9.367  17.569  0.00  0.00    +0.085 A 
ATOM     21  C   UNL     1      -8.420  -9.148  16.537  0.00  0.00    +0.076 A 
ATOM     22  C   UNL     1      -7.340  -9.906  16.904  0.00  0.00    +0.167 A 
BRANCH  22  24
ATOM     24  C   UNL     1      -6.048 -10.162  16.337  0.00  0.00    +0.020 A 
ATOM     26  C   UNL     1      -3.534 -10.662  15.234  0.00  0.00    -0.042 A 
ATOM     28  C   UNL     1      -4.953 -10.392  17.171  0.00  0.00    +0.012 A 
ATOM     29  C   UNL     1      -5.885 -10.183  14.952  0.00  0.00    +0.012 A 
ATOM     30  C   UNL     1      -3.697 -10.641  16.620  0.00  0.00    +0.005 A 
ATOM     31  C   UNL     1      -4.628 -10.433  14.400  0.00  0.00    +0.005 A 
BRANCH  26  25
ATOM     25  C   UNL     1      -2.190 -10.928  14.645  0.00  0.00    -0.013 C 
ATOM     32  C   UNL     1      -1.052 -10.397  15.570  0.00  0.00    +0.015 C 
ATOM     33  C   UNL     1      -1.956 -12.457  14.440  0.00  0.00    +0.015 C 
ATOM     34  C   UNL     1      -1.929 -10.276  13.247  0.00  0.00    +0.015 C 
ENDBRANCH  26  25
ENDBRANCH  22  24
ENDBRANCH  14  16
ENDBRANCH   9  14
TORSDOF 6
ENDMDL
MODEL 6
REMARK VINA RESULT:      -7.1     28.135     31.672
REMARK  Name = 26743266
REMARK  10 active torsions:
REMARK  status: ('A' for Active; 'I' for Inactive)
REMARK    1  A    between atoms: C_8  and  C_12
REMARK    2  A    between atoms: C_9  and  C_14
REMARK    3  A    between atoms: C_12  and  C_15
REMARK    4  A    between atoms: C_14  and  C_16
REMARK    5  A    between atoms: C_22  and  C_24
REMARK    6  A    between atoms: C_23  and  C_27
REMARK    7  A    between atoms: C_25  and  C_26
REMARK    8  A    between atoms: C_25  and  C_32
REMARK    9  A    between atoms: C_25  and  C_33
REMARK   10  A    between atoms: C_25  and  C_34
REMARK                            x       y       z     vdW  Elec       q    Type
REMARK                         _______ _______ _______ _____ _____    ______ ____
ROOT
ATOM      4  N   UNL     1     -13.025 -12.795  19.615  0.00  0.00    -0.316 NA
ATOM      8  C   UNL     1     -11.492 -10.850  18.011  0.00  0.00    +0.004 C 
ATOM      9  C   UNL     1     -10.904 -11.553  19.257  0.00  0.00    +0.012 C 
ATOM     10  C   UNL     1     -12.620 -11.719  17.429  0.00  0.00    +0.019 C 
ATOM     11  C   UNL     1     -12.006 -11.961  20.251  0.00  0.00    +0.085 C 
ATOM     13  C   UNL     1     -13.653 -12.117  18.482  0.00  0.00    +0.081 C 
ATOM     35  H   UNL     1     -13.740 -13.037  20.301  0.00  0.00    +0.122 HD
ENDROOT
BRANCH   8  12
ATOM     12  C   UNL     1     -11.985  -9.422  18.274  0.00  0.00    +0.100 C 
BRANCH  12  15
ATOM      1  O   UNL     1     -10.116  -8.174  17.526  0.00  0.00    -0.276 OA
ATOM      3  O   UNL     1     -15.685  -5.956  13.634  0.00  0.00    -0.276 OA
ATOM      5  N   UNL     1     -12.074  -7.944  16.299  0.00  0.00    -0.298 N 
ATOM      6  N   UNL     1     -13.747  -6.135  14.900  0.00  0.00    -0.299 N 
ATOM     15  C   UNL     1     -11.301  -8.460  17.337  0.00  0.00    +0.216 C 
ATOM     17  C   UNL     1     -11.484  -7.000  15.346  0.00  0.00    +0.126 C 
ATOM     18  C   UNL     1     -13.463  -8.321  16.002  0.00  0.00    +0.126 C 
ATOM     19  C   UNL     1     -12.358  -5.758  15.196  0.00  0.00    +0.126 C 
ATOM     20  C   UNL     1     -14.337  -7.079  15.853  0.00  0.00    +0.126 C 
ATOM     23  C   UNL     1     -14.519  -5.621  13.860  0.00  0.00    +0.213 C 
ATOM     27  C   UNL     1     -13.859  -4.598  12.971  0.00  0.00    +0.109 C 
ENDBRANCH  12  15
ENDBRANCH   8  12
BRANCH   9  14
ATOM     14  C   UNL     1      -9.826 -10.727  19.959  0.00  0.00    +0.064 C 
BRANCH  14  16
ATOM      2  O   UNL     1      -6.487 -11.875  19.257  0.00  0.00    -0.354 OA
ATOM      7  N   UNL     1      -7.635 -11.838  20.038  0.00  0.00    -0.083 NA
ATOM     16  C   UNL     1      -8.465 -11.012  19.394  0.00  0.00    +0.085 A 
ATOM     21  C   UNL     1      -7.900 -10.503  18.211  0.00  0.00    +0.076 A 
ATOM     22  C   UNL     1      -6.657 -11.077  18.171  0.00  0.00    +0.167 A 
BRANCH  22  24
ATOM     24  C   UNL     1      -5.547 -11.015  17.266  0.00  0.00    +0.020 A 
ATOM     26  C   UNL     1      -3.386 -10.895  15.505  0.00  0.00    -0.042 A 
ATOM     28  C   UNL     1      -4.247 -11.188  17.744  0.00  0.00    +0.012 A 
ATOM     29  C   UNL     1      -5.765 -10.782  15.908  0.00  0.00    +0.012 A 
ATOM     30  C   UNL     1      -3.167 -11.128  16.864  0.00  0.00    +0.005 A 
ATOM     31  C   UNL     1      -4.685 -10.722  15.028  0.00  0.00    +0.005 A 
BRANCH  26  25
ATOM     25  C   UNL     1      -2.230 -10.831  14.565  0.00  0.00    -0.013 C 
ATOM     32  C   UNL     1      -1.144  -9.833  15.071  0.00  0.00    +0.015 C 
ATOM     33  C   UNL     1      -1.552 -12.226  14.407  0.00  0.00    +0.015 C 
ATOM     34  C   UNL     1      -2.574 -10.368  13.110  0.00  0.00    +0.015 C 
ENDBRANCH  26  25
ENDBRANCH  22  24
ENDBRANCH  14  16
ENDBRANCH   9  14
TORSDOF 6
ENDMDL
MODEL 7
REMARK VINA RESULT:      -7.1     28.511     33.142
REMARK  Name = 26743266
REMARK  10 active torsions:
REMARK  status: ('A' for Active; 'I' for Inactive)
REMARK    1  A    between atoms: C_8  and  C_12
REMARK    2  A    between atoms: C_9  and  C_14
REMARK    3  A    between atoms: C_12  and  C_15
REMARK    4  A    between atoms: C_14  and  C_16
REMARK    5  A    between atoms: C_22  and  C_24
REMARK    6  A    between atoms: C_23  and  C_27
REMARK    7  A    between atoms: C_25  and  C_26
REMARK    8  A    between atoms: C_25  and  C_32
REMARK    9  A    between atoms: C_25  and  C_33
REMARK   10  A    between atoms: C_25  and  C_34
REMARK                            x       y       z     vdW  Elec       q    Type
REMARK                         _______ _______ _______ _____ _____    ______ ____
ROOT
ATOM      4  N   UNL     1      -3.511 -11.905  18.537  0.00  0.00    -0.316 NA
ATOM      8  C   UNL     1      -5.913 -11.024  17.067  0.00  0.00    +0.004 C 
ATOM      9  C   UNL     1      -5.987 -11.896  18.343  0.00  0.00    +0.012 C 
ATOM     10  C   UNL     1      -4.593 -10.234  17.075  0.00  0.00    +0.019 C 
ATOM     11  C   UNL     1      -4.713 -12.739  18.529  0.00  0.00    +0.085 C 
ATOM     13  C   UNL     1      -3.378 -11.131  17.305  0.00  0.00    +0.081 C 
ATOM     35  H   UNL     1      -2.690 -12.499  18.654  0.00  0.00    +0.122 HD
ENDROOT
BRANCH   8  12
ATOM     12  C   UNL     1      -6.069 -11.812  15.761  0.00  0.00    +0.100 C 
BRANCH  12  15
ATOM      1  O   UNL     1      -7.952 -10.802  14.739  0.00  0.00    -0.276 OA
ATOM      3  O   UNL     1      -2.415  -9.566  10.392  0.00  0.00    -0.276 OA
ATOM      5  N   UNL     1      -5.887 -10.370  13.766  0.00  0.00    -0.298 N 
ATOM      6  N   UNL     1      -4.485 -10.051  11.325  0.00  0.00    -0.299 N 
ATOM     15  C   UNL     1      -6.727 -10.951  14.715  0.00  0.00    +0.216 C 
ATOM     17  C   UNL     1      -6.450  -9.521  12.713  0.00  0.00    +0.126 C 
ATOM     18  C   UNL     1      -4.422 -10.467  13.754  0.00  0.00    +0.126 C 
ATOM     19  C   UNL     1      -5.951  -9.955  11.338  0.00  0.00    +0.126 C 
ATOM     20  C   UNL     1      -3.923 -10.901  12.379  0.00  0.00    +0.126 C 
ATOM     23  C   UNL     1      -3.645  -9.469  10.378  0.00  0.00    +0.213 C 
ATOM     27  C   UNL     1      -4.310  -8.673   9.284  0.00  0.00    +0.109 C 
ENDBRANCH  12  15
ENDBRANCH   8  12
BRANCH   9  14
ATOM     14  C   UNL     1      -7.230 -12.785  18.390  0.00  0.00    +0.064 C 
BRANCH  14  16
ATOM      2  O   UNL     1      -9.387 -10.690  20.370  0.00  0.00    -0.354 OA
ATOM      7  N   UNL     1      -8.133 -11.099  19.934  0.00  0.00    -0.083 NA
ATOM     16  C   UNL     1      -8.374 -12.090  19.071  0.00  0.00    +0.085 A 
ATOM     21  C   UNL     1      -9.748 -12.347  18.922  0.00  0.00    +0.076 A 
ATOM     22  C   UNL     1     -10.341 -11.439  19.759  0.00  0.00    +0.167 A 
BRANCH  22  24
ATOM     24  C   UNL     1     -11.696 -11.128  20.112  0.00  0.00    +0.020 A 
ATOM     26  C   UNL     1     -14.332 -10.524  20.798  0.00  0.00    -0.042 A 
ATOM     28  C   UNL     1     -12.284  -9.952  19.649  0.00  0.00    +0.012 A 
ATOM     29  C   UNL     1     -12.425 -12.002  20.918  0.00  0.00    +0.012 A 
ATOM     30  C   UNL     1     -13.602  -9.649  19.992  0.00  0.00    +0.005 A 
ATOM     31  C   UNL     1     -13.743 -11.700  21.261  0.00  0.00    +0.005 A 
BRANCH  26  25
ATOM     25  C   UNL     1     -15.740 -10.199  21.165  0.00  0.00    -0.013 C 
ATOM     32  C   UNL     1     -16.148 -10.884  22.505  0.00  0.00    +0.015 C 
ATOM     33  C   UNL     1     -15.938  -8.662  21.342  0.00  0.00    +0.015 C 
ATOM     34  C   UNL     1     -16.823 -10.640  20.125  0.00  0.00    +0.015 C 
ENDBRANCH  26  25
ENDBRANCH  22  24
ENDBRANCH  14  16
ENDBRANCH   9  14
TORSDOF 6
ENDMDL
MODEL 8
REMARK VINA RESULT:      -7.0     23.429     24.952
REMARK  Name = 26743266
REMARK  10 active torsions:
REMARK  status: ('A' for Active; 'I' for Inactive)
REMARK    1  A    between atoms: C_8  and  C_12
REMARK    2  A    between atoms: C_9  and  C_14
REMARK    3  A    between atoms: C_12  and  C_15
REMARK    4  A    between atoms: C_14  and  C_16
REMARK    5  A    between atoms: C_22  and  C_24
REMARK    6  A    between atoms: C_23  and  C_27
REMARK    7  A    between atoms: C_25  and  C_26
REMARK    8  A    between atoms: C_25  and  C_32
REMARK    9  A    between atoms: C_25  and  C_33
REMARK   10  A    between atoms: C_25  and  C_34
REMARK                            x       y       z     vdW  Elec       q    Type
REMARK                         _______ _______ _______ _____ _____    ______ ____
ROOT
ATOM      4  N   UNL     1       8.364  -4.295  33.791  0.00  0.00    -0.316 NA
ATOM      8  C   UNL     1       8.591  -7.211  34.180  0.00  0.00    +0.004 C 
ATOM      9  C   UNL     1       7.571  -6.575  33.206  0.00  0.00    +0.012 C 
ATOM     10  C   UNL     1       9.767  -6.241  34.380  0.00  0.00    +0.019 C 
ATOM     11  C   UNL     1       7.186  -5.149  33.639  0.00  0.00    +0.085 C 
ATOM     13  C   UNL     1       9.306  -4.837  34.769  0.00  0.00    +0.081 C 
ATOM     35  H   UNL     1       8.070  -3.364  34.086  0.00  0.00    +0.122 HD
ENDROOT
BRANCH   8  12
ATOM     12  C   UNL     1       7.991  -7.626  35.529  0.00  0.00    +0.100 C 
BRANCH  12  15
ATOM      1  O   UNL     1       8.943  -9.795  35.464  0.00  0.00    -0.276 OA
ATOM      3  O   UNL     1       1.866 -10.729  35.819  0.00  0.00    -0.276 OA
ATOM      5  N   UNL     1       6.659  -9.676  35.873  0.00  0.00    -0.298 N 
ATOM      6  N   UNL     1       4.135 -10.850  35.345  0.00  0.00    -0.299 N 
ATOM     15  C   UNL     1       7.915  -9.128  35.619  0.00  0.00    +0.216 C 
ATOM     17  C   UNL     1       6.501 -11.129  35.972  0.00  0.00    +0.126 C 
ATOM     18  C   UNL     1       5.434  -8.910  36.136  0.00  0.00    +0.126 C 
ATOM     19  C   UNL     1       5.361 -11.616  35.082  0.00  0.00    +0.126 C 
ATOM     20  C   UNL     1       4.294  -9.396  35.245  0.00  0.00    +0.126 C 
ATOM     23  C   UNL     1       2.880 -11.397  35.601  0.00  0.00    +0.213 C 
ATOM     27  C   UNL     1       2.789 -12.902  35.611  0.00  0.00    +0.109 C 
ENDBRANCH  12  15
ENDBRANCH   8  12
BRANCH   9  14
ATOM     14  C   UNL     1       6.320  -7.430  33.004  0.00  0.00    +0.064 C 
BRANCH  14  16
ATOM      2  O   UNL     1       6.920  -9.234  29.947  0.00  0.00    -0.354 OA
ATOM      7  N   UNL     1       6.791  -8.058  30.675  0.00  0.00    -0.083 NA
ATOM     16  C   UNL     1       6.525  -8.452  31.924  0.00  0.00    +0.085 A 
ATOM     21  C   UNL     1       6.475  -9.852  32.043  0.00  0.00    +0.076 A 
ATOM     22  C   UNL     1       6.730 -10.296  30.772  0.00  0.00    +0.167 A 
BRANCH  22  24
ATOM     24  C   UNL     1       6.834 -11.587  30.157  0.00  0.00    +0.020 A 
ATOM     26  C   UNL     1       7.036 -14.099  28.960  0.00  0.00    -0.042 A 
ATOM     28  C   UNL     1       7.762 -11.801  29.137  0.00  0.00    +0.012 A 
ATOM     29  C   UNL     1       6.007 -12.629  30.576  0.00  0.00    +0.012 A 
ATOM     30  C   UNL     1       7.863 -13.057  28.539  0.00  0.00    +0.005 A 
ATOM     31  C   UNL     1       6.109 -13.885  29.978  0.00  0.00    +0.005 A 
BRANCH  26  25
ATOM     25  C   UNL     1       7.144 -15.441  28.319  0.00  0.00    -0.013 C 
ATOM     32  C   UNL     1       6.193 -16.473  29.001  0.00  0.00    +0.015 C 
ATOM     33  C   UNL     1       6.764 -15.377  26.807  0.00  0.00    +0.015 C 
ATOM     34  C   UNL     1       8.566 -16.094  28.363  0.00  0.00    +0.015 C 
ENDBRANCH  26  25
ENDBRANCH  22  24
ENDBRANCH  14  16
ENDBRANCH   9  14
TORSDOF 6
ENDMDL
MODEL 9
REMARK VINA RESULT:      -7.0     14.809     17.906
REMARK  Name = 26743266
REMARK  10 active torsions:
REMARK  status: ('A' for Active; 'I' for Inactive)
REMARK    1  A    between atoms: C_8  and  C_12
REMARK    2  A    between atoms: C_9  and  C_14
REMARK    3  A    between atoms: C_12  and  C_15
REMARK    4  A    between atoms: C_14  and  C_16
REMARK    5  A    between atoms: C_22  and  C_24
REMARK    6  A    between atoms: C_23  and  C_27
REMARK    7  A    between atoms: C_25  and  C_26
REMARK    8  A    between atoms: C_25  and  C_32
REMARK    9  A    between atoms: C_25  and  C_33
REMARK   10  A    between atoms: C_25  and  C_34
REMARK                            x       y       z     vdW  Elec       q    Type
REMARK                         _______ _______ _______ _____ _____    ______ ____
ROOT
ATOM      4  N   UNL     1       9.489   8.889   7.936  0.00  0.00    -0.316 NA
ATOM      8  C   UNL     1      10.678   6.688   6.371  0.00  0.00    +0.004 C 
ATOM      9  C   UNL     1      11.273   8.117   6.390  0.00  0.00    +0.012 C 
ATOM     10  C   UNL     1       9.869   6.465   7.660  0.00  0.00    +0.019 C 
ATOM     11  C   UNL     1      10.197   9.176   6.688  0.00  0.00    +0.085 C 
ATOM     13  C   UNL     1       8.850   7.575   7.910  0.00  0.00    +0.081 C 
ATOM     35  H   UNL     1       8.781   9.606   8.095  0.00  0.00    +0.122 HD
ENDROOT
BRANCH   8  12
ATOM     12  C   UNL     1       9.827   6.383   5.133  0.00  0.00    +0.100 C 
BRANCH  12  15
ATOM      1  O   UNL     1      10.093   4.031   5.235  0.00  0.00    -0.276 OA
ATOM      3  O   UNL     1      13.203   6.130  -0.848  0.00  0.00    -0.276 OA
ATOM      5  N   UNL     1      10.725   5.060   3.251  0.00  0.00    -0.298 N 
ATOM      6  N   UNL     1      12.634   5.110   1.158  0.00  0.00    -0.299 N 
ATOM     15  C   UNL     1      10.223   5.050   4.552  0.00  0.00    +0.216 C 
ATOM     17  C   UNL     1      11.135   3.806   2.615  0.00  0.00    +0.126 C 
ATOM     18  C   UNL     1      10.822   6.243   2.385  0.00  0.00    +0.126 C 
ATOM     19  C   UNL     1      12.537   3.927   2.024  0.00  0.00    +0.126 C 
ATOM     20  C   UNL     1      12.224   6.364   1.795  0.00  0.00    +0.126 C 
ATOM     23  C   UNL     1      13.133   5.120  -0.143  0.00  0.00    +0.213 C 
ATOM     27  C   UNL     1      13.604   3.799  -0.695  0.00  0.00    +0.109 C 
ENDBRANCH  12  15
ENDBRANCH   8  12
BRANCH   9  14
ATOM     14  C   UNL     1      12.031   8.468   5.110  0.00  0.00    +0.064 C 
BRANCH  14  16
ATOM      2  O   UNL     1      15.280   9.369   6.372  0.00  0.00    -0.354 OA
ATOM      7  N   UNL     1      13.892   9.398   6.419  0.00  0.00    -0.083 NA
ATOM     16  C   UNL     1      13.495   8.661   5.377  0.00  0.00    +0.085 A 
ATOM     21  C   UNL     1      14.579   8.147   4.644  0.00  0.00    +0.076 A 
ATOM     22  C   UNL     1      15.678   8.621   5.311  0.00  0.00    +0.167 A 
BRANCH  22  24
ATOM     24  C   UNL     1      17.095   8.500   5.132  0.00  0.00    +0.020 A 
ATOM     26  C   UNL     1      19.854   8.264   4.786  0.00  0.00    -0.042 A 
ATOM     28  C   UNL     1      17.958   8.791   6.189  0.00  0.00    +0.012 A 
ATOM     29  C   UNL     1      17.612   8.092   3.903  0.00  0.00    +0.012 A 
ATOM     30  C   UNL     1      19.337   8.674   6.016  0.00  0.00    +0.005 A 
ATOM     31  C   UNL     1      18.991   7.973   3.730  0.00  0.00    +0.005 A 
BRANCH  26  25
ATOM     25  C   UNL     1      21.328   8.139   4.602  0.00  0.00    -0.013 C 
ATOM     32  C   UNL     1      21.758   6.645   4.470  0.00  0.00    +0.015 C 
ATOM     33  C   UNL     1      21.801   8.881   3.314  0.00  0.00    +0.015 C 
ATOM     34  C   UNL     1      22.202   8.722   5.762  0.00  0.00    +0.015 C 
ENDBRANCH  26  25
ENDBRANCH  22  24
ENDBRANCH  14  16
ENDBRANCH   9  14
TORSDOF 6
ENDMDL
MODEL 10
REMARK VINA RESULT:      -6.9      3.349      6.116
REMARK  Name = 26743266
REMARK  10 active torsions:
REMARK  status: ('A' for Active; 'I' for Inactive)
REMARK    1  A    between atoms: C_8  and  C_12
REMARK    2  A    between atoms: C_9  and  C_14
REMARK    3  A    between atoms: C_12  and  C_15
REMARK    4  A    between atoms: C_14  and  C_16
REMARK    5  A    between atoms: C_22  and  C_24
REMARK    6  A    between atoms: C_23  and  C_27
REMARK    7  A    between atoms: C_25  and  C_26
REMARK    8  A    between atoms: C_25  and  C_32
REMARK    9  A    between atoms: C_25  and  C_33
REMARK   10  A    between atoms: C_25  and  C_34
REMARK                            x       y       z     vdW  Elec       q    Type
REMARK                         _______ _______ _______ _____ _____    ______ ____
ROOT
ATOM      4  N   UNL     1      19.771  11.508  21.707  0.00  0.00    -0.316 NA
ATOM      8  C   UNL     1      17.224  10.023  21.816  0.00  0.00    +0.004 C 
ATOM      9  C   UNL     1      18.601   9.319  21.791  0.00  0.00    +0.012 C 
ATOM     10  C   UNL     1      17.396  11.443  22.381  0.00  0.00    +0.019 C 
ATOM     11  C   UNL     1      19.668  10.183  21.096  0.00  0.00    +0.085 C 
ATOM     13  C   UNL     1      18.499  12.225  21.669  0.00  0.00    +0.081 C 
ATOM     35  H   UNL     1      20.480  12.052  21.215  0.00  0.00    +0.122 HD
ENDROOT
BRANCH   8  12
ATOM     12  C   UNL     1      16.516  10.060  20.456  0.00  0.00    +0.100 C 
BRANCH  12  15
ATOM      1  O   UNL     1      14.688   9.209  21.699  0.00  0.00    -0.276 OA
ATOM      3  O   UNL     1      12.411   9.809  14.950  0.00  0.00    -0.276 OA
ATOM      5  N   UNL     1      14.253   9.818  19.500  0.00  0.00    -0.298 N 
ATOM      6  N   UNL     1      12.861   9.140  17.127  0.00  0.00    -0.299 N 
ATOM     15  C   UNL     1      15.073   9.657  20.615  0.00  0.00    +0.216 C 
ATOM     17  C   UNL     1      12.838   9.447  19.572  0.00  0.00    +0.126 C 
ATOM     18  C   UNL     1      14.663  10.416  18.222  0.00  0.00    +0.126 C 
ATOM     19  C   UNL     1      12.451   8.542  18.406  0.00  0.00    +0.126 C 
ATOM     20  C   UNL     1      14.277   9.511  17.056  0.00  0.00    +0.126 C 
ATOM     23  C   UNL     1      12.041   9.303  16.013  0.00  0.00    +0.213 C 
ATOM     27  C   UNL     1      10.617   8.825  16.146  0.00  0.00    +0.109 C 
ENDBRANCH  12  15
ENDBRANCH   8  12
BRANCH   9  14
ATOM     14  C   UNL     1      18.550   7.924  21.168  0.00  0.00    +0.064 C 
BRANCH  14  16
ATOM      2  O   UNL     1      20.692   6.077  23.396  0.00  0.00    -0.354 OA
ATOM      7  N   UNL     1      19.730   7.046  23.137  0.00  0.00    -0.083 NA
ATOM     16  C   UNL     1      19.539   6.999  21.815  0.00  0.00    +0.085 A 
ATOM     21  C   UNL     1      20.344   6.029  21.194  0.00  0.00    +0.076 A 
ATOM     22  C   UNL     1      21.050   5.478  22.231  0.00  0.00    +0.167 A 
BRANCH  22  24
ATOM     24  C   UNL     1      22.042   4.448  22.342  0.00  0.00    +0.020 A 
ATOM     26  C   UNL     1      23.973   2.446  22.556  0.00  0.00    -0.042 A 
ATOM     28  C   UNL     1      22.273   3.585  21.270  0.00  0.00    +0.012 A 
ATOM     29  C   UNL     1      22.776   4.309  23.519  0.00  0.00    +0.012 A 
ATOM     30  C   UNL     1      23.238   2.584  21.377  0.00  0.00    +0.005 A 
ATOM     31  C   UNL     1      23.742   3.309  23.626  0.00  0.00    +0.005 A 
BRANCH  26  25
ATOM     25  C   UNL     1      25.004   1.375  22.669  0.00  0.00    -0.013 C 
ATOM     32  C   UNL     1      24.857   0.324  21.527  0.00  0.00    +0.015 C 
ATOM     33  C   UNL     1      26.445   1.967  22.583  0.00  0.00    +0.015 C 
ATOM     34  C   UNL     1      24.972   0.551  24.000  0.00  0.00    +0.015 C 
ENDBRANCH  26  25
ENDBRANCH  22  24
ENDBRANCH  14  16
ENDBRANCH   9  14
TORSDOF 6
ENDMDL
