MODEL 1
REMARK VINA RESULT:      -7.2      0.000      0.000
REMARK  Name = 45783456
REMARK  10 active torsions:
REMARK  status: ('A' for Active; 'I' for Inactive)
REMARK    1  A    between atoms: O_5  and  C_27
REMARK    2  A    between atoms: O_5  and  C_30
REMARK    3  A    between atoms: O_6  and  C_31
REMARK    4  A    between atoms: O_6  and  C_32
REMARK    5  A    between atoms: N_7  and  C_15
REMARK    6  A    between atoms: C_11  and  C_16
REMARK    7  A    between atoms: C_15  and  C_17
REMARK    8  A    between atoms: C_20  and  C_24
REMARK    9  A    between atoms: C_23  and  C_25
REMARK   10  A    between atoms: C_30  and  C_31
REMARK                            x       y       z     vdW  Elec       q    Type
REMARK                         _______ _______ _______ _____ _____    ______ ____
ROOT
ATOM      7  N   UNL     1      12.632   8.728  18.464  0.00  0.00    -0.287 NA
ATOM     11  C   UNL     1      13.498   7.589  18.103  0.00  0.00    +0.146 C 
ATOM     12  C   UNL     1      14.116   7.980  16.748  0.00  0.00    +0.030 C 
ATOM     13  C   UNL     1      13.493   9.326  16.402  0.00  0.00    +0.017 C 
ATOM     14  C   UNL     1      12.208   9.341  17.205  0.00  0.00    +0.085 C 
ENDROOT
BRANCH  11  16
ATOM      4  O   UNL     1      14.115   6.624  20.262  0.00  0.00    -0.336 OA
ATOM      8  N   UNL     1      15.817   7.590  19.172  0.00  0.00    -0.189 NA
ATOM      9  N   UNL     1      15.241   6.470  21.082  0.00  0.00    -0.054 NA
ATOM     16  C   UNL     1      14.542   7.293  19.159  0.00  0.00    +0.245 A 
ATOM     20  C   UNL     1      16.203   7.065  20.371  0.00  0.00    +0.221 A 
BRANCH  20  24
ATOM     10  N   UNL     1      17.855   8.228  21.589  0.00  0.00    -0.252 NA
ATOM     24  C   UNL     1      17.560   7.150  20.828  0.00  0.00    +0.115 A 
ATOM     26  C   UNL     1      18.476   6.169  20.486  0.00  0.00    +0.077 A 
ATOM     27  C   UNL     1      19.778   6.302  20.955  0.00  0.00    +0.124 A 
ATOM     28  C   UNL     1      19.130   8.324  22.027  0.00  0.00    +0.115 A 
ATOM     29  C   UNL     1      20.119   7.397  21.741  0.00  0.00    +0.065 A 
BRANCH  27   5
ATOM      5  O   UNL     1      20.715   5.364  20.647  0.00  0.00    -0.490 OA
BRANCH   5  30
ATOM     30  C   UNL     1      21.516   4.871  21.720  0.00  0.00    +0.257 C 
BRANCH  30  31
ATOM     31  C   UNL     1      21.893   3.430  21.434  0.00  0.00    +0.200 C 
BRANCH  31   6
ATOM      6  O   UNL     1      23.233   3.385  20.960  0.00  0.00    -0.380 OA
ATOM     32  C   UNL     1      23.697   2.048  20.837  0.00  0.00    +0.194 C 
ENDBRANCH  31   6
ENDBRANCH  30  31
ENDBRANCH   5  30
ENDBRANCH  27   5
ENDBRANCH  20  24
ENDBRANCH  11  16
BRANCH   7  15
ATOM     15  C   UNL     1      11.497   8.347  19.297  0.00  0.00    +0.120 C 
BRANCH  15  17
ATOM     17  C   UNL     1      11.419   9.178  20.550  0.00  0.00    -0.033 A 
ATOM     18  C   UNL     1      10.665   8.732  21.635  0.00  0.00    +0.005 A 
ATOM     19  C   UNL     1      12.099  10.393  20.625  0.00  0.00    +0.005 A 
ATOM     21  C   UNL     1      10.592   9.502  22.797  0.00  0.00    +0.012 A 
ATOM     22  C   UNL     1      12.026  11.163  21.786  0.00  0.00    +0.012 A 
ATOM     23  C   UNL     1      11.272  10.718  22.872  0.00  0.00    +0.055 A 
BRANCH  23  25
ATOM      1  F   UNL     1      12.283  12.344  24.305  0.00  0.00    -0.166 F 
ATOM      2  F   UNL     1      11.103  10.776  25.243  0.00  0.00    -0.166 F 
ATOM      3  F   UNL     1      10.120  12.378  24.150  0.00  0.00    -0.166 F 
ATOM     25  C   UNL     1      11.197  11.539  24.114  0.00  0.00    +0.417 C 
ENDBRANCH  23  25
ENDBRANCH  15  17
ENDBRANCH   7  15
TORSDOF 9
ENDMDL
MODEL 2
REMARK VINA RESULT:      -7.1      5.531     10.530
REMARK  Name = 45783456
REMARK  10 active torsions:
REMARK  status: ('A' for Active; 'I' for Inactive)
REMARK    1  A    between atoms: O_5  and  C_27
REMARK    2  A    between atoms: O_5  and  C_30
REMARK    3  A    between atoms: O_6  and  C_31
REMARK    4  A    between atoms: O_6  and  C_32
REMARK    5  A    between atoms: N_7  and  C_15
REMARK    6  A    between atoms: C_11  and  C_16
REMARK    7  A    between atoms: C_15  and  C_17
REMARK    8  A    between atoms: C_20  and  C_24
REMARK    9  A    between atoms: C_23  and  C_25
REMARK   10  A    between atoms: C_30  and  C_31
REMARK                            x       y       z     vdW  Elec       q    Type
REMARK                         _______ _______ _______ _____ _____    ______ ____
ROOT
ATOM      7  N   UNL     1      20.409   7.362  21.690  0.00  0.00    -0.287 NA
ATOM     11  C   UNL     1      19.176   8.168  21.790  0.00  0.00    +0.146 C 
ATOM     12  C   UNL     1      19.607   9.595  21.408  0.00  0.00    +0.030 C 
ATOM     13  C   UNL     1      21.108   9.506  21.169  0.00  0.00    +0.017 C 
ATOM     14  C   UNL     1      21.521   8.276  21.952  0.00  0.00    +0.085 C 
ENDROOT
BRANCH  11  16
ATOM      4  O   UNL     1      18.349   6.538  20.167  0.00  0.00    -0.336 OA
ATOM      8  N   UNL     1      16.842   8.087  20.757  0.00  0.00    -0.189 NA
ATOM      9  N   UNL     1      17.183   6.240  19.450  0.00  0.00    -0.054 NA
ATOM     16  C   UNL     1      18.062   7.638  20.912  0.00  0.00    +0.245 A 
ATOM     20  C   UNL     1      16.342   7.198  19.851  0.00  0.00    +0.221 A 
BRANCH  20  24
ATOM     10  N   UNL     1      14.833   7.982  18.215  0.00  0.00    -0.252 NA
ATOM     24  C   UNL     1      14.994   7.293  19.368  0.00  0.00    +0.115 A 
ATOM     26  C   UNL     1      13.956   6.703  20.070  0.00  0.00    +0.077 A 
ATOM     27  C   UNL     1      12.670   6.827  19.557  0.00  0.00    +0.124 A 
ATOM     28  C   UNL     1      13.568   8.081  17.747  0.00  0.00    +0.115 A 
ATOM     29  C   UNL     1      12.464   7.528  18.374  0.00  0.00    +0.065 A 
BRANCH  27   5
ATOM      5  O   UNL     1      11.617   6.264  20.210  0.00  0.00    -0.490 OA
BRANCH   5  30
ATOM     30  C   UNL     1      11.539   6.474  21.619  0.00  0.00    +0.257 C 
BRANCH  30  31
ATOM     31  C   UNL     1      10.681   7.695  21.890  0.00  0.00    +0.200 C 
BRANCH  31   6
ATOM      6  O   UNL     1      11.503   8.735  22.407  0.00  0.00    -0.380 OA
ATOM     32  C   UNL     1      11.503   9.872  21.554  0.00  0.00    +0.194 C 
ENDBRANCH  31   6
ENDBRANCH  30  31
ENDBRANCH   5  30
ENDBRANCH  27   5
ENDBRANCH  20  24
ENDBRANCH  11  16
BRANCH   7  15
ATOM     15  C   UNL     1      20.421   6.214  22.588  0.00  0.00    +0.120 C 
BRANCH  15  17
ATOM     17  C   UNL     1      21.421   5.175  22.155  0.00  0.00    -0.033 A 
ATOM     18  C   UNL     1      21.060   4.209  21.216  0.00  0.00    +0.005 A 
ATOM     19  C   UNL     1      22.708   5.179  22.693  0.00  0.00    +0.005 A 
ATOM     21  C   UNL     1      21.988   3.246  20.815  0.00  0.00    +0.012 A 
ATOM     22  C   UNL     1      23.634   4.217  22.292  0.00  0.00    +0.012 A 
ATOM     23  C   UNL     1      23.274   3.250  21.353  0.00  0.00    +0.055 A 
BRANCH  23  25
ATOM      1  F   UNL     1      23.745   0.966  20.823  0.00  0.00    -0.166 F 
ATOM      2  F   UNL     1      25.320   2.117  21.784  0.00  0.00    -0.166 F 
ATOM      3  F   UNL     1      24.819   2.478  19.700  0.00  0.00    -0.166 F 
ATOM     25  C   UNL     1      24.266   2.224  20.922  0.00  0.00    +0.417 C 
ENDBRANCH  23  25
ENDBRANCH  15  17
ENDBRANCH   7  15
TORSDOF 9
ENDMDL
MODEL 3
REMARK VINA RESULT:      -6.9     28.592     32.070
REMARK  Name = 45783456
REMARK  10 active torsions:
REMARK  status: ('A' for Active; 'I' for Inactive)
REMARK    1  A    between atoms: O_5  and  C_27
REMARK    2  A    between atoms: O_5  and  C_30
REMARK    3  A    between atoms: O_6  and  C_31
REMARK    4  A    between atoms: O_6  and  C_32
REMARK    5  A    between atoms: N_7  and  C_15
REMARK    6  A    between atoms: C_11  and  C_16
REMARK    7  A    between atoms: C_15  and  C_17
REMARK    8  A    between atoms: C_20  and  C_24
REMARK    9  A    between atoms: C_23  and  C_25
REMARK   10  A    between atoms: C_30  and  C_31
REMARK                            x       y       z     vdW  Elec       q    Type
REMARK                         _______ _______ _______ _____ _____    ______ ____
ROOT
ATOM      7  N   UNL     1     -17.390   4.644  21.245  0.00  0.00    -0.287 NA
ATOM     11  C   UNL     1     -18.296   4.040  22.243  0.00  0.00    +0.146 C 
ATOM     12  C   UNL     1     -19.068   2.958  21.467  0.00  0.00    +0.030 C 
ATOM     13  C   UNL     1     -18.572   3.067  20.031  0.00  0.00    +0.017 C 
ATOM     14  C   UNL     1     -18.042   4.485  19.945  0.00  0.00    +0.085 C 
ENDROOT
BRANCH  11  16
ATOM      4  O   UNL     1     -16.544   2.616  23.180  0.00  0.00    -0.336 OA
ATOM      8  N   UNL     1     -17.745   3.720  24.715  0.00  0.00    -0.189 NA
ATOM      9  N   UNL     1     -16.019   2.246  24.425  0.00  0.00    -0.054 NA
ATOM     16  C   UNL     1     -17.555   3.486  23.441  0.00  0.00    +0.245 A 
ATOM     20  C   UNL     1     -16.780   2.937  25.279  0.00  0.00    +0.221 A 
BRANCH  20  24
ATOM     10  N   UNL     1     -16.540   4.062  27.339  0.00  0.00    -0.252 NA
ATOM     24  C   UNL     1     -16.599   2.871  26.700  0.00  0.00    +0.115 A 
ATOM     26  C   UNL     1     -16.497   1.645  27.336  0.00  0.00    +0.077 A 
ATOM     27  C   UNL     1     -16.322   1.639  28.716  0.00  0.00    +0.124 A 
ATOM     28  C   UNL     1     -16.369   4.017  28.679  0.00  0.00    +0.115 A 
ATOM     29  C   UNL     1     -16.256   2.843  29.407  0.00  0.00    +0.065 A 
BRANCH  27   5
ATOM      5  O   UNL     1     -16.217   0.460  29.386  0.00  0.00    -0.490 OA
BRANCH   5  30
ATOM     30  C   UNL     1     -14.909   0.058  29.793  0.00  0.00    +0.257 C 
BRANCH  30  31
ATOM     31  C   UNL     1     -14.865  -0.022  31.306  0.00  0.00    +0.200 C 
BRANCH  31   6
ATOM      6  O   UNL     1     -14.240   1.149  31.816  0.00  0.00    -0.380 OA
ATOM     32  C   UNL     1     -14.917   1.646  32.962  0.00  0.00    +0.194 C 
ENDBRANCH  31   6
ENDBRANCH  30  31
ENDBRANCH   5  30
ENDBRANCH  27   5
ENDBRANCH  20  24
ENDBRANCH  11  16
BRANCH   7  15
ATOM     15  C   UNL     1     -17.067   6.036  21.530  0.00  0.00    +0.120 C 
BRANCH  15  17
ATOM     17  C   UNL     1     -15.658   6.378  21.124  0.00  0.00    -0.033 A 
ATOM     18  C   UNL     1     -15.430   7.202  20.022  0.00  0.00    +0.005 A 
ATOM     19  C   UNL     1     -14.580   5.871  21.850  0.00  0.00    +0.005 A 
ATOM     21  C   UNL     1     -14.124   7.519  19.646  0.00  0.00    +0.012 A 
ATOM     22  C   UNL     1     -13.275   6.188  21.474  0.00  0.00    +0.012 A 
ATOM     23  C   UNL     1     -13.047   7.011  20.372  0.00  0.00    +0.055 A 
BRANCH  23  25
ATOM      1  F   UNL     1     -10.741   7.197  20.976  0.00  0.00    -0.166 F 
ATOM      2  F   UNL     1     -11.526   8.649  19.560  0.00  0.00    -0.166 F 
ATOM      3  F   UNL     1     -11.178   6.594  18.940  0.00  0.00    -0.166 F 
ATOM     25  C   UNL     1     -11.652   7.353  19.972  0.00  0.00    +0.417 C 
ENDBRANCH  23  25
ENDBRANCH  15  17
ENDBRANCH   7  15
TORSDOF 9
ENDMDL
MODEL 4
REMARK VINA RESULT:      -6.8      1.603      1.992
REMARK  Name = 45783456
REMARK  10 active torsions:
REMARK  status: ('A' for Active; 'I' for Inactive)
REMARK    1  A    between atoms: O_5  and  C_27
REMARK    2  A    between atoms: O_5  and  C_30
REMARK    3  A    between atoms: O_6  and  C_31
REMARK    4  A    between atoms: O_6  and  C_32
REMARK    5  A    between atoms: N_7  and  C_15
REMARK    6  A    between atoms: C_11  and  C_16
REMARK    7  A    between atoms: C_15  and  C_17
REMARK    8  A    between atoms: C_20  and  C_24
REMARK    9  A    between atoms: C_23  and  C_25
REMARK   10  A    between atoms: C_30  and  C_31
REMARK                            x       y       z     vdW  Elec       q    Type
REMARK                         _______ _______ _______ _____ _____    ______ ____
ROOT
ATOM      7  N   UNL     1      13.877   8.383  19.866  0.00  0.00    -0.287 NA
ATOM     11  C   UNL     1      14.286   7.288  18.964  0.00  0.00    +0.146 C 
ATOM     12  C   UNL     1      14.147   7.874  17.548  0.00  0.00    +0.030 C 
ATOM     13  C   UNL     1      13.599   9.280  17.751  0.00  0.00    +0.017 C 
ATOM     14  C   UNL     1      12.934   9.210  19.111  0.00  0.00    +0.085 C 
ENDROOT
BRANCH  11  16
ATOM      4  O   UNL     1      16.170   5.829  18.422  0.00  0.00    -0.336 OA
ATOM      8  N   UNL     1      16.511   7.138  20.208  0.00  0.00    -0.189 NA
ATOM      9  N   UNL     1      17.458   5.529  18.885  0.00  0.00    -0.054 NA
ATOM     16  C   UNL     1      15.684   6.785  19.256  0.00  0.00    +0.245 A 
ATOM     20  C   UNL     1      17.585   6.340  19.940  0.00  0.00    +0.221 A 
BRANCH  20  24
ATOM     10  N   UNL     1      18.762   7.275  21.757  0.00  0.00    -0.252 NA
ATOM     24  C   UNL     1      18.772   6.380  20.744  0.00  0.00    +0.115 A 
ATOM     26  C   UNL     1      19.836   5.538  20.463  0.00  0.00    +0.077 A 
ATOM     27  C   UNL     1      20.962   5.621  21.274  0.00  0.00    +0.124 A 
ATOM     28  C   UNL     1      19.874   7.326  22.525  0.00  0.00    +0.115 A 
ATOM     29  C   UNL     1      20.989   6.529  22.327  0.00  0.00    +0.065 A 
BRANCH  27   5
ATOM      5  O   UNL     1      22.033   4.814  21.040  0.00  0.00    -0.490 OA
BRANCH   5  30
ATOM     30  C   UNL     1      21.872   3.424  21.320  0.00  0.00    +0.257 C 
BRANCH  30  31
ATOM     31  C   UNL     1      22.783   3.042  22.470  0.00  0.00    +0.200 C 
BRANCH  31   6
ATOM      6  O   UNL     1      22.167   3.417  23.696  0.00  0.00    -0.380 OA
ATOM     32  C   UNL     1      23.065   4.132  24.533  0.00  0.00    +0.194 C 
ENDBRANCH  31   6
ENDBRANCH  30  31
ENDBRANCH   5  30
ENDBRANCH  27   5
ENDBRANCH  20  24
ENDBRANCH  11  16
BRANCH   7  15
ATOM     15  C   UNL     1      13.308   7.912  21.123  0.00  0.00    +0.120 C 
BRANCH  15  17
ATOM     17  C   UNL     1      12.786   9.048  21.962  0.00  0.00    -0.033 A 
ATOM     18  C   UNL     1      13.652  10.055  22.387  0.00  0.00    +0.005 A 
ATOM     19  C   UNL     1      11.437   9.092  22.315  0.00  0.00    +0.005 A 
ATOM     21  C   UNL     1      13.168  11.108  23.164  0.00  0.00    +0.012 A 
ATOM     22  C   UNL     1      10.954  10.145  23.092  0.00  0.00    +0.012 A 
ATOM     23  C   UNL     1      11.819  11.153  23.517  0.00  0.00    +0.055 A 
BRANCH  23  25
ATOM      1  F   UNL     1      11.934  13.466  24.111  0.00  0.00    -0.166 F 
ATOM      2  F   UNL     1      11.435  12.051  25.685  0.00  0.00    -0.166 F 
ATOM      3  F   UNL     1       9.975  12.538  24.149  0.00  0.00    -0.166 F 
ATOM     25  C   UNL     1      11.302  12.279  24.345  0.00  0.00    +0.417 C 
ENDBRANCH  23  25
ENDBRANCH  15  17
ENDBRANCH   7  15
TORSDOF 9
ENDMDL
MODEL 5
REMARK VINA RESULT:      -6.7     28.498     31.838
REMARK  Name = 45783456
REMARK  10 active torsions:
REMARK  status: ('A' for Active; 'I' for Inactive)
REMARK    1  A    between atoms: O_5  and  C_27
REMARK    2  A    between atoms: O_5  and  C_30
REMARK    3  A    between atoms: O_6  and  C_31
REMARK    4  A    between atoms: O_6  and  C_32
REMARK    5  A    between atoms: N_7  and  C_15
REMARK    6  A    between atoms: C_11  and  C_16
REMARK    7  A    between atoms: C_15  and  C_17
REMARK    8  A    between atoms: C_20  and  C_24
REMARK    9  A    between atoms: C_23  and  C_25
REMARK   10  A    between atoms: C_30  and  C_31
REMARK                            x       y       z     vdW  Elec       q    Type
REMARK                         _______ _______ _______ _____ _____    ______ ____
ROOT
ATOM      7  N   UNL     1     -16.685   4.740  22.630  0.00  0.00    -0.287 NA
ATOM     11  C   UNL     1     -17.744   4.216  23.516  0.00  0.00    +0.146 C 
ATOM     12  C   UNL     1     -18.740   3.523  22.569  0.00  0.00    +0.030 C 
ATOM     13  C   UNL     1     -18.190   3.761  21.170  0.00  0.00    +0.017 C 
ATOM     14  C   UNL     1     -17.317   4.989  21.334  0.00  0.00    +0.085 C 
ENDROOT
BRANCH  11  16
ATOM      4  O   UNL     1     -16.817   2.050  24.166  0.00  0.00    -0.336 OA
ATOM      8  N   UNL     1     -17.049   3.492  25.864  0.00  0.00    -0.189 NA
ATOM      9  N   UNL     1     -16.360   1.382  25.310  0.00  0.00    -0.054 NA
ATOM     16  C   UNL     1     -17.203   3.285  24.581  0.00  0.00    +0.245 A 
ATOM     20  C   UNL     1     -16.530   2.297  26.269  0.00  0.00    +0.221 A 
BRANCH  20  24
ATOM     10  N   UNL     1     -16.496   0.820  28.108  0.00  0.00    -0.252 NA
ATOM     24  C   UNL     1     -16.188   2.051  27.640  0.00  0.00    +0.115 A 
ATOM     26  C   UNL     1     -15.584   3.040  28.399  0.00  0.00    +0.077 A 
ATOM     27  C   UNL     1     -15.276   2.747  29.723  0.00  0.00    +0.124 A 
ATOM     28  C   UNL     1     -16.181   0.572  29.399  0.00  0.00    +0.115 A 
ATOM     29  C   UNL     1     -15.576   1.492  30.240  0.00  0.00    +0.065 A 
BRANCH  27   5
ATOM      5  O   UNL     1     -14.681   3.685  30.509  0.00  0.00    -0.490 OA
BRANCH   5  30
ATOM     30  C   UNL     1     -15.459   4.227  31.575  0.00  0.00    +0.257 C 
BRANCH  30  31
ATOM     31  C   UNL     1     -14.603   4.304  32.824  0.00  0.00    +0.200 C 
BRANCH  31   6
ATOM      6  O   UNL     1     -13.923   3.067  32.998  0.00  0.00    -0.380 OA
ATOM     32  C   UNL     1     -14.671   2.170  33.807  0.00  0.00    +0.194 C 
ENDBRANCH  31   6
ENDBRANCH  30  31
ENDBRANCH   5  30
ENDBRANCH  27   5
ENDBRANCH  20  24
ENDBRANCH  11  16
BRANCH   7  15
ATOM     15  C   UNL     1     -16.030   5.930  23.158  0.00  0.00    +0.120 C 
BRANCH  15  17
ATOM     17  C   UNL     1     -14.865   6.353  22.303  0.00  0.00    -0.033 A 
ATOM     18  C   UNL     1     -14.881   7.593  21.666  0.00  0.00    +0.005 A 
ATOM     19  C   UNL     1     -13.769   5.503  22.148  0.00  0.00    +0.005 A 
ATOM     21  C   UNL     1     -13.801   7.985  20.874  0.00  0.00    +0.012 A 
ATOM     22  C   UNL     1     -12.690   5.895  21.357  0.00  0.00    +0.012 A 
ATOM     23  C   UNL     1     -12.705   7.136  20.719  0.00  0.00    +0.055 A 
BRANCH  23  25
ATOM      1  F   UNL     1     -11.779   8.697  19.163  0.00  0.00    -0.166 F 
ATOM      2  F   UNL     1     -11.202   6.611  18.953  0.00  0.00    -0.166 F 
ATOM      3  F   UNL     1     -10.413   7.804  20.591  0.00  0.00    -0.166 F 
ATOM     25  C   UNL     1     -11.550   7.556  19.876  0.00  0.00    +0.417 C 
ENDBRANCH  23  25
ENDBRANCH  15  17
ENDBRANCH   7  15
TORSDOF 9
ENDMDL
MODEL 6
REMARK VINA RESULT:      -6.7     28.057     31.102
REMARK  Name = 45783456
REMARK  10 active torsions:
REMARK  status: ('A' for Active; 'I' for Inactive)
REMARK    1  A    between atoms: O_5  and  C_27
REMARK    2  A    between atoms: O_5  and  C_30
REMARK    3  A    between atoms: O_6  and  C_31
REMARK    4  A    between atoms: O_6  and  C_32
REMARK    5  A    between atoms: N_7  and  C_15
REMARK    6  A    between atoms: C_11  and  C_16
REMARK    7  A    between atoms: C_15  and  C_17
REMARK    8  A    between atoms: C_20  and  C_24
REMARK    9  A    between atoms: C_23  and  C_25
REMARK   10  A    between atoms: C_30  and  C_31
REMARK                            x       y       z     vdW  Elec       q    Type
REMARK                         _______ _______ _______ _____ _____    ______ ____
ROOT
ATOM      7  N   UNL     1     -14.903   4.984  21.685  0.00  0.00    -0.287 NA
ATOM     11  C   UNL     1     -15.921   5.286  22.710  0.00  0.00    +0.146 C 
ATOM     12  C   UNL     1     -17.191   5.630  21.911  0.00  0.00    +0.030 C 
ATOM     13  C   UNL     1     -16.774   5.553  20.449  0.00  0.00    +0.017 C 
ATOM     14  C   UNL     1     -15.273   5.752  20.495  0.00  0.00    +0.085 C 
ENDROOT
BRANCH  11  16
ATOM      4  O   UNL     1     -16.334   2.913  23.129  0.00  0.00    -0.336 OA
ATOM      8  N   UNL     1     -16.146   4.152  24.986  0.00  0.00    -0.189 NA
ATOM      9  N   UNL     1     -16.499   2.031  24.204  0.00  0.00    -0.054 NA
ATOM     16  C   UNL     1     -16.130   4.140  23.677  0.00  0.00    +0.245 A 
ATOM     20  C   UNL     1     -16.376   2.836  25.264  0.00  0.00    +0.221 A 
BRANCH  20  24
ATOM     10  N   UNL     1     -17.366   1.361  26.816  0.00  0.00    -0.252 NA
ATOM     24  C   UNL     1     -16.474   2.357  26.613  0.00  0.00    +0.115 A 
ATOM     26  C   UNL     1     -15.687   2.909  27.610  0.00  0.00    +0.077 A 
ATOM     27  C   UNL     1     -15.824   2.408  28.900  0.00  0.00    +0.124 A 
ATOM     28  C   UNL     1     -17.471   0.899  28.083  0.00  0.00    +0.115 A 
ATOM     29  C   UNL     1     -16.730   1.383  29.148  0.00  0.00    +0.065 A 
BRANCH  27   5
ATOM      5  O   UNL     1     -15.073   2.916  29.914  0.00  0.00    -0.490 OA
BRANCH   5  30
ATOM     30  C   UNL     1     -13.984   2.119  30.378  0.00  0.00    +0.257 C 
BRANCH  30  31
ATOM     31  C   UNL     1     -14.055   2.018  31.890  0.00  0.00    +0.200 C 
BRANCH  31   6
ATOM      6  O   UNL     1     -13.236   3.030  32.462  0.00  0.00    -0.380 OA
ATOM     32  C   UNL     1     -14.007   3.976  33.190  0.00  0.00    +0.194 C 
ENDBRANCH  31   6
ENDBRANCH  30  31
ENDBRANCH   5  30
ENDBRANCH  27   5
ENDBRANCH  20  24
ENDBRANCH  11  16
BRANCH   7  15
ATOM     15  C   UNL     1     -13.542   5.273  22.122  0.00  0.00    +0.120 C 
BRANCH  15  17
ATOM     17  C   UNL     1     -13.025   6.557  21.531  0.00  0.00    -0.033 A 
ATOM     18  C   UNL     1     -11.928   6.536  20.670  0.00  0.00    +0.005 A 
ATOM     19  C   UNL     1     -13.643   7.768  21.845  0.00  0.00    +0.005 A 
ATOM     21  C   UNL     1     -11.449   7.727  20.123  0.00  0.00    +0.012 A 
ATOM     22  C   UNL     1     -13.163   8.958  21.297  0.00  0.00    +0.012 A 
ATOM     23  C   UNL     1     -12.066   8.938  20.436  0.00  0.00    +0.055 A 
BRANCH  23  25
ATOM      1  F   UNL     1     -10.219  10.188  19.575  0.00  0.00    -0.166 F 
ATOM      2  F   UNL     1     -11.745  11.282  20.672  0.00  0.00    -0.166 F 
ATOM      3  F   UNL     1     -12.156  10.545  18.668  0.00  0.00    -0.166 F 
ATOM     25  C   UNL     1     -11.556  10.209  19.848  0.00  0.00    +0.417 C 
ENDBRANCH  23  25
ENDBRANCH  15  17
ENDBRANCH   7  15
TORSDOF 9
ENDMDL
MODEL 7
REMARK VINA RESULT:      -6.7      4.900      9.666
REMARK  Name = 45783456
REMARK  10 active torsions:
REMARK  status: ('A' for Active; 'I' for Inactive)
REMARK    1  A    between atoms: O_5  and  C_27
REMARK    2  A    between atoms: O_5  and  C_30
REMARK    3  A    between atoms: O_6  and  C_31
REMARK    4  A    between atoms: O_6  and  C_32
REMARK    5  A    between atoms: N_7  and  C_15
REMARK    6  A    between atoms: C_11  and  C_16
REMARK    7  A    between atoms: C_15  and  C_17
REMARK    8  A    between atoms: C_20  and  C_24
REMARK    9  A    between atoms: C_23  and  C_25
REMARK   10  A    between atoms: C_30  and  C_31
REMARK                            x       y       z     vdW  Elec       q    Type
REMARK                         _______ _______ _______ _____ _____    ______ ____
ROOT
ATOM      7  N   UNL     1      13.771   8.054  19.001  0.00  0.00    -0.287 NA
ATOM     11  C   UNL     1      14.299   9.277  19.638  0.00  0.00    +0.146 C 
ATOM     12  C   UNL     1      14.609  10.227  18.467  0.00  0.00    +0.030 C 
ATOM     13  C   UNL     1      14.279   9.431  17.212  0.00  0.00    +0.017 C 
ATOM     14  C   UNL     1      14.373   7.989  17.669  0.00  0.00    +0.085 C 
ENDROOT
BRANCH  11  16
ATOM      4  O   UNL     1      12.030   9.510  20.516  0.00  0.00    -0.336 OA
ATOM      8  N   UNL     1      13.567  10.708  21.621  0.00  0.00    -0.189 NA
ATOM      9  N   UNL     1      11.342  10.181  21.535  0.00  0.00    -0.054 NA
ATOM     16  C   UNL     1      13.334   9.876  20.638  0.00  0.00    +0.245 A 
ATOM     20  C   UNL     1      12.315  10.867  22.142  0.00  0.00    +0.221 A 
BRANCH  20  24
ATOM     10  N   UNL     1      12.930  11.572  24.307  0.00  0.00    -0.252 NA
ATOM     24  C   UNL     1      12.072  11.716  23.272  0.00  0.00    +0.115 A 
ATOM     26  C   UNL     1      11.015  12.611  23.261  0.00  0.00    +0.077 A 
ATOM     27  C   UNL     1      10.825  13.409  24.383  0.00  0.00    +0.124 A 
ATOM     28  C   UNL     1      12.714  12.365  25.381  0.00  0.00    +0.115 A 
ATOM     29  C   UNL     1      11.687  13.289  25.468  0.00  0.00    +0.065 A 
BRANCH  27   5
ATOM      5  O   UNL     1       9.801  14.304  24.420  0.00  0.00    -0.490 OA
BRANCH   5  30
ATOM     30  C   UNL     1       9.712  15.233  23.340  0.00  0.00    +0.257 C 
BRANCH  30  31
ATOM     31  C   UNL     1       8.322  15.161  22.739  0.00  0.00    +0.200 C 
BRANCH  31   6
ATOM      6  O   UNL     1       8.427  14.807  21.365  0.00  0.00    -0.380 OA
ATOM     32  C   UNL     1       9.686  15.183  20.824  0.00  0.00    +0.194 C 
ENDBRANCH  31   6
ENDBRANCH  30  31
ENDBRANCH   5  30
ENDBRANCH  27   5
ENDBRANCH  20  24
ENDBRANCH  11  16
BRANCH   7  15
ATOM     15  C   UNL     1      14.024   6.846  19.776  0.00  0.00    +0.120 C 
BRANCH  15  17
ATOM     17  C   UNL     1      15.495   6.628  20.010  0.00  0.00    -0.033 A 
ATOM     18  C   UNL     1      16.294   6.116  18.988  0.00  0.00    +0.005 A 
ATOM     19  C   UNL     1      16.058   6.937  21.248  0.00  0.00    +0.005 A 
ATOM     21  C   UNL     1      17.658   5.914  19.204  0.00  0.00    +0.012 A 
ATOM     22  C   UNL     1      17.420   6.734  21.464  0.00  0.00    +0.012 A 
ATOM     23  C   UNL     1      18.221   6.223  20.443  0.00  0.00    +0.055 A 
BRANCH  23  25
ATOM      1  F   UNL     1      20.155   4.852  20.129  0.00  0.00    -0.166 F 
ATOM      2  F   UNL     1      19.997   5.951  22.000  0.00  0.00    -0.166 F 
ATOM      3  F   UNL     1      20.464   6.998  20.152  0.00  0.00    -0.166 F 
ATOM     25  C   UNL     1      19.678   6.010  20.673  0.00  0.00    +0.417 C 
ENDBRANCH  23  25
ENDBRANCH  15  17
ENDBRANCH   7  15
TORSDOF 9
ENDMDL
MODEL 8
REMARK VINA RESULT:      -6.7     26.738     29.911
REMARK  Name = 45783456
REMARK  10 active torsions:
REMARK  status: ('A' for Active; 'I' for Inactive)
REMARK    1  A    between atoms: O_5  and  C_27
REMARK    2  A    between atoms: O_5  and  C_30
REMARK    3  A    between atoms: O_6  and  C_31
REMARK    4  A    between atoms: O_6  and  C_32
REMARK    5  A    between atoms: N_7  and  C_15
REMARK    6  A    between atoms: C_11  and  C_16
REMARK    7  A    between atoms: C_15  and  C_17
REMARK    8  A    between atoms: C_20  and  C_24
REMARK    9  A    between atoms: C_23  and  C_25
REMARK   10  A    between atoms: C_30  and  C_31
REMARK                            x       y       z     vdW  Elec       q    Type
REMARK                         _______ _______ _______ _____ _____    ______ ____
ROOT
ATOM      7  N   UNL     1      -3.134 -10.717  14.437  0.00  0.00    -0.287 NA
ATOM     11  C   UNL     1      -2.968 -11.305  15.781  0.00  0.00    +0.146 C 
ATOM     12  C   UNL     1      -1.687 -10.658  16.337  0.00  0.00    +0.030 C 
ATOM     13  C   UNL     1      -1.171  -9.768  15.214  0.00  0.00    +0.017 C 
ATOM     14  C   UNL     1      -1.791 -10.371  13.969  0.00  0.00    +0.085 C 
ENDROOT
BRANCH  11  16
ATOM      4  O   UNL     1      -4.028 -11.397  17.982  0.00  0.00    -0.336 OA
ATOM      8  N   UNL     1      -5.355 -10.607  16.360  0.00  0.00    -0.189 NA
ATOM      9  N   UNL     1      -5.254 -11.103  18.591  0.00  0.00    -0.054 NA
ATOM     16  C   UNL     1      -4.173 -11.076  16.669  0.00  0.00    +0.245 A 
ATOM     20  C   UNL     1      -5.984 -10.643  17.570  0.00  0.00    +0.221 A 
BRANCH  20  24
ATOM     10  N   UNL     1      -8.093 -10.932  18.586  0.00  0.00    -0.252 NA
ATOM     24  C   UNL     1      -7.342 -10.207  17.726  0.00  0.00    +0.115 A 
ATOM     26  C   UNL     1      -7.810  -9.111  17.021  0.00  0.00    +0.077 A 
ATOM     27  C   UNL     1      -9.135  -8.734  17.210  0.00  0.00    +0.124 A 
ATOM     28  C   UNL     1      -9.376 -10.535  18.744  0.00  0.00    +0.115 A 
ATOM     29  C   UNL     1      -9.939  -9.454  18.086  0.00  0.00    +0.065 A 
BRANCH  27   5
ATOM      5  O   UNL     1      -9.642  -7.663  16.541  0.00  0.00    -0.490 OA
BRANCH   5  30
ATOM     30  C   UNL     1     -11.064  -7.564  16.455  0.00  0.00    +0.257 C 
BRANCH  30  31
ATOM     31  C   UNL     1     -11.448  -6.111  16.260  0.00  0.00    +0.200 C 
BRANCH  31   6
ATOM      6  O   UNL     1     -11.195  -5.739  14.911  0.00  0.00    -0.380 OA
ATOM     32  C   UNL     1     -12.401  -5.475  14.208  0.00  0.00    +0.194 C 
ENDBRANCH  31   6
ENDBRANCH  30  31
ENDBRANCH   5  30
ENDBRANCH  27   5
ENDBRANCH  20  24
ENDBRANCH  11  16
BRANCH   7  15
ATOM     15  C   UNL     1      -3.829 -11.597  13.505  0.00  0.00    +0.120 C 
BRANCH  15  17
ATOM     17  C   UNL     1      -4.474 -10.827  12.384  0.00  0.00    -0.033 A 
ATOM     18  C   UNL     1      -4.098 -11.072  11.064  0.00  0.00    +0.005 A 
ATOM     19  C   UNL     1      -5.447  -9.868  12.666  0.00  0.00    +0.005 A 
ATOM     21  C   UNL     1      -4.696 -10.359  10.024  0.00  0.00    +0.012 A 
ATOM     22  C   UNL     1      -6.044  -9.155  11.626  0.00  0.00    +0.012 A 
ATOM     23  C   UNL     1      -5.669  -9.400  10.306  0.00  0.00    +0.055 A 
BRANCH  23  25
ATOM      1  F   UNL     1      -5.958  -9.084   7.953  0.00  0.00    -0.166 F 
ATOM      2  F   UNL     1      -5.990  -7.312   9.213  0.00  0.00    -0.166 F 
ATOM      3  F   UNL     1      -7.675  -8.687   9.216  0.00  0.00    -0.166 F 
ATOM     25  C   UNL     1      -6.310  -8.640   9.195  0.00  0.00    +0.417 C 
ENDBRANCH  23  25
ENDBRANCH  15  17
ENDBRANCH   7  15
TORSDOF 9
ENDMDL
MODEL 9
REMARK VINA RESULT:      -6.7      4.960      8.983
REMARK  Name = 45783456
REMARK  10 active torsions:
REMARK  status: ('A' for Active; 'I' for Inactive)
REMARK    1  A    between atoms: O_5  and  C_27
REMARK    2  A    between atoms: O_5  and  C_30
REMARK    3  A    between atoms: O_6  and  C_31
REMARK    4  A    between atoms: O_6  and  C_32
REMARK    5  A    between atoms: N_7  and  C_15
REMARK    6  A    between atoms: C_11  and  C_16
REMARK    7  A    between atoms: C_15  and  C_17
REMARK    8  A    between atoms: C_20  and  C_24
REMARK    9  A    between atoms: C_23  and  C_25
REMARK   10  A    between atoms: C_30  and  C_31
REMARK                            x       y       z     vdW  Elec       q    Type
REMARK                         _______ _______ _______ _____ _____    ______ ____
ROOT
ATOM      7  N   UNL     1      12.997   8.117  20.513  0.00  0.00    -0.287 NA
ATOM     11  C   UNL     1      11.750   8.889  20.344  0.00  0.00    +0.146 C 
ATOM     12  C   UNL     1      10.676   8.064  21.077  0.00  0.00    +0.030 C 
ATOM     13  C   UNL     1      11.401   6.820  21.573  0.00  0.00    +0.017 C 
ATOM     14  C   UNL     1      12.600   6.716  20.652  0.00  0.00    +0.085 C 
ENDROOT
BRANCH  11  16
ATOM      4  O   UNL     1      12.569  11.180  20.111  0.00  0.00    -0.336 OA
ATOM      8  N   UNL     1      11.379  10.819  21.973  0.00  0.00    -0.189 NA
ATOM      9  N   UNL     1      12.536  12.402  20.795  0.00  0.00    -0.054 NA
ATOM     16  C   UNL     1      11.864  10.303  20.873  0.00  0.00    +0.245 A 
ATOM     20  C   UNL     1      11.817  12.108  21.882  0.00  0.00    +0.221 A 
BRANCH  20  24
ATOM     10  N   UNL     1      10.230  13.492  22.945  0.00  0.00    -0.252 NA
ATOM     24  C   UNL     1      11.517  13.079  22.894  0.00  0.00    +0.115 A 
ATOM     26  C   UNL     1      12.512  13.537  23.742  0.00  0.00    +0.077 A 
ATOM     27  C   UNL     1      12.165  14.479  24.704  0.00  0.00    +0.124 A 
ATOM     28  C   UNL     1       9.930  14.408  23.893  0.00  0.00    +0.115 A 
ATOM     29  C   UNL     1      10.852  14.928  24.788  0.00  0.00    +0.065 A 
BRANCH  27   5
ATOM      5  O   UNL     1      13.106  14.959  25.561  0.00  0.00    -0.490 OA
BRANCH   5  30
ATOM     30  C   UNL     1      14.351  14.262  25.615  0.00  0.00    +0.257 C 
BRANCH  30  31
ATOM     31  C   UNL     1      14.474  13.574  26.961  0.00  0.00    +0.200 C 
BRANCH  31   6
ATOM      6  O   UNL     1      13.950  12.256  26.860  0.00  0.00    -0.380 OA
ATOM     32  C   UNL     1      14.714  11.458  25.966  0.00  0.00    +0.194 C 
ENDBRANCH  31   6
ENDBRANCH  30  31
ENDBRANCH   5  30
ENDBRANCH  27   5
ENDBRANCH  20  24
ENDBRANCH  11  16
BRANCH   7  15
ATOM     15  C   UNL     1      13.946   8.312  19.423  0.00  0.00    +0.120 C 
BRANCH  15  17
ATOM     17  C   UNL     1      15.312   7.782  19.770  0.00  0.00    -0.033 A 
ATOM     18  C   UNL     1      15.824   6.678  19.089  0.00  0.00    +0.005 A 
ATOM     19  C   UNL     1      16.064   8.395  20.771  0.00  0.00    +0.005 A 
ATOM     21  C   UNL     1      17.090   6.187  19.410  0.00  0.00    +0.012 A 
ATOM     22  C   UNL     1      17.330   7.904  21.092  0.00  0.00    +0.012 A 
ATOM     23  C   UNL     1      17.843   6.800  20.412  0.00  0.00    +0.055 A 
BRANCH  23  25
ATOM      1  F   UNL     1      19.449   5.037  20.242  0.00  0.00    -0.166 F 
ATOM      2  F   UNL     1      19.394   6.166  22.099  0.00  0.00    -0.166 F 
ATOM      3  F   UNL     1      20.217   7.064  20.297  0.00  0.00    -0.166 F 
ATOM     25  C   UNL     1      19.197   6.277  20.752  0.00  0.00    +0.417 C 
ENDBRANCH  23  25
ENDBRANCH  15  17
ENDBRANCH   7  15
TORSDOF 9
ENDMDL
MODEL 10
REMARK VINA RESULT:      -6.6     15.556     18.924
REMARK  Name = 45783456
REMARK  10 active torsions:
REMARK  status: ('A' for Active; 'I' for Inactive)
REMARK    1  A    between atoms: O_5  and  C_27
REMARK    2  A    between atoms: O_5  and  C_30
REMARK    3  A    between atoms: O_6  and  C_31
REMARK    4  A    between atoms: O_6  and  C_32
REMARK    5  A    between atoms: N_7  and  C_15
REMARK    6  A    between atoms: C_11  and  C_16
REMARK    7  A    between atoms: C_15  and  C_17
REMARK    8  A    between atoms: C_20  and  C_24
REMARK    9  A    between atoms: C_23  and  C_25
REMARK   10  A    between atoms: C_30  and  C_31
REMARK                            x       y       z     vdW  Elec       q    Type
REMARK                         _______ _______ _______ _____ _____    ______ ____
ROOT
ATOM      7  N   UNL     1      10.020   8.795   4.716  0.00  0.00    -0.287 NA
ATOM     11  C   UNL     1       9.153   7.604   4.632  0.00  0.00    +0.146 C 
ATOM     12  C   UNL     1       7.920   8.072   3.838  0.00  0.00    +0.030 C 
ATOM     13  C   UNL     1       8.157   9.552   3.571  0.00  0.00    +0.017 C 
ATOM     14  C   UNL     1       9.133   9.958   4.658  0.00  0.00    +0.085 C 
ENDROOT
BRANCH  11  16
ATOM      4  O   UNL     1       9.875   5.270   4.712  0.00  0.00    -0.336 OA
ATOM      8  N   UNL     1      10.440   6.339   2.826  0.00  0.00    -0.189 NA
ATOM      9  N   UNL     1      10.561   4.336   3.925  0.00  0.00    -0.054 NA
ATOM     16  C   UNL     1       9.849   6.422   3.991  0.00  0.00    +0.245 A 
ATOM     20  C   UNL     1      10.862   5.041   2.831  0.00  0.00    +0.221 A 
BRANCH  20  24
ATOM     10  N   UNL     1      12.707   3.802   2.040  0.00  0.00    -0.252 NA
ATOM     24  C   UNL     1      11.580   4.479   1.724  0.00  0.00    +0.115 A 
ATOM     26  C   UNL     1      11.112   4.643   0.430  0.00  0.00    +0.077 A 
ATOM     27  C   UNL     1      11.847   4.078  -0.605  0.00  0.00    +0.124 A 
ATOM     28  C   UNL     1      13.396   3.267   1.007  0.00  0.00    +0.115 A 
ATOM     29  C   UNL     1      13.012   3.375  -0.320  0.00  0.00    +0.065 A 
BRANCH  27   5
ATOM      5  O   UNL     1      11.428   4.211  -1.893  0.00  0.00    -0.490 OA
BRANCH   5  30
ATOM     30  C   UNL     1      11.808   3.185  -2.809  0.00  0.00    +0.257 C 
BRANCH  30  31
ATOM     31  C   UNL     1      10.728   2.121  -2.836  0.00  0.00    +0.200 C 
BRANCH  31   6
ATOM      6  O   UNL     1       9.506   2.710  -3.264  0.00  0.00    -0.380 OA
ATOM     32  C   UNL     1       9.521   2.991  -4.656  0.00  0.00    +0.194 C 
ENDBRANCH  31   6
ENDBRANCH  30  31
ENDBRANCH   5  30
ENDBRANCH  27   5
ENDBRANCH  20  24
ENDBRANCH  11  16
BRANCH   7  15
ATOM     15  C   UNL     1      10.864   8.810   5.905  0.00  0.00    +0.120 C 
BRANCH  15  17
ATOM     17  C   UNL     1      10.449   7.760   6.900  0.00  0.00    -0.033 A 
ATOM     18  C   UNL     1      11.317   6.713   7.211  0.00  0.00    +0.005 A 
ATOM     19  C   UNL     1       9.196   7.832   7.509  0.00  0.00    +0.005 A 
ATOM     21  C   UNL     1      10.932   5.739   8.134  0.00  0.00    +0.012 A 
ATOM     22  C   UNL     1       8.812   6.858   8.431  0.00  0.00    +0.012 A 
ATOM     23  C   UNL     1       9.679   5.812   8.743  0.00  0.00    +0.055 A 
BRANCH  23  25
ATOM      1  F   UNL     1       8.115   5.073  10.394  0.00  0.00    -0.166 F 
ATOM      2  F   UNL     1      10.209   4.573  10.702  0.00  0.00    -0.166 F 
ATOM      3  F   UNL     1       9.053   3.545   9.174  0.00  0.00    -0.166 F 
ATOM     25  C   UNL     1       9.270   4.773   9.731  0.00  0.00    +0.417 C 
ENDBRANCH  23  25
ENDBRANCH  15  17
ENDBRANCH   7  15
TORSDOF 9
ENDMDL
