MODEL 1
REMARK VINA RESULT:      -6.6      0.000      0.000
REMARK  Name = 40777131
REMARK  8 active torsions:
REMARK  status: ('A' for Active; 'I' for Inactive)
REMARK    1  A    between atoms: N_4  and  C_15
REMARK    2  A    between atoms: N_7  and  C_23
REMARK    3  A    between atoms: C_9  and  C_16
REMARK    4  A    between atoms: C_10  and  C_15
REMARK    5  A    between atoms: C_18  and  C_21
REMARK    6  A    between atoms: C_20  and  C_22
REMARK    7  A    between atoms: C_23  and  C_26
REMARK    8  A    between atoms: C_23  and  C_27
REMARK                            x       y       z     vdW  Elec       q    Type
REMARK                         _______ _______ _______ _____ _____    ______ ____
ROOT
ATOM      3  N   UNL     1      14.258  13.497  22.491  0.00  0.00    -0.297 NA
ATOM      8  C   UNL     1      16.149  11.706  22.467  0.00  0.00    +0.002 C 
ATOM      9  C   UNL     1      15.531  11.864  21.050  0.00  0.00    +0.055 C 
ATOM     10  C   UNL     1      14.050  12.523  23.595  0.00  0.00    +0.074 C 
ATOM     11  C   UNL     1      15.036  11.342  23.472  0.00  0.00    +0.024 C 
ATOM     12  C   UNL     1      16.690  13.094  22.873  0.00  0.00    +0.019 C 
ATOM     13  C   UNL     1      14.288  12.789  21.187  0.00  0.00    +0.094 C 
ATOM     14  C   UNL     1      15.577  14.142  22.698  0.00  0.00    +0.085 C 
ENDROOT
BRANCH   9  16
ATOM      5  N   UNL     1      15.993   9.522  20.514  0.00  0.00    -0.237 NA
ATOM      6  N   UNL     1      14.728   8.310  18.858  0.00  0.00    -0.232 NA
ATOM     16  C   UNL     1      15.225  10.602  20.255  0.00  0.00    +0.050 A 
ATOM     17  C   UNL     1      14.206  10.613  19.326  0.00  0.00    +0.052 A 
ATOM     18  C   UNL     1      14.000   9.427  18.651  0.00  0.00    +0.076 A 
ATOM     20  C   UNL     1      15.693   8.427  19.789  0.00  0.00    +0.127 A 
ATOM     22  C   UNL     1      16.521   7.212  20.045  0.00  0.00    +0.088 C 
BRANCH  18  21
ATOM      1 BR   UNL     1      14.759  10.576  15.764  0.00  0.00    -0.050 Br
ATOM     21  C   UNL     1      12.964   9.309  17.652  0.00  0.00    +0.014 A 
ATOM     24  C   UNL     1      13.141   9.764  16.346  0.00  0.00    +0.027 A 
ATOM     25  C   UNL     1      11.757   8.720  18.028  0.00  0.00    +0.011 A 
ATOM     28  C   UNL     1      12.112   9.629  15.414  0.00  0.00    +0.016 A 
ATOM     29  C   UNL     1      10.727   8.586  17.097  0.00  0.00    +0.001 A 
ATOM     30  C   UNL     1      10.904   9.039  15.790  0.00  0.00    +0.001 A 
ENDBRANCH  18  21
ENDBRANCH   9  16
BRANCH  10  15
ATOM     15  C   UNL     1      12.598  12.046  23.685  0.00  0.00    +0.124 C 
BRANCH  15   4
ATOM      2  O   UNL     1      11.457  10.608  21.459  0.00  0.00    -0.253 OA
ATOM      4  N   UNL     1      12.516  10.627  23.527  0.00  0.00    -0.298 N 
ATOM      7  N   UNL     1      11.996   8.614  22.517  0.00  0.00    -0.297 N 
ATOM     19  C   UNL     1      11.944  10.001  22.413  0.00  0.00    +0.300 C 
ATOM     31  H   UNL     1      12.888  10.039  24.267  0.00  0.00    +0.150 HD
ATOM     32  H   UNL     1      12.487   8.207  23.308  0.00  0.00    +0.150 HD
BRANCH   7  23
ATOM     23  C   UNL     1      11.474   7.733  21.499  0.00  0.00    +0.068 C 
ATOM     26  C   UNL     1      10.234   7.010  22.009  0.00  0.00    +0.027 C 
ATOM     27  C   UNL     1      12.543   6.744  21.047  0.00  0.00    +0.027 C 
ENDBRANCH   7  23
ENDBRANCH  15   4
ENDBRANCH  10  15
TORSDOF 5
ENDMDL
MODEL 2
REMARK VINA RESULT:      -6.5      3.545      7.021
REMARK  Name = 40777131
REMARK  8 active torsions:
REMARK  status: ('A' for Active; 'I' for Inactive)
REMARK    1  A    between atoms: N_4  and  C_15
REMARK    2  A    between atoms: N_7  and  C_23
REMARK    3  A    between atoms: C_9  and  C_16
REMARK    4  A    between atoms: C_10  and  C_15
REMARK    5  A    between atoms: C_18  and  C_21
REMARK    6  A    between atoms: C_20  and  C_22
REMARK    7  A    between atoms: C_23  and  C_26
REMARK    8  A    between atoms: C_23  and  C_27
REMARK                            x       y       z     vdW  Elec       q    Type
REMARK                         _______ _______ _______ _____ _____    ______ ____
ROOT
ATOM      3  N   UNL     1      11.422   7.647  19.847  0.00  0.00    -0.297 NA
ATOM      8  C   UNL     1      13.736   8.472  20.709  0.00  0.00    +0.002 C 
ATOM      9  C   UNL     1      12.585   9.228  21.430  0.00  0.00    +0.055 C 
ATOM     10  C   UNL     1      12.303   7.982  18.697  0.00  0.00    +0.074 C 
ATOM     11  C   UNL     1      13.598   8.666  19.184  0.00  0.00    +0.024 C 
ATOM     12  C   UNL     1      13.529   6.969  20.996  0.00  0.00    +0.019 C 
ATOM     13  C   UNL     1      11.257   8.832  20.724  0.00  0.00    +0.094 C 
ATOM     14  C   UNL     1      12.086   6.578  20.631  0.00  0.00    +0.085 C 
ENDROOT
BRANCH   9  16
ATOM      5  N   UNL     1      13.970  11.231  21.662  0.00  0.00    -0.237 NA
ATOM      6  N   UNL     1      13.016  13.428  21.932  0.00  0.00    -0.232 NA
ATOM     16  C   UNL     1      12.717  10.734  21.609  0.00  0.00    +0.050 A 
ATOM     17  C   UNL     1      11.580  11.509  21.708  0.00  0.00    +0.052 A 
ATOM     18  C   UNL     1      11.792  12.864  21.870  0.00  0.00    +0.076 A 
ATOM     20  C   UNL     1      14.045  12.566  21.823  0.00  0.00    +0.127 A 
ATOM     22  C   UNL     1      15.415  13.154  21.888  0.00  0.00    +0.088 C 
BRANCH  18  21
ATOM      1 BR   UNL     1      10.551  13.124  24.806  0.00  0.00    -0.050 Br
ATOM     21  C   UNL     1      10.685  13.782  21.988  0.00  0.00    +0.014 A 
ATOM     24  C   UNL     1      10.035  14.006  23.202  0.00  0.00    +0.027 A 
ATOM     25  C   UNL     1      10.267  14.453  20.840  0.00  0.00    +0.011 A 
ATOM     28  C   UNL     1       8.969  14.902  23.269  0.00  0.00    +0.016 A 
ATOM     29  C   UNL     1       9.200  15.350  20.905  0.00  0.00    +0.001 A 
ATOM     30  C   UNL     1       8.551  15.575  22.119  0.00  0.00    +0.001 A 
ENDBRANCH  18  21
ENDBRANCH   9  16
BRANCH  10  15
ATOM     15  C   UNL     1      11.583   8.816  17.635  0.00  0.00    +0.124 C 
BRANCH  15   4
ATOM      2  O   UNL     1      13.152   8.865  15.214  0.00  0.00    -0.253 OA
ATOM      4  N   UNL     1      12.418   9.881  17.170  0.00  0.00    -0.298 N 
ATOM      7  N   UNL     1      13.877  10.998  15.768  0.00  0.00    -0.297 N 
ATOM     19  C   UNL     1      13.151   9.829  15.979  0.00  0.00    +0.300 C 
ATOM     31  H   UNL     1      12.487  10.720  17.738  0.00  0.00    +0.150 HD
ATOM     32  H   UNL     1      13.753  11.767  16.419  0.00  0.00    +0.150 HD
BRANCH   7  23
ATOM     23  C   UNL     1      14.717  11.200  14.611  0.00  0.00    +0.068 C 
ATOM     26  C   UNL     1      16.157  11.453  15.039  0.00  0.00    +0.027 C 
ATOM     27  C   UNL     1      14.185  12.345  13.757  0.00  0.00    +0.027 C 
ENDBRANCH   7  23
ENDBRANCH  15   4
ENDBRANCH  10  15
TORSDOF 5
ENDMDL
MODEL 3
REMARK VINA RESULT:      -6.5      3.082      5.185
REMARK  Name = 40777131
REMARK  8 active torsions:
REMARK  status: ('A' for Active; 'I' for Inactive)
REMARK    1  A    between atoms: N_4  and  C_15
REMARK    2  A    between atoms: N_7  and  C_23
REMARK    3  A    between atoms: C_9  and  C_16
REMARK    4  A    between atoms: C_10  and  C_15
REMARK    5  A    between atoms: C_18  and  C_21
REMARK    6  A    between atoms: C_20  and  C_22
REMARK    7  A    between atoms: C_23  and  C_26
REMARK    8  A    between atoms: C_23  and  C_27
REMARK                            x       y       z     vdW  Elec       q    Type
REMARK                         _______ _______ _______ _____ _____    ______ ____
ROOT
ATOM      3  N   UNL     1      11.823  11.574  24.853  0.00  0.00    -0.297 NA
ATOM      8  C   UNL     1      11.302  12.100  22.356  0.00  0.00    +0.002 C 
ATOM      9  C   UNL     1      10.845  10.659  22.716  0.00  0.00    +0.055 C 
ATOM     10  C   UNL     1      13.032  12.127  24.187  0.00  0.00    +0.074 C 
ATOM     11  C   UNL     1      12.806  12.251  22.665  0.00  0.00    +0.024 C 
ATOM     12  C   UNL     1      10.546  13.056  23.305  0.00  0.00    +0.019 C 
ATOM     13  C   UNL     1      11.368  10.350  24.148  0.00  0.00    +0.094 C 
ATOM     14  C   UNL     1      10.747  12.590  24.758  0.00  0.00    +0.085 C 
ENDROOT
BRANCH   9  16
ATOM      5  N   UNL     1      10.944   8.278  22.162  0.00  0.00    -0.237 NA
ATOM      6  N   UNL     1      11.707   7.489  20.016  0.00  0.00    -0.232 NA
ATOM     16  C   UNL     1      11.159   9.540  21.733  0.00  0.00    +0.050 A 
ATOM     17  C   UNL     1      11.639   9.851  20.478  0.00  0.00    +0.052 A 
ATOM     18  C   UNL     1      11.898   8.775  19.653  0.00  0.00    +0.076 A 
ATOM     20  C   UNL     1      11.236   7.317  21.265  0.00  0.00    +0.127 A 
ATOM     22  C   UNL     1      11.014   5.908  21.704  0.00  0.00    +0.088 C 
BRANCH  18  21
ATOM      1 BR   UNL     1      15.065   9.174  19.445  0.00  0.00    -0.050 Br
ATOM     21  C   UNL     1      12.405   8.967  18.315  0.00  0.00    +0.014 A 
ATOM     24  C   UNL     1      13.763   9.156  18.059  0.00  0.00    +0.027 A 
ATOM     25  C   UNL     1      11.491   8.963  17.263  0.00  0.00    +0.011 A 
ATOM     28  C   UNL     1      14.208   9.338  16.749  0.00  0.00    +0.016 A 
ATOM     29  C   UNL     1      11.934   9.146  15.952  0.00  0.00    +0.001 A 
ATOM     30  C   UNL     1      13.292   9.333  15.696  0.00  0.00    +0.001 A 
ENDBRANCH  18  21
ENDBRANCH   9  16
BRANCH  10  15
ATOM     15  C   UNL     1      14.294  11.327  24.514  0.00  0.00    +0.124 C 
BRANCH  15   4
ATOM      2  O   UNL     1      15.783  12.719  26.556  0.00  0.00    -0.253 OA
ATOM      4  N   UNL     1      14.351  11.009  25.907  0.00  0.00    -0.298 N 
ATOM      7  N   UNL     1      14.977  11.211  28.123  0.00  0.00    -0.297 N 
ATOM     19  C   UNL     1      15.100  11.736  26.840  0.00  0.00    +0.300 C 
ATOM     31  H   UNL     1      13.823  10.207  26.239  0.00  0.00    +0.150 HD
ATOM     32  H   UNL     1      14.330  10.442  28.270  0.00  0.00    +0.150 HD
BRANCH   7  23
ATOM     23  C   UNL     1      15.649  11.777  29.268  0.00  0.00    +0.068 C 
ATOM     26  C   UNL     1      16.656  10.784  29.837  0.00  0.00    +0.027 C 
ATOM     27  C   UNL     1      14.638  12.204  30.326  0.00  0.00    +0.027 C 
ENDBRANCH   7  23
ENDBRANCH  15   4
ENDBRANCH  10  15
TORSDOF 5
ENDMDL
MODEL 4
REMARK VINA RESULT:      -6.4     26.151     29.533
REMARK  Name = 40777131
REMARK  8 active torsions:
REMARK  status: ('A' for Active; 'I' for Inactive)
REMARK    1  A    between atoms: N_4  and  C_15
REMARK    2  A    between atoms: N_7  and  C_23
REMARK    3  A    between atoms: C_9  and  C_16
REMARK    4  A    between atoms: C_10  and  C_15
REMARK    5  A    between atoms: C_18  and  C_21
REMARK    6  A    between atoms: C_20  and  C_22
REMARK    7  A    between atoms: C_23  and  C_26
REMARK    8  A    between atoms: C_23  and  C_27
REMARK                            x       y       z     vdW  Elec       q    Type
REMARK                         _______ _______ _______ _____ _____    ______ ____
ROOT
ATOM      3  N   UNL     1      -5.492 -11.071  10.613  0.00  0.00    -0.297 NA
ATOM      8  C   UNL     1      -3.166 -11.884  11.455  0.00  0.00    +0.002 C 
ATOM      9  C   UNL     1      -4.215 -11.956  12.600  0.00  0.00    +0.055 C 
ATOM     10  C   UNL     1      -4.445 -10.081  10.247  0.00  0.00    +0.074 C 
ATOM     11  C   UNL     1      -3.100 -10.440  10.914  0.00  0.00    +0.024 C 
ATOM     12  C   UNL     1      -3.696 -12.774  10.310  0.00  0.00    +0.019 C 
ATOM     13  C   UNL     1      -5.512 -11.271  12.084  0.00  0.00    +0.094 C 
ATOM     14  C   UNL     1      -5.140 -12.362   9.975  0.00  0.00    +0.085 C 
ENDROOT
BRANCH   9  16
ATOM      5  N   UNL     1      -2.541 -11.011  14.113  0.00  0.00    -0.237 NA
ATOM      6  N   UNL     1      -3.020 -10.551  16.431  0.00  0.00    -0.232 NA
ATOM     16  C   UNL     1      -3.808 -11.457  13.979  0.00  0.00    +0.050 A 
ATOM     17  C   UNL     1      -4.726 -11.480  15.009  0.00  0.00    +0.052 A 
ATOM     18  C   UNL     1      -4.272 -11.010  16.225  0.00  0.00    +0.076 A 
ATOM     20  C   UNL     1      -2.220 -10.580  15.348  0.00  0.00    +0.127 A 
ATOM     22  C   UNL     1      -0.826 -10.082  15.537  0.00  0.00    +0.088 C 
BRANCH  18  21
ATOM      1 BR   UNL     1      -7.172  -9.756  15.729  0.00  0.00    -0.050 Br
ATOM     21  C   UNL     1      -5.134 -10.984  17.382  0.00  0.00    +0.014 A 
ATOM     24  C   UNL     1      -6.429 -10.468  17.328  0.00  0.00    +0.027 A 
ATOM     25  C   UNL     1      -4.636 -11.493  18.581  0.00  0.00    +0.011 A 
ATOM     28  C   UNL     1      -7.227 -10.463  18.472  0.00  0.00    +0.016 A 
ATOM     29  C   UNL     1      -5.433 -11.488  19.726  0.00  0.00    +0.001 A 
ATOM     30  C   UNL     1      -6.728 -10.973  19.672  0.00  0.00    +0.001 A 
ENDBRANCH  18  21
ENDBRANCH   9  16
BRANCH  10  15
ATOM     15  C   UNL     1      -4.869  -8.643  10.556  0.00  0.00    +0.124 C 
BRANCH  15   4
ATOM      2  O   UNL     1      -7.691  -8.542   9.961  0.00  0.00    -0.253 OA
ATOM      4  N   UNL     1      -5.489  -8.038   9.418  0.00  0.00    -0.298 N 
ATOM      7  N   UNL     1      -7.203  -7.375   8.015  0.00  0.00    -0.297 N 
ATOM     19  C   UNL     1      -6.871  -8.031   9.198  0.00  0.00    +0.300 C 
ATOM     31  H   UNL     1      -4.892  -7.593   8.726  0.00  0.00    +0.150 HD
ATOM     32  H   UNL     1      -6.460  -6.920   7.492  0.00  0.00    +0.150 HD
BRANCH   7  23
ATOM     23  C   UNL     1      -8.564  -7.227   7.558  0.00  0.00    +0.068 C 
ATOM     26  C   UNL     1      -8.619  -7.275   6.036  0.00  0.00    +0.027 C 
ATOM     27  C   UNL     1      -9.171  -5.935   8.092  0.00  0.00    +0.027 C 
ENDBRANCH   7  23
ENDBRANCH  15   4
ENDBRANCH  10  15
TORSDOF 5
ENDMDL
MODEL 5
REMARK VINA RESULT:      -6.3     27.983     32.000
REMARK  Name = 40777131
REMARK  8 active torsions:
REMARK  status: ('A' for Active; 'I' for Inactive)
REMARK    1  A    between atoms: N_4  and  C_15
REMARK    2  A    between atoms: N_7  and  C_23
REMARK    3  A    between atoms: C_9  and  C_16
REMARK    4  A    between atoms: C_10  and  C_15
REMARK    5  A    between atoms: C_18  and  C_21
REMARK    6  A    between atoms: C_20  and  C_22
REMARK    7  A    between atoms: C_23  and  C_26
REMARK    8  A    between atoms: C_23  and  C_27
REMARK                            x       y       z     vdW  Elec       q    Type
REMARK                         _______ _______ _______ _____ _____    ______ ____
ROOT
ATOM      3  N   UNL     1     -18.716   2.769  26.127  0.00  0.00    -0.297 NA
ATOM      8  C   UNL     1     -16.879   0.924  26.111  0.00  0.00    +0.002 C 
ATOM      9  C   UNL     1     -17.355   1.206  27.564  0.00  0.00    +0.055 C 
ATOM     10  C   UNL     1     -17.547   3.223  25.328  0.00  0.00    +0.074 C 
ATOM     11  C   UNL     1     -16.370   2.236  25.477  0.00  0.00    +0.024 C 
ATOM     12  C   UNL     1     -18.126   0.488  25.312  0.00  0.00    +0.019 C 
ATOM     13  C   UNL     1     -18.292   2.447  27.512  0.00  0.00    +0.094 C 
ATOM     14  C   UNL     1     -19.241   1.531  25.502  0.00  0.00    +0.085 C 
ENDROOT
BRANCH   9  16
ATOM      5  N   UNL     1     -15.394   0.327  28.734  0.00  0.00    -0.237 NA
ATOM      6  N   UNL     1     -14.385   1.481  30.594  0.00  0.00    -0.232 NA
ATOM     16  C   UNL     1     -16.300   1.325  28.655  0.00  0.00    +0.050 A 
ATOM     17  C   UNL     1     -16.312   2.418  29.497  0.00  0.00    +0.052 A 
ATOM     18  C   UNL     1     -15.321   2.443  30.457  0.00  0.00    +0.076 A 
ATOM     20  C   UNL     1     -14.480   0.468  29.712  0.00  0.00    +0.127 A 
ATOM     22  C   UNL     1     -13.462  -0.617  29.833  0.00  0.00    +0.088 C 
BRANCH  18  21
ATOM      1 BR   UNL     1     -14.743   1.574  33.480  0.00  0.00    -0.050 Br
ATOM     21  C   UNL     1     -15.226   3.531  31.400  0.00  0.00    +0.014 A 
ATOM     24  C   UNL     1     -14.978   3.316  32.756  0.00  0.00    +0.027 A 
ATOM     25  C   UNL     1     -15.392   4.829  30.920  0.00  0.00    +0.011 A 
ATOM     28  C   UNL     1     -14.895   4.399  33.631  0.00  0.00    +0.016 A 
ATOM     29  C   UNL     1     -15.310   5.913  31.794  0.00  0.00    +0.001 A 
ATOM     30  C   UNL     1     -15.061   5.698  33.150  0.00  0.00    +0.001 A 
ENDBRANCH  18  21
ENDBRANCH   9  16
BRANCH  10  15
ATOM     15  C   UNL     1     -17.134   4.658  25.662  0.00  0.00    +0.124 C 
BRANCH  15   4
ATOM      2  O   UNL     1     -16.872   5.837  23.042  0.00  0.00    -0.253 OA
ATOM      4  N   UNL     1     -15.919   5.008  24.992  0.00  0.00    -0.298 N 
ATOM      7  N   UNL     1     -14.566   5.819  23.302  0.00  0.00    -0.297 N 
ATOM     19  C   UNL     1     -15.874   5.579  23.715  0.00  0.00    +0.300 C 
ATOM     31  H   UNL     1     -15.039   4.828  25.466  0.00  0.00    +0.150 HD
ATOM     32  H   UNL     1     -13.813   5.641  23.960  0.00  0.00    +0.150 HD
BRANCH   7  23
ATOM     23  C   UNL     1     -14.245   6.403  22.022  0.00  0.00    +0.068 C 
ATOM     26  C   UNL     1     -12.854   5.969  21.575  0.00  0.00    +0.027 C 
ATOM     27  C   UNL     1     -14.354   7.922  22.084  0.00  0.00    +0.027 C 
ENDBRANCH   7  23
ENDBRANCH  15   4
ENDBRANCH  10  15
TORSDOF 5
ENDMDL
MODEL 6
REMARK VINA RESULT:      -6.2     14.346     18.148
REMARK  Name = 40777131
REMARK  8 active torsions:
REMARK  status: ('A' for Active; 'I' for Inactive)
REMARK    1  A    between atoms: N_4  and  C_15
REMARK    2  A    between atoms: N_7  and  C_23
REMARK    3  A    between atoms: C_9  and  C_16
REMARK    4  A    between atoms: C_10  and  C_15
REMARK    5  A    between atoms: C_18  and  C_21
REMARK    6  A    between atoms: C_20  and  C_22
REMARK    7  A    between atoms: C_23  and  C_26
REMARK    8  A    between atoms: C_23  and  C_27
REMARK                            x       y       z     vdW  Elec       q    Type
REMARK                         _______ _______ _______ _____ _____    ______ ____
ROOT
ATOM      3  N   UNL     1      10.097   6.925   7.499  0.00  0.00    -0.297 NA
ATOM      8  C   UNL     1       9.760   5.104   5.668  0.00  0.00    +0.002 C 
ATOM      9  C   UNL     1      11.123   5.825   5.475  0.00  0.00    +0.055 C 
ATOM     10  C   UNL     1       8.760   7.080   6.869  0.00  0.00    +0.074 C 
ATOM     11  C   UNL     1       8.623   6.148   5.646  0.00  0.00    +0.024 C 
ATOM     12  C   UNL     1       9.781   4.487   7.084  0.00  0.00    +0.019 C 
ATOM     13  C   UNL     1      11.161   7.021   6.468  0.00  0.00    +0.094 C 
ATOM     14  C   UNL     1      10.160   5.573   8.105  0.00  0.00    +0.085 C 
ENDROOT
BRANCH   9  16
ATOM      5  N   UNL     1      11.921   7.513   3.894  0.00  0.00    -0.237 NA
ATOM      6  N   UNL     1      12.256   7.027   1.557  0.00  0.00    -0.232 NA
ATOM     16  C   UNL     1      11.525   6.234   4.064  0.00  0.00    +0.050 A 
ATOM     17  C   UNL     1      11.469   5.306   3.045  0.00  0.00    +0.052 A 
ATOM     18  C   UNL     1      11.850   5.764   1.800  0.00  0.00    +0.076 A 
ATOM     20  C   UNL     1      12.266   7.836   2.633  0.00  0.00    +0.127 A 
ATOM     22  C   UNL     1      12.708   9.243   2.404  0.00  0.00    +0.088 C 
BRANCH  18  21
ATOM      1 BR   UNL     1      14.367   3.806   1.545  0.00  0.00    -0.050 Br
ATOM     21  C   UNL     1      11.835   4.892   0.649  0.00  0.00    +0.014 A 
ATOM     24  C   UNL     1      12.861   3.981   0.398  0.00  0.00    +0.027 A 
ATOM     25  C   UNL     1      10.752   4.981  -0.224  0.00  0.00    +0.011 A 
ATOM     28  C   UNL     1      12.803   3.158  -0.727  0.00  0.00    +0.016 A 
ATOM     29  C   UNL     1      10.694   4.159  -1.350  0.00  0.00    +0.001 A 
ATOM     30  C   UNL     1      11.719   3.247  -1.601  0.00  0.00    +0.001 A 
ENDBRANCH  18  21
ENDBRANCH   9  16
BRANCH  10  15
ATOM     15  C   UNL     1       8.449   8.536   6.513  0.00  0.00    +0.124 C 
BRANCH  15   4
ATOM      2  O   UNL     1       7.853  10.836   4.875  0.00  0.00    -0.253 OA
ATOM      4  N   UNL     1       7.507   8.608   5.438  0.00  0.00    -0.298 N 
ATOM      7  N   UNL     1       6.307   9.559   3.707  0.00  0.00    -0.297 N 
ATOM     19  C   UNL     1       7.273   9.766   4.688  0.00  0.00    +0.300 C 
ATOM     31  H   UNL     1       6.973   7.775   5.211  0.00  0.00    +0.150 HD
ATOM     32  H   UNL     1       5.940   8.620   3.582  0.00  0.00    +0.150 HD
BRANCH   7  23
ATOM     23  C   UNL     1       5.882  10.595   2.795  0.00  0.00    +0.068 C 
ATOM     26  C   UNL     1       4.486  11.083   3.162  0.00  0.00    +0.027 C 
ATOM     27  C   UNL     1       5.932  10.096   1.356  0.00  0.00    +0.027 C 
ENDBRANCH   7  23
ENDBRANCH  15   4
ENDBRANCH  10  15
TORSDOF 5
ENDMDL
MODEL 7
REMARK VINA RESULT:      -6.2      3.477      7.119
REMARK  Name = 40777131
REMARK  8 active torsions:
REMARK  status: ('A' for Active; 'I' for Inactive)
REMARK    1  A    between atoms: N_4  and  C_15
REMARK    2  A    between atoms: N_7  and  C_23
REMARK    3  A    between atoms: C_9  and  C_16
REMARK    4  A    between atoms: C_10  and  C_15
REMARK    5  A    between atoms: C_18  and  C_21
REMARK    6  A    between atoms: C_20  and  C_22
REMARK    7  A    between atoms: C_23  and  C_26
REMARK    8  A    between atoms: C_23  and  C_27
REMARK                            x       y       z     vdW  Elec       q    Type
REMARK                         _______ _______ _______ _____ _____    ______ ____
ROOT
ATOM      3  N   UNL     1      13.023   7.044  19.469  0.00  0.00    -0.297 NA
ATOM      8  C   UNL     1      12.474   8.061  21.803  0.00  0.00    +0.002 C 
ATOM      9  C   UNL     1      11.977   9.001  20.669  0.00  0.00    +0.055 C 
ATOM     10  C   UNL     1      14.237   7.031  20.328  0.00  0.00    +0.074 C 
ATOM     11  C   UNL     1      13.988   7.814  21.634  0.00  0.00    +0.024 C 
ATOM     12  C   UNL     1      11.767   6.704  21.597  0.00  0.00    +0.019 C 
ATOM     13  C   UNL     1      12.517   8.432  19.326  0.00  0.00    +0.094 C 
ATOM     14  C   UNL     1      11.979   6.238  20.146  0.00  0.00    +0.085 C 
ENDROOT
BRANCH   9  16
ATOM      5  N   UNL     1      13.324  10.982  20.173  0.00  0.00    -0.237 NA
ATOM      6  N   UNL     1      12.758  13.165  21.024  0.00  0.00    -0.232 NA
ATOM     16  C   UNL     1      12.237  10.494  20.808  0.00  0.00    +0.050 A 
ATOM     17  C   UNL     1      11.376  11.268  21.559  0.00  0.00    +0.052 A 
ATOM     18  C   UNL     1      11.689  12.610  21.633  0.00  0.00    +0.076 A 
ATOM     20  C   UNL     1      13.521  12.306  20.322  0.00  0.00    +0.127 A 
ATOM     22  C   UNL     1      14.713  12.883  19.636  0.00  0.00    +0.088 C 
BRANCH  18  21
ATOM      1 BR   UNL     1      12.317  12.727  24.767  0.00  0.00    -0.050 Br
ATOM     21  C   UNL     1      10.868  13.526  22.389  0.00  0.00    +0.014 A 
ATOM     24  C   UNL     1      11.018  13.690  23.766  0.00  0.00    +0.027 A 
ATOM     25  C   UNL     1       9.899  14.256  21.701  0.00  0.00    +0.011 A 
ATOM     28  C   UNL     1      10.201  14.586  24.455  0.00  0.00    +0.016 A 
ATOM     29  C   UNL     1       9.081  15.152  22.390  0.00  0.00    +0.001 A 
ATOM     30  C   UNL     1       9.232  15.317  23.766  0.00  0.00    +0.001 A 
ENDBRANCH  18  21
ENDBRANCH   9  16
BRANCH  10  15
ATOM     15  C   UNL     1      15.479   7.534  19.589  0.00  0.00    +0.124 C 
BRANCH  15   4
ATOM      2  O   UNL     1      17.995   8.359  20.735  0.00  0.00    -0.253 OA
ATOM      4  N   UNL     1      16.611   6.706  19.870  0.00  0.00    -0.298 N 
ATOM      7  N   UNL     1      18.738   6.165  20.596  0.00  0.00    -0.297 N 
ATOM     19  C   UNL     1      17.802   7.183  20.429  0.00  0.00    +0.300 C 
ATOM     31  H   UNL     1      16.550   5.717  19.646  0.00  0.00    +0.150 HD
ATOM     32  H   UNL     1      18.457   5.212  20.383  0.00  0.00    +0.150 HD
BRANCH   7  23
ATOM     23  C   UNL     1      20.050   6.392  21.154  0.00  0.00    +0.068 C 
ATOM     26  C   UNL     1      21.023   5.324  20.671  0.00  0.00    +0.027 C 
ATOM     27  C   UNL     1      19.984   6.431  22.676  0.00  0.00    +0.027 C 
ENDBRANCH   7  23
ENDBRANCH  15   4
ENDBRANCH  10  15
TORSDOF 5
ENDMDL
MODEL 8
REMARK VINA RESULT:      -6.1     26.043     29.400
REMARK  Name = 40777131
REMARK  8 active torsions:
REMARK  status: ('A' for Active; 'I' for Inactive)
REMARK    1  A    between atoms: N_4  and  C_15
REMARK    2  A    between atoms: N_7  and  C_23
REMARK    3  A    between atoms: C_9  and  C_16
REMARK    4  A    between atoms: C_10  and  C_15
REMARK    5  A    between atoms: C_18  and  C_21
REMARK    6  A    between atoms: C_20  and  C_22
REMARK    7  A    between atoms: C_23  and  C_26
REMARK    8  A    between atoms: C_23  and  C_27
REMARK                            x       y       z     vdW  Elec       q    Type
REMARK                         _______ _______ _______ _____ _____    ______ ____
ROOT
ATOM      3  N   UNL     1      -6.656 -11.103  18.566  0.00  0.00    -0.297 NA
ATOM      8  C   UNL     1      -6.390 -12.585  16.441  0.00  0.00    +0.002 C 
ATOM      9  C   UNL     1      -5.008 -12.049  16.907  0.00  0.00    +0.055 C 
ATOM     10  C   UNL     1      -7.621 -10.671  17.521  0.00  0.00    +0.074 C 
ATOM     11  C   UNL     1      -7.341 -11.396  16.187  0.00  0.00    +0.024 C 
ATOM     12  C   UNL     1      -6.976 -13.389  17.622  0.00  0.00    +0.019 C 
ATOM     13  C   UNL     1      -5.269 -11.020  18.044  0.00  0.00    +0.094 C 
ATOM     14  C   UNL     1      -6.944 -12.520  18.892  0.00  0.00    +0.085 C 
ENDROOT
BRANCH   9  16
ATOM      5  N   UNL     1      -2.885 -11.001  16.293  0.00  0.00    -0.237 NA
ATOM      6  N   UNL     1      -2.301 -10.528  14.002  0.00  0.00    -0.232 NA
ATOM     16  C   UNL     1      -4.053 -11.511  15.850  0.00  0.00    +0.050 A 
ATOM     17  C   UNL     1      -4.412 -11.563  14.519  0.00  0.00    +0.052 A 
ATOM     18  C   UNL     1      -3.487 -11.053  13.630  0.00  0.00    +0.076 A 
ATOM     20  C   UNL     1      -2.069 -10.534  15.328  0.00  0.00    +0.127 A 
ATOM     22  C   UNL     1      -0.767  -9.960  15.778  0.00  0.00    +0.088 C 
BRANCH  18  21
ATOM      1 BR   UNL     1      -2.823 -13.793  12.121  0.00  0.00    -0.050 Br
ATOM     21  C   UNL     1      -3.744 -11.048  12.210  0.00  0.00    +0.014 A 
ATOM     24  C   UNL     1      -3.504 -12.166  11.411  0.00  0.00    +0.027 A 
ATOM     25  C   UNL     1      -4.244  -9.878  11.640  0.00  0.00    +0.011 A 
ATOM     28  C   UNL     1      -3.767 -12.115  10.042  0.00  0.00    +0.016 A 
ATOM     29  C   UNL     1      -4.506  -9.825  10.271  0.00  0.00    +0.001 A 
ATOM     30  C   UNL     1      -4.268 -10.944   9.472  0.00  0.00    +0.001 A 
ENDBRANCH  18  21
ENDBRANCH   9  16
BRANCH  10  15
ATOM     15  C   UNL     1      -7.651  -9.151  17.348  0.00  0.00    +0.124 C 
BRANCH  15   4
ATOM      2  O   UNL     1      -9.536  -8.606  15.232  0.00  0.00    -0.253 OA
ATOM      4  N   UNL     1      -8.983  -8.647  17.488  0.00  0.00    -0.298 N 
ATOM      7  N   UNL     1     -11.075  -7.919  16.828  0.00  0.00    -0.297 N 
ATOM     19  C   UNL     1      -9.840  -8.407  16.408  0.00  0.00    +0.300 C 
ATOM     31  H   UNL     1      -9.324  -8.446  18.423  0.00  0.00    +0.150 HD
ATOM     32  H   UNL     1     -11.256  -7.860  17.825  0.00  0.00    +0.150 HD
BRANCH   7  23
ATOM     23  C   UNL     1     -12.139  -7.591  15.910  0.00  0.00    +0.068 C 
ATOM     26  C   UNL     1     -12.194  -6.086  15.677  0.00  0.00    +0.027 C 
ATOM     27  C   UNL     1     -13.473  -8.118  16.426  0.00  0.00    +0.027 C 
ENDBRANCH   7  23
ENDBRANCH  15   4
ENDBRANCH  10  15
TORSDOF 5
ENDMDL
MODEL 9
REMARK VINA RESULT:      -6.0     13.222     15.539
REMARK  Name = 40777131
REMARK  8 active torsions:
REMARK  status: ('A' for Active; 'I' for Inactive)
REMARK    1  A    between atoms: N_4  and  C_15
REMARK    2  A    between atoms: N_7  and  C_23
REMARK    3  A    between atoms: C_9  and  C_16
REMARK    4  A    between atoms: C_10  and  C_15
REMARK    5  A    between atoms: C_18  and  C_21
REMARK    6  A    between atoms: C_20  and  C_22
REMARK    7  A    between atoms: C_23  and  C_26
REMARK    8  A    between atoms: C_23  and  C_27
REMARK                            x       y       z     vdW  Elec       q    Type
REMARK                         _______ _______ _______ _____ _____    ______ ____
ROOT
ATOM      3  N   UNL     1      17.887  -3.125  32.222  0.00  0.00    -0.297 NA
ATOM      8  C   UNL     1      16.516  -2.962  30.014  0.00  0.00    +0.002 C 
ATOM      9  C   UNL     1      17.991  -3.346  29.711  0.00  0.00    +0.055 C 
ATOM     10  C   UNL     1      17.136  -1.843  32.183  0.00  0.00    +0.074 C 
ATOM     11  C   UNL     1      16.485  -1.634  30.800  0.00  0.00    +0.024 C 
ATOM     12  C   UNL     1      15.955  -4.055  30.949  0.00  0.00    +0.019 C 
ATOM     13  C   UNL     1      18.784  -3.225  31.044  0.00  0.00    +0.094 C 
ATOM     14  C   UNL     1      16.902  -4.231  32.149  0.00  0.00    +0.085 C 
ENDROOT
BRANCH   9  16
ATOM      5  N   UNL     1      19.829  -1.979  28.852  0.00  0.00    -0.237 NA
ATOM      6  N   UNL     1      19.997  -1.368  26.527  0.00  0.00    -0.232 NA
ATOM     16  C   UNL     1      18.694  -2.646  28.556  0.00  0.00    +0.050 A 
ATOM     17  C   UNL     1      18.155  -2.718  27.288  0.00  0.00    +0.052 A 
ATOM     18  C   UNL     1      18.857  -2.054  26.303  0.00  0.00    +0.076 A 
ATOM     20  C   UNL     1      20.419  -1.372  27.805  0.00  0.00    +0.127 A 
ATOM     22  C   UNL     1      21.677  -0.622  28.093  0.00  0.00    +0.088 C 
BRANCH  18  21
ATOM      1 BR   UNL     1      20.020  -4.407  24.475  0.00  0.00    -0.050 Br
ATOM     21  C   UNL     1      18.397  -2.052  24.934  0.00  0.00    +0.014 A 
ATOM     24  C   UNL     1      18.813  -3.012  24.012  0.00  0.00    +0.027 A 
ATOM     25  C   UNL     1      17.511  -1.048  24.544  0.00  0.00    +0.011 A 
ATOM     28  C   UNL     1      18.343  -2.970  22.700  0.00  0.00    +0.016 A 
ATOM     29  C   UNL     1      17.040  -1.005  23.231  0.00  0.00    +0.001 A 
ATOM     30  C   UNL     1      17.456  -1.966  22.309  0.00  0.00    +0.001 A 
ENDBRANCH  18  21
ENDBRANCH   9  16
BRANCH  10  15
ATOM     15  C   UNL     1      18.001  -0.648  32.592  0.00  0.00    +0.124 C 
BRANCH  15   4
ATOM      2  O   UNL     1      18.919   2.025  33.173  0.00  0.00    -0.253 OA
ATOM      4  N   UNL     1      17.425   0.579  32.136  0.00  0.00    -0.298 N 
ATOM      7  N   UNL     1      17.179   2.864  31.887  0.00  0.00    -0.297 N 
ATOM     19  C   UNL     1      17.930   1.843  32.463  0.00  0.00    +0.300 C 
ATOM     31  H   UNL     1      16.600   0.532  31.546  0.00  0.00    +0.150 HD
ATOM     32  H   UNL     1      16.426   2.611  31.255  0.00  0.00    +0.150 HD
BRANCH   7  23
ATOM     23  C   UNL     1      17.490   4.262  32.069  0.00  0.00    +0.068 C 
ATOM     26  C   UNL     1      17.035   4.732  33.445  0.00  0.00    +0.027 C 
ATOM     27  C   UNL     1      16.858   5.099  30.963  0.00  0.00    +0.027 C 
ENDBRANCH   7  23
ENDBRANCH  15   4
ENDBRANCH  10  15
TORSDOF 5
ENDMDL
MODEL 10
REMARK VINA RESULT:      -6.0     26.735     30.164
REMARK  Name = 40777131
REMARK  8 active torsions:
REMARK  status: ('A' for Active; 'I' for Inactive)
REMARK    1  A    between atoms: N_4  and  C_15
REMARK    2  A    between atoms: N_7  and  C_23
REMARK    3  A    between atoms: C_9  and  C_16
REMARK    4  A    between atoms: C_10  and  C_15
REMARK    5  A    between atoms: C_18  and  C_21
REMARK    6  A    between atoms: C_20  and  C_22
REMARK    7  A    between atoms: C_23  and  C_26
REMARK    8  A    between atoms: C_23  and  C_27
REMARK                            x       y       z     vdW  Elec       q    Type
REMARK                         _______ _______ _______ _____ _____    ______ ____
ROOT
ATOM      3  N   UNL     1     -16.313   2.674  25.564  0.00  0.00    -0.297 NA
ATOM      8  C   UNL     1     -17.817   3.870  23.806  0.00  0.00    +0.002 C 
ATOM      9  C   UNL     1     -16.314   4.093  23.478  0.00  0.00    +0.055 C 
ATOM     10  C   UNL     1     -17.342   3.498  26.252  0.00  0.00    +0.074 C 
ATOM     11  C   UNL     1     -18.107   4.373  25.237  0.00  0.00    +0.024 C 
ATOM     12  C   UNL     1     -18.051   2.344  23.806  0.00  0.00    +0.019 C 
ATOM     13  C   UNL     1     -15.491   3.528  24.671  0.00  0.00    +0.094 C 
ATOM     14  C   UNL     1     -17.017   1.673  24.728  0.00  0.00    +0.085 C 
ENDROOT
BRANCH   9  16
ATOM      5  N   UNL     1     -16.416   6.521  23.755  0.00  0.00    -0.237 NA
ATOM      6  N   UNL     1     -15.103   8.024  22.403  0.00  0.00    -0.232 NA
ATOM     16  C   UNL     1     -15.866   5.491  23.078  0.00  0.00    +0.050 A 
ATOM     17  C   UNL     1     -14.941   5.646  22.066  0.00  0.00    +0.052 A 
ATOM     18  C   UNL     1     -14.593   6.948  21.769  0.00  0.00    +0.076 A 
ATOM     20  C   UNL     1     -15.996   7.741  23.371  0.00  0.00    +0.127 A 
ATOM     22  C   UNL     1     -16.583   8.906  24.095  0.00  0.00    +0.088 C 
BRANCH  18  21
ATOM      1 BR   UNL     1     -15.863   7.744  18.943  0.00  0.00    -0.050 Br
ATOM     21  C   UNL     1     -13.637   7.244  20.729  0.00  0.00    +0.014 A 
ATOM     24  C   UNL     1     -14.033   7.606  19.441  0.00  0.00    +0.027 A 
ATOM     25  C   UNL     1     -12.281   7.157  21.043  0.00  0.00    +0.011 A 
ATOM     28  C   UNL     1     -13.073   7.883  18.468  0.00  0.00    +0.016 A 
ATOM     29  C   UNL     1     -11.320   7.432  20.069  0.00  0.00    +0.001 A 
ATOM     30  C   UNL     1     -11.716   7.796  18.782  0.00  0.00    +0.001 A 
ENDBRANCH  18  21
ENDBRANCH   9  16
BRANCH  10  15
ATOM     15  C   UNL     1     -16.754   4.331  27.393  0.00  0.00    +0.124 C 
BRANCH  15   4
ATOM      2  O   UNL     1     -16.827   2.542  29.656  0.00  0.00    -0.253 OA
ATOM      4  N   UNL     1     -15.645   3.658  27.997  0.00  0.00    -0.298 N 
ATOM      7  N   UNL     1     -14.527   2.284  29.482  0.00  0.00    -0.297 N 
ATOM     19  C   UNL     1     -15.761   2.802  29.098  0.00  0.00    +0.300 C 
ATOM     31  H   UNL     1     -14.719   3.815  27.609  0.00  0.00    +0.150 HD
ATOM     32  H   UNL     1     -13.715   2.500  28.912  0.00  0.00    +0.150 HD
BRANCH   7  23
ATOM     23  C   UNL     1     -14.372   1.373  30.592  0.00  0.00    +0.068 C 
ATOM     26  C   UNL     1     -13.626   2.052  31.734  0.00  0.00    +0.027 C 
ATOM     27  C   UNL     1     -13.659   0.102  30.146  0.00  0.00    +0.027 C 
ENDBRANCH   7  23
ENDBRANCH  15   4
ENDBRANCH  10  15
TORSDOF 5
ENDMDL
