MODEL 1
REMARK VINA RESULT:      -6.5      0.000      0.000
REMARK  Name = 45361714
REMARK  7 active torsions:
REMARK  status: ('A' for Active; 'I' for Inactive)
REMARK    1  A    between atoms: N_9  and  C_29
REMARK    2  A    between atoms: C_12  and  C_26
REMARK    3  A    between atoms: C_14  and  C_18
REMARK    4  A    between atoms: C_16  and  C_19
REMARK    5  A    between atoms: C_29  and  C_30
REMARK    6  A    between atoms: C_29  and  C_32
REMARK    7  A    between atoms: C_30  and  C_31
REMARK                            x       y       z     vdW  Elec       q    Type
REMARK                         _______ _______ _______ _____ _____    ______ ____
ROOT
ATOM      1  O   UNL     1     -10.187  -9.201  11.293  0.00  0.00    -0.275 OA
ATOM      2  O   UNL     1      -6.182 -12.286  16.601  0.00  0.00    -0.275 OA
ATOM      5  N   UNL     1      -8.577 -10.219  12.627  0.00  0.00    -0.287 N 
ATOM      6  N   UNL     1      -7.556 -10.987  15.249  0.00  0.00    -0.298 N 
ATOM     12  C   UNL     1      -7.392 -11.077  12.763  0.00  0.00    +0.179 C 
ATOM     13  C   UNL     1      -7.370 -11.851  14.080  0.00  0.00    +0.139 C 
ATOM     15  C   UNL     1      -9.323  -9.926  13.854  0.00  0.00    +0.127 C 
ATOM     17  C   UNL     1      -8.424  -9.818  15.080  0.00  0.00    +0.127 C 
ATOM     18  C   UNL     1      -9.116  -9.803  11.405  0.00  0.00    +0.219 C 
ATOM     19  C   UNL     1      -6.913 -11.305  16.448  0.00  0.00    +0.219 C 
ENDROOT
BRANCH  18  14
ATOM      7  N   UNL     1      -9.943  -9.687   7.767  0.00  0.00    -0.316 NA
ATOM     14  C   UNL     1      -8.323 -10.131  10.171  0.00  0.00    +0.078 C 
ATOM     20  C   UNL     1      -8.972 -11.278   9.394  0.00  0.00    +0.028 C 
ATOM     21  C   UNL     1      -8.159  -8.893   9.285  0.00  0.00    +0.028 C 
ATOM     24  C   UNL     1     -10.224 -10.830   8.636  0.00  0.00    +0.081 C 
ATOM     25  C   UNL     1      -9.444  -8.546   8.532  0.00  0.00    +0.081 C 
ATOM     40  H   UNL     1     -10.796  -9.419   7.277  0.00  0.00    +0.122 HD
ENDBRANCH  18  14
BRANCH  19  16
ATOM      8  N   UNL     1      -7.090 -11.843  20.137  0.00  0.00    -0.316 NA
ATOM     16  C   UNL     1      -7.160 -10.374  17.600  0.00  0.00    +0.078 C 
ATOM     22  C   UNL     1      -5.952 -10.337  18.539  0.00  0.00    +0.028 C 
ATOM     23  C   UNL     1      -8.430 -10.767  18.358  0.00  0.00    +0.028 C 
ATOM     27  C   UNL     1      -5.851 -11.596  19.402  0.00  0.00    +0.081 C 
ATOM     28  C   UNL     1      -8.224 -12.009  19.229  0.00  0.00    +0.081 C 
ATOM     41  H   UNL     1      -6.985 -12.686  20.702  0.00  0.00    +0.122 HD
ENDBRANCH  19  16
BRANCH  12  26
ATOM      3  O   UNL     1      -6.264  -8.995  12.447  0.00  0.00    -0.274 OA
ATOM      9  N   UNL     1      -5.001 -10.914  12.822  0.00  0.00    -0.302 N 
ATOM     26  C   UNL     1      -6.177 -10.200  12.664  0.00  0.00    +0.236 C 
ATOM     42  H   UNL     1      -5.051 -11.899  13.069  0.00  0.00    +0.150 HD
BRANCH   9  29
ATOM     29  C   UNL     1      -3.692 -10.308  12.747  0.00  0.00    +0.163 C 
BRANCH  29  32
ATOM      4  O   UNL     1      -1.780 -11.246  13.918  0.00  0.00    -0.274 OA
ATOM     11  N   UNL     1      -3.594 -10.560  15.149  0.00  0.00    -0.328 N 
ATOM     32  C   UNL     1      -2.913 -10.773  13.969  0.00  0.00    +0.231 C 
ATOM     44  H   UNL     1      -3.182 -10.814  16.041  0.00  0.00    +0.145 HD
ATOM     45  H   UNL     1      -4.521 -10.148  15.178  0.00  0.00    +0.145 HD
ENDBRANCH  29  32
BRANCH  29  30
ATOM     30  C   UNL     1      -2.948 -10.689  11.462  0.00  0.00    +0.069 C 
BRANCH  30  31
ATOM     10  N   UNL     1      -4.329  -8.778   8.633  0.00  0.00    -0.360 N 
ATOM     31  C   UNL     1      -3.620 -10.160  10.219  0.00  0.00    -0.020 A 
ATOM     33  C   UNL     1      -4.373 -10.913   9.277  0.00  0.00    +0.003 A 
ATOM     34  C   UNL     1      -3.610  -8.850   9.797  0.00  0.00    +0.087 A 
ATOM     35  C   UNL     1      -4.805 -10.023   8.291  0.00  0.00    +0.047 A 
ATOM     36  C   UNL     1      -4.728 -12.272   9.165  0.00  0.00    +0.010 A 
ATOM     37  C   UNL     1      -5.580 -10.426   7.198  0.00  0.00    +0.026 A 
ATOM     38  C   UNL     1      -5.502 -12.690   8.076  0.00  0.00    +0.001 A 
ATOM     39  C   UNL     1      -5.921 -11.779   7.109  0.00  0.00    +0.002 A 
ATOM     43  H   UNL     1      -4.487  -7.933   8.102  0.00  0.00    +0.165 HD
ENDBRANCH  30  31
ENDBRANCH  29  30
ENDBRANCH   9  29
ENDBRANCH  12  26
TORSDOF 7
ENDMDL
MODEL 2
REMARK VINA RESULT:      -6.4      3.291      8.303
REMARK  Name = 45361714
REMARK  7 active torsions:
REMARK  status: ('A' for Active; 'I' for Inactive)
REMARK    1  A    between atoms: N_9  and  C_29
REMARK    2  A    between atoms: C_12  and  C_26
REMARK    3  A    between atoms: C_14  and  C_18
REMARK    4  A    between atoms: C_16  and  C_19
REMARK    5  A    between atoms: C_29  and  C_30
REMARK    6  A    between atoms: C_29  and  C_32
REMARK    7  A    between atoms: C_30  and  C_31
REMARK                            x       y       z     vdW  Elec       q    Type
REMARK                         _______ _______ _______ _____ _____    ______ ____
ROOT
ATOM      1  O   UNL     1     -10.628  -9.322  14.053  0.00  0.00    -0.275 OA
ATOM      2  O   UNL     1      -3.502 -10.815  14.901  0.00  0.00    -0.275 OA
ATOM      5  N   UNL     1      -8.482  -9.822  14.796  0.00  0.00    -0.287 N 
ATOM      6  N   UNL     1      -5.735 -10.652  14.275  0.00  0.00    -0.298 N 
ATOM     12  C   UNL     1      -7.469  -9.816  15.860  0.00  0.00    +0.179 C 
ATOM     13  C   UNL     1      -6.046  -9.673  15.321  0.00  0.00    +0.139 C 
ATOM     15  C   UNL     1      -8.006 -10.082  13.435  0.00  0.00    +0.127 C 
ATOM     17  C   UNL     1      -6.834 -11.054  13.393  0.00  0.00    +0.127 C 
ATOM     18  C   UNL     1      -9.818  -9.448  14.975  0.00  0.00    +0.219 C 
ATOM     19  C   UNL     1      -4.433 -11.148  14.164  0.00  0.00    +0.219 C 
ENDROOT
BRANCH  18  14
ATOM      7  N   UNL     1     -12.262  -7.039  16.445  0.00  0.00    -0.316 NA
ATOM     14  C   UNL     1     -10.262  -9.184  16.386  0.00  0.00    +0.078 C 
ATOM     20  C   UNL     1      -9.921  -7.753  16.806  0.00  0.00    +0.028 C 
ATOM     21  C   UNL     1     -11.759  -9.459  16.546  0.00  0.00    +0.028 C 
ATOM     24  C   UNL     1     -10.860  -6.723  16.174  0.00  0.00    +0.081 C 
ATOM     25  C   UNL     1     -12.621  -8.358  15.925  0.00  0.00    +0.081 C 
ATOM     40  H   UNL     1     -12.857  -6.333  16.012  0.00  0.00    +0.122 HD
ENDBRANCH  18  14
BRANCH  19  16
ATOM      8  N   UNL     1      -1.356 -12.870  12.941  0.00  0.00    -0.316 NA
ATOM     16  C   UNL     1      -4.194 -12.141  13.063  0.00  0.00    +0.078 C 
ATOM     22  C   UNL     1      -3.659 -13.459  13.626  0.00  0.00    +0.028 C 
ATOM     23  C   UNL     1      -3.243 -11.569  12.009  0.00  0.00    +0.028 C 
ATOM     27  C   UNL     1      -2.189 -13.358  14.039  0.00  0.00    +0.081 C 
ATOM     28  C   UNL     1      -1.791 -11.548  12.491  0.00  0.00    +0.081 C 
ATOM     41  H   UNL     1      -0.386 -12.819  13.251  0.00  0.00    +0.122 HD
ENDBRANCH  19  16
BRANCH  12  26
ATOM      3  O   UNL     1      -8.519 -11.889  16.418  0.00  0.00    -0.274 OA
ATOM      9  N   UNL     1      -6.597 -11.255  17.568  0.00  0.00    -0.302 N 
ATOM     26  C   UNL     1      -7.600 -11.102  16.626  0.00  0.00    +0.236 C 
ATOM     42  H   UNL     1      -5.845 -10.572  17.604  0.00  0.00    +0.150 HD
BRANCH   9  29
ATOM     29  C   UNL     1      -6.509 -12.396  18.451  0.00  0.00    +0.163 C 
BRANCH  29  32
ATOM      4  O   UNL     1      -4.288 -12.007  19.356  0.00  0.00    -0.274 OA
ATOM     11  N   UNL     1      -4.621 -13.838  18.011  0.00  0.00    -0.328 N 
ATOM     32  C   UNL     1      -5.031 -12.690  18.655  0.00  0.00    +0.231 C 
ATOM     44  H   UNL     1      -3.659 -14.156  18.075  0.00  0.00    +0.145 HD
ATOM     45  H   UNL     1      -5.251 -14.405  17.452  0.00  0.00    +0.145 HD
ENDBRANCH  29  32
BRANCH  29  30
ATOM     30  C   UNL     1      -7.194 -12.140  19.799  0.00  0.00    +0.069 C 
BRANCH  30  31
ATOM     10  N   UNL     1     -10.361 -14.020  19.851  0.00  0.00    -0.360 N 
ATOM     31  C   UNL     1      -8.614 -12.651  19.838  0.00  0.00    -0.020 A 
ATOM     33  C   UNL     1      -9.795 -11.864  19.930  0.00  0.00    +0.003 A 
ATOM     34  C   UNL     1      -8.994 -13.973  19.791  0.00  0.00    +0.087 A 
ATOM     35  C   UNL     1     -10.877 -12.747  19.937  0.00  0.00    +0.047 A 
ATOM     36  C   UNL     1     -10.050 -10.481  20.010  0.00  0.00    +0.010 A 
ATOM     37  C   UNL     1     -12.205 -12.314  20.019  0.00  0.00    +0.026 A 
ATOM     38  C   UNL     1     -11.373 -10.032  20.093  0.00  0.00    +0.001 A 
ATOM     39  C   UNL     1     -12.432 -10.937  20.097  0.00  0.00    +0.002 A 
ATOM     43  H   UNL     1     -10.912 -14.868  19.833  0.00  0.00    +0.165 HD
ENDBRANCH  30  31
ENDBRANCH  29  30
ENDBRANCH   9  29
ENDBRANCH  12  26
TORSDOF 7
ENDMDL
MODEL 3
REMARK VINA RESULT:      -6.4      2.250      7.485
REMARK  Name = 45361714
REMARK  7 active torsions:
REMARK  status: ('A' for Active; 'I' for Inactive)
REMARK    1  A    between atoms: N_9  and  C_29
REMARK    2  A    between atoms: C_12  and  C_26
REMARK    3  A    between atoms: C_14  and  C_18
REMARK    4  A    between atoms: C_16  and  C_19
REMARK    5  A    between atoms: C_29  and  C_30
REMARK    6  A    between atoms: C_29  and  C_32
REMARK    7  A    between atoms: C_30  and  C_31
REMARK                            x       y       z     vdW  Elec       q    Type
REMARK                         _______ _______ _______ _____ _____    ______ ____
ROOT
ATOM      1  O   UNL     1      -9.735 -10.414  15.064  0.00  0.00    -0.275 OA
ATOM      2  O   UNL     1      -6.045  -8.446   9.044  0.00  0.00    -0.275 OA
ATOM      5  N   UNL     1      -8.187 -10.004  13.378  0.00  0.00    -0.287 N 
ATOM      6  N   UNL     1      -7.546  -9.210  10.645  0.00  0.00    -0.298 N 
ATOM     12  C   UNL     1      -6.795  -9.816  12.945  0.00  0.00    +0.179 C 
ATOM     13  C   UNL     1      -6.668  -8.854  11.764  0.00  0.00    +0.139 C 
ATOM     15  C   UNL     1      -9.231  -9.595  12.435  0.00  0.00    +0.127 C 
ATOM     17  C   UNL     1      -8.836  -9.820  10.981  0.00  0.00    +0.127 C 
ATOM     18  C   UNL     1      -8.567 -10.393  14.666  0.00  0.00    +0.219 C 
ATOM     19  C   UNL     1      -7.127  -8.958   9.337  0.00  0.00    +0.219 C 
ENDROOT
BRANCH  18  14
ATOM      7  N   UNL     1      -8.194 -10.172  18.375  0.00  0.00    -0.316 NA
ATOM     14  C   UNL     1      -7.463 -10.797  15.604  0.00  0.00    +0.078 C 
ATOM     20  C   UNL     1      -6.907  -9.581  16.347  0.00  0.00    +0.028 C 
ATOM     21  C   UNL     1      -7.948 -11.865  16.588  0.00  0.00    +0.028 C 
ATOM     24  C   UNL     1      -7.849  -9.093  17.449  0.00  0.00    +0.081 C 
ATOM     25  C   UNL     1      -8.846 -11.281  17.680  0.00  0.00    +0.081 C 
ATOM     40  H   UNL     1      -8.819  -9.811  19.095  0.00  0.00    +0.122 HD
ENDBRANCH  18  14
BRANCH  19  16
ATOM      8  N   UNL     1      -7.460  -7.904   5.772  0.00  0.00    -0.316 NA
ATOM     16  C   UNL     1      -8.086  -9.346   8.248  0.00  0.00    +0.078 C 
ATOM     22  C   UNL     1      -7.348 -10.001   7.079  0.00  0.00    +0.028 C 
ATOM     23  C   UNL     1      -8.893  -8.134   7.775  0.00  0.00    +0.028 C 
ATOM     27  C   UNL     1      -6.585  -8.981   6.231  0.00  0.00    +0.081 C 
ATOM     28  C   UNL     1      -8.064  -7.193   6.897  0.00  0.00    +0.081 C 
ATOM     41  H   UNL     1      -6.919  -7.247   5.209  0.00  0.00    +0.122 HD
ENDBRANCH  19  16
BRANCH  12  26
ATOM      3  O   UNL     1      -6.912 -12.188  12.679  0.00  0.00    -0.274 OA
ATOM      9  N   UNL     1      -4.937 -11.089  12.125  0.00  0.00    -0.302 N 
ATOM     26  C   UNL     1      -6.246 -11.163  12.569  0.00  0.00    +0.236 C 
ATOM     42  H   UNL     1      -4.506 -10.176  12.007  0.00  0.00    +0.150 HD
BRANCH   9  29
ATOM     29  C   UNL     1      -4.171 -12.248  11.724  0.00  0.00    +0.163 C 
BRANCH  29  32
ATOM      4  O   UNL     1      -3.934 -13.160   9.484  0.00  0.00    -0.274 OA
ATOM     11  N   UNL     1      -3.998 -10.878   9.740  0.00  0.00    -0.328 N 
ATOM     32  C   UNL     1      -4.006 -12.173  10.214  0.00  0.00    +0.231 C 
ATOM     44  H   UNL     1      -3.907 -10.687   8.748  0.00  0.00    +0.145 HD
ATOM     45  H   UNL     1      -4.081 -10.073  10.352  0.00  0.00    +0.145 HD
ENDBRANCH  29  32
BRANCH  29  30
ATOM     30  C   UNL     1      -2.801 -12.303  12.409  0.00  0.00    +0.069 C 
BRANCH  30  31
ATOM     10  N   UNL     1      -2.356 -10.095  15.324  0.00  0.00    -0.360 N 
ATOM     31  C   UNL     1      -2.784 -11.590  13.739  0.00  0.00    -0.020 A 
ATOM     33  C   UNL     1      -3.436 -12.007  14.933  0.00  0.00    +0.003 A 
ATOM     34  C   UNL     1      -2.128 -10.411  14.010  0.00  0.00    +0.087 A 
ATOM     35  C   UNL     1      -3.152 -11.051  15.911  0.00  0.00    +0.047 A 
ATOM     36  C   UNL     1      -4.245 -13.108  15.277  0.00  0.00    +0.010 A 
ATOM     37  C   UNL     1      -3.637 -11.143  17.220  0.00  0.00    +0.026 A 
ATOM     38  C   UNL     1      -4.738 -13.213  16.583  0.00  0.00    +0.001 A 
ATOM     39  C   UNL     1      -4.437 -12.245  17.538  0.00  0.00    +0.002 A 
ATOM     43  H   UNL     1      -1.991  -9.277  15.793  0.00  0.00    +0.165 HD
ENDBRANCH  30  31
ENDBRANCH  29  30
ENDBRANCH   9  29
ENDBRANCH  12  26
TORSDOF 7
ENDMDL
MODEL 4
REMARK VINA RESULT:      -6.3      2.103      8.611
REMARK  Name = 45361714
REMARK  7 active torsions:
REMARK  status: ('A' for Active; 'I' for Inactive)
REMARK    1  A    between atoms: N_9  and  C_29
REMARK    2  A    between atoms: C_12  and  C_26
REMARK    3  A    between atoms: C_14  and  C_18
REMARK    4  A    between atoms: C_16  and  C_19
REMARK    5  A    between atoms: C_29  and  C_30
REMARK    6  A    between atoms: C_29  and  C_32
REMARK    7  A    between atoms: C_30  and  C_31
REMARK                            x       y       z     vdW  Elec       q    Type
REMARK                         _______ _______ _______ _____ _____    ______ ____
ROOT
ATOM      1  O   UNL     1      -2.511 -10.278  11.657  0.00  0.00    -0.275 OA
ATOM      2  O   UNL     1      -9.038  -9.445   8.427  0.00  0.00    -0.275 OA
ATOM      5  N   UNL     1      -4.754 -10.196  11.051  0.00  0.00    -0.287 N 
ATOM      6  N   UNL     1      -6.884  -9.274   9.284  0.00  0.00    -0.298 N 
ATOM     12  C   UNL     1      -6.131 -10.688  11.195  0.00  0.00    +0.179 C 
ATOM     13  C   UNL     1      -6.927 -10.607   9.893  0.00  0.00    +0.139 C 
ATOM     15  C   UNL     1      -4.468  -9.374   9.873  0.00  0.00    +0.127 C 
ATOM     17  C   UNL     1      -5.648  -8.505   9.458  0.00  0.00    +0.127 C 
ATOM     18  C   UNL     1      -3.687 -10.585  11.868  0.00  0.00    +0.219 C 
ATOM     19  C   UNL     1      -7.995  -8.805   8.579  0.00  0.00    +0.219 C 
ENDROOT
BRANCH  18  14
ATOM      7  N   UNL     1      -1.623 -11.940  14.668  0.00  0.00    -0.316 NA
ATOM     14  C   UNL     1      -4.024 -11.434  13.062  0.00  0.00    +0.078 C 
ATOM     20  C   UNL     1      -3.269 -12.764  13.015  0.00  0.00    +0.028 C 
ATOM     21  C   UNL     1      -3.732 -10.684  14.363  0.00  0.00    +0.028 C 
ATOM     24  C   UNL     1      -1.791 -12.604  13.375  0.00  0.00    +0.081 C 
ATOM     25  C   UNL     1      -2.235 -10.612  14.667  0.00  0.00    +0.081 C 
ATOM     40  H   UNL     1      -0.629 -11.854  14.876  0.00  0.00    +0.122 HD
ENDBRANCH  18  14
BRANCH  19  16
ATOM      8  N   UNL     1     -10.290  -6.747   6.474  0.00  0.00    -0.316 NA
ATOM     16  C   UNL     1      -7.868  -7.433   7.980  0.00  0.00    +0.078 C 
ATOM     22  C   UNL     1      -8.943  -6.495   8.533  0.00  0.00    +0.028 C 
ATOM     23  C   UNL     1      -7.933  -7.498   6.451  0.00  0.00    +0.028 C 
ATOM     27  C   UNL     1     -10.322  -6.778   7.935  0.00  0.00    +0.081 C 
ATOM     28  C   UNL     1      -9.355  -7.738   5.942  0.00  0.00    +0.081 C 
ATOM     41  H   UNL     1     -11.224  -6.936   6.112  0.00  0.00    +0.122 HD
ENDBRANCH  19  16
BRANCH  12  26
ATOM      3  O   UNL     1      -6.409  -8.743  12.555  0.00  0.00    -0.274 OA
ATOM      9  N   UNL     1      -7.865 -10.536  12.843  0.00  0.00    -0.302 N 
ATOM     26  C   UNL     1      -6.804  -9.867  12.258  0.00  0.00    +0.236 C 
ATOM     42  H   UNL     1      -8.148 -11.437  12.468  0.00  0.00    +0.150 HD
BRANCH   9  29
ATOM     29  C   UNL     1      -8.664  -9.973  13.908  0.00  0.00    +0.163 C 
BRANCH  29  32
ATOM      4  O   UNL     1     -10.349  -9.877  12.159  0.00  0.00    -0.274 OA
ATOM     11  N   UNL     1     -10.834  -8.951  14.204  0.00  0.00    -0.328 N 
ATOM     32  C   UNL     1     -10.010  -9.597  13.307  0.00  0.00    +0.231 C 
ATOM     44  H   UNL     1     -11.767  -8.656  13.935  0.00  0.00    +0.145 HD
ATOM     45  H   UNL     1     -10.549  -8.745  15.157  0.00  0.00    +0.145 HD
ENDBRANCH  29  32
BRANCH  29  30
ATOM     30  C   UNL     1      -8.854 -10.954  15.071  0.00  0.00    +0.069 C 
BRANCH  30  31
ATOM     10  N   UNL     1      -7.606  -9.397  18.168  0.00  0.00    -0.360 N 
ATOM     31  C   UNL     1      -8.138 -10.517  16.326  0.00  0.00    -0.020 A 
ATOM     33  C   UNL     1      -6.971 -11.108  16.885  0.00  0.00    +0.003 A 
ATOM     34  C   UNL     1      -8.505  -9.468  17.137  0.00  0.00    +0.087 A 
ATOM     35  C   UNL     1      -6.659 -10.387  18.040  0.00  0.00    +0.047 A 
ATOM     36  C   UNL     1      -6.147 -12.191  16.519  0.00  0.00    +0.010 A 
ATOM     37  C   UNL     1      -5.560 -10.696  18.849  0.00  0.00    +0.026 A 
ATOM     38  C   UNL     1      -5.044 -12.512  17.319  0.00  0.00    +0.001 A 
ATOM     39  C   UNL     1      -4.757 -11.774  18.465  0.00  0.00    +0.002 A 
ATOM     43  H   UNL     1      -7.634  -8.716  18.914  0.00  0.00    +0.165 HD
ENDBRANCH  30  31
ENDBRANCH  29  30
ENDBRANCH   9  29
ENDBRANCH  12  26
TORSDOF 7
ENDMDL
MODEL 5
REMARK VINA RESULT:      -6.3     23.791     27.616
REMARK  Name = 45361714
REMARK  7 active torsions:
REMARK  status: ('A' for Active; 'I' for Inactive)
REMARK    1  A    between atoms: N_9  and  C_29
REMARK    2  A    between atoms: C_12  and  C_26
REMARK    3  A    between atoms: C_14  and  C_18
REMARK    4  A    between atoms: C_16  and  C_19
REMARK    5  A    between atoms: C_29  and  C_30
REMARK    6  A    between atoms: C_29  and  C_32
REMARK    7  A    between atoms: C_30  and  C_31
REMARK                            x       y       z     vdW  Elec       q    Type
REMARK                         _______ _______ _______ _____ _____    ______ ____
ROOT
ATOM      1  O   UNL     1       9.933  10.766   5.999  0.00  0.00    -0.275 OA
ATOM      2  O   UNL     1      15.465   6.686   3.453  0.00  0.00    -0.275 OA
ATOM      5  N   UNL     1      11.702   9.299   5.648  0.00  0.00    -0.287 N 
ATOM      6  N   UNL     1      13.495   7.851   3.860  0.00  0.00    -0.298 N 
ATOM     12  C   UNL     1      12.837   8.525   6.169  0.00  0.00    +0.179 C 
ATOM     13  C   UNL     1      13.964   8.369   5.148  0.00  0.00    +0.139 C 
ATOM     15  C   UNL     1      11.626   9.460   4.194  0.00  0.00    +0.127 C 
ATOM     17  C   UNL     1      12.148   8.246   3.436  0.00  0.00    +0.127 C 
ATOM     18  C   UNL     1      10.798  10.008   6.445  0.00  0.00    +0.219 C 
ATOM     19  C   UNL     1      14.331   7.023   3.106  0.00  0.00    +0.219 C 
ENDROOT
BRANCH  18  14
ATOM      7  N   UNL     1      10.160  12.281   9.337  0.00  0.00    -0.316 NA
ATOM     14  C   UNL     1      10.915   9.820   7.932  0.00  0.00    +0.078 C 
ATOM     20  C   UNL     1      11.950  10.780   8.522  0.00  0.00    +0.028 C 
ATOM     21  C   UNL     1       9.555   9.994   8.612  0.00  0.00    +0.028 C 
ATOM     24  C   UNL     1      11.427  12.215   8.609  0.00  0.00    +0.081 C 
ATOM     25  C   UNL     1       9.133  11.462   8.694  0.00  0.00    +0.081 C 
ATOM     40  H   UNL     1       9.845  13.249   9.378  0.00  0.00    +0.122 HD
ENDBRANCH  18  14
BRANCH  19  16
ATOM      8  N   UNL     1      15.682   4.732   0.488  0.00  0.00    -0.316 NA
ATOM     16  C   UNL     1      13.779   6.540   1.796  0.00  0.00    +0.078 C 
ATOM     22  C   UNL     1      13.607   5.020   1.804  0.00  0.00    +0.028 C 
ATOM     23  C   UNL     1      14.669   6.984   0.632  0.00  0.00    +0.028 C 
ATOM     27  C   UNL     1      14.943   4.286   1.667  0.00  0.00    +0.081 C 
ATOM     28  C   UNL     1      15.959   6.166   0.545  0.00  0.00    +0.081 C 
ATOM     41  H   UNL     1      16.562   4.220   0.428  0.00  0.00    +0.122 HD
ENDBRANCH  19  16
BRANCH  12  26
ATOM      3  O   UNL     1      12.988   6.413   7.274  0.00  0.00    -0.274 OA
ATOM      9  N   UNL     1      11.067   6.913   6.057  0.00  0.00    -0.302 N 
ATOM     26  C   UNL     1      12.324   7.174   6.575  0.00  0.00    +0.236 C 
ATOM     42  H   UNL     1      10.580   7.646   5.550  0.00  0.00    +0.150 HD
BRANCH   9  29
ATOM     29  C   UNL     1      10.361   5.672   6.282  0.00  0.00    +0.163 C 
BRANCH  29  32
ATOM      4  O   UNL     1       9.504   6.400   8.437  0.00  0.00    -0.274 OA
ATOM     11  N   UNL     1      10.614   4.393   8.318  0.00  0.00    -0.328 N 
ATOM     32  C   UNL     1      10.118   5.561   7.780  0.00  0.00    +0.231 C 
ATOM     44  H   UNL     1      10.508   4.188   9.306  0.00  0.00    +0.145 HD
ATOM     45  H   UNL     1      11.100   3.698   7.759  0.00  0.00    +0.145 HD
ENDBRANCH  29  32
BRANCH  29  30
ATOM     30  C   UNL     1       9.033   5.613   5.519  0.00  0.00    +0.069 C 
BRANCH  30  31
ATOM     10  N   UNL     1       7.537   8.975   5.353  0.00  0.00    -0.360 N 
ATOM     31  C   UNL     1       8.497   6.982   5.174  0.00  0.00    -0.020 A 
ATOM     33  C   UNL     1       8.544   7.613   3.901  0.00  0.00    +0.003 A 
ATOM     34  C   UNL     1       7.872   7.843   6.047  0.00  0.00    +0.087 A 
ATOM     35  C   UNL     1       7.935   8.863   4.040  0.00  0.00    +0.047 A 
ATOM     36  C   UNL     1       9.048   7.242   2.638  0.00  0.00    +0.010 A 
ATOM     37  C   UNL     1       7.804   9.762   2.976  0.00  0.00    +0.026 A 
ATOM     38  C   UNL     1       8.924   8.132   1.565  0.00  0.00    +0.001 A 
ATOM     39  C   UNL     1       8.311   9.371   1.733  0.00  0.00    +0.002 A 
ATOM     43  H   UNL     1       7.064   9.777   5.747  0.00  0.00    +0.165 HD
ENDBRANCH  30  31
ENDBRANCH  29  30
ENDBRANCH   9  29
ENDBRANCH  12  26
TORSDOF 7
ENDMDL
MODEL 6
REMARK VINA RESULT:      -6.2      2.207      7.825
REMARK  Name = 45361714
REMARK  7 active torsions:
REMARK  status: ('A' for Active; 'I' for Inactive)
REMARK    1  A    between atoms: N_9  and  C_29
REMARK    2  A    between atoms: C_12  and  C_26
REMARK    3  A    between atoms: C_14  and  C_18
REMARK    4  A    between atoms: C_16  and  C_19
REMARK    5  A    between atoms: C_29  and  C_30
REMARK    6  A    between atoms: C_29  and  C_32
REMARK    7  A    between atoms: C_30  and  C_31
REMARK                            x       y       z     vdW  Elec       q    Type
REMARK                         _______ _______ _______ _____ _____    ______ ____
ROOT
ATOM      1  O   UNL     1     -10.442 -10.512  15.024  0.00  0.00    -0.275 OA
ATOM      2  O   UNL     1      -5.636  -9.134   9.663  0.00  0.00    -0.275 OA
ATOM      5  N   UNL     1      -8.586 -10.207  13.657  0.00  0.00    -0.287 N 
ATOM      6  N   UNL     1      -7.402  -9.795  11.023  0.00  0.00    -0.298 N 
ATOM     12  C   UNL     1      -7.150  -9.937  13.500  0.00  0.00    +0.179 C 
ATOM     13  C   UNL     1      -6.830  -9.168  12.218  0.00  0.00    +0.139 C 
ATOM     15  C   UNL     1      -9.416 -10.074  12.457  0.00  0.00    +0.127 C 
ATOM     17  C   UNL     1      -8.686 -10.484  11.184  0.00  0.00    +0.127 C 
ATOM     18  C   UNL     1      -9.219 -10.424  14.885  0.00  0.00    +0.219 C 
ATOM     19  C   UNL     1      -6.716  -9.712   9.809  0.00  0.00    +0.219 C 
ENDROOT
BRANCH  18  14
ATOM      7  N   UNL     1      -9.707  -9.547  18.481  0.00  0.00    -0.316 NA
ATOM     14  C   UNL     1      -8.331 -10.547  16.091  0.00  0.00    +0.078 C 
ATOM     20  C   UNL     1      -8.038  -9.171  16.694  0.00  0.00    +0.028 C 
ATOM     21  C   UNL     1      -8.953 -11.480  17.133  0.00  0.00    +0.028 C 
ATOM     24  C   UNL     1      -9.234  -8.608  17.463  0.00  0.00    +0.081 C 
ATOM     25  C   UNL     1     -10.110 -10.820  17.884  0.00  0.00    +0.081 C 
ATOM     40  H   UNL     1     -10.500  -9.139  18.974  0.00  0.00    +0.122 HD
ENDBRANCH  18  14
BRANCH  19  16
ATOM      8  N   UNL     1      -6.538  -9.078   6.135  0.00  0.00    -0.316 NA
ATOM     16  C   UNL     1      -7.372 -10.374   8.631  0.00  0.00    +0.078 C 
ATOM     22  C   UNL     1      -6.325 -10.984   7.697  0.00  0.00    +0.028 C 
ATOM     23  C   UNL     1      -8.266  -9.386   7.878  0.00  0.00    +0.028 C 
ATOM     27  C   UNL     1      -5.598  -9.923   6.869  0.00  0.00    +0.081 C 
ATOM     28  C   UNL     1      -7.457  -8.392   7.042  0.00  0.00    +0.081 C 
ATOM     41  H   UNL     1      -6.019  -8.387   5.594  0.00  0.00    +0.122 HD
ENDBRANCH  19  16
BRANCH  12  26
ATOM      3  O   UNL     1      -7.037 -12.322  13.560  0.00  0.00    -0.274 OA
ATOM      9  N   UNL     1      -5.057 -11.104  13.446  0.00  0.00    -0.302 N 
ATOM     26  C   UNL     1      -6.432 -11.256  13.499  0.00  0.00    +0.236 C 
ATOM     42  H   UNL     1      -4.668 -10.172  13.325  0.00  0.00    +0.150 HD
BRANCH   9  29
ATOM     29  C   UNL     1      -4.137 -12.219  13.456  0.00  0.00    +0.163 C 
BRANCH  29  32
ATOM      4  O   UNL     1      -3.401 -11.352  11.308  0.00  0.00    -0.274 OA
ATOM     11  N   UNL     1      -1.901 -12.524  12.592  0.00  0.00    -0.328 N 
ATOM     32  C   UNL     1      -3.143 -11.988  12.328  0.00  0.00    +0.231 C 
ATOM     44  H   UNL     1      -1.140 -12.430  11.927  0.00  0.00    +0.145 HD
ATOM     45  H   UNL     1      -1.695 -13.028  13.449  0.00  0.00    +0.145 HD
ENDBRANCH  29  32
BRANCH  29  30
ATOM     30  C   UNL     1      -3.404 -12.353  14.795  0.00  0.00    +0.069 C 
BRANCH  30  31
ATOM     10  N   UNL     1      -5.577 -14.151  17.164  0.00  0.00    -0.360 N 
ATOM     31  C   UNL     1      -4.302 -12.839  15.907  0.00  0.00    -0.020 A 
ATOM     33  C   UNL     1      -4.771 -12.077  17.012  0.00  0.00    +0.003 A 
ATOM     34  C   UNL     1      -4.814 -14.111  16.027  0.00  0.00    +0.087 A 
ATOM     35  C   UNL     1      -5.568 -12.924  17.786  0.00  0.00    +0.047 A 
ATOM     36  C   UNL     1      -4.593 -10.744  17.431  0.00  0.00    +0.010 A 
ATOM     37  C   UNL     1      -6.199 -12.501  18.961  0.00  0.00    +0.026 A 
ATOM     38  C   UNL     1      -5.218 -10.307  18.605  0.00  0.00    +0.001 A 
ATOM     39  C   UNL     1      -6.009 -11.174  19.356  0.00  0.00    +0.002 A 
ATOM     43  H   UNL     1      -6.075 -14.965  17.498  0.00  0.00    +0.165 HD
ENDBRANCH  30  31
ENDBRANCH  29  30
ENDBRANCH   9  29
ENDBRANCH  12  26
TORSDOF 7
ENDMDL
MODEL 7
REMARK VINA RESULT:      -6.2     23.935     28.563
REMARK  Name = 45361714
REMARK  7 active torsions:
REMARK  status: ('A' for Active; 'I' for Inactive)
REMARK    1  A    between atoms: N_9  and  C_29
REMARK    2  A    between atoms: C_12  and  C_26
REMARK    3  A    between atoms: C_14  and  C_18
REMARK    4  A    between atoms: C_16  and  C_19
REMARK    5  A    between atoms: C_29  and  C_30
REMARK    6  A    between atoms: C_29  and  C_32
REMARK    7  A    between atoms: C_30  and  C_31
REMARK                            x       y       z     vdW  Elec       q    Type
REMARK                         _______ _______ _______ _____ _____    ______ ____
ROOT
ATOM      1  O   UNL     1      17.031   8.480   1.347  0.00  0.00    -0.275 OA
ATOM      2  O   UNL     1      12.927   2.649  -0.353  0.00  0.00    -0.275 OA
ATOM      5  N   UNL     1      15.522   6.714   1.243  0.00  0.00    -0.287 N 
ATOM      6  N   UNL     1      14.139   4.630  -0.259  0.00  0.00    -0.298 N 
ATOM     12  C   UNL     1      14.665   5.729   1.917  0.00  0.00    +0.179 C 
ATOM     13  C   UNL     1      14.539   4.422   1.135  0.00  0.00    +0.139 C 
ATOM     15  C   UNL     1      15.795   6.486  -0.179  0.00  0.00    +0.127 C 
ATOM     17  C   UNL     1      14.620   5.852  -0.912  0.00  0.00    +0.127 C 
ATOM     18  C   UNL     1      16.206   7.744   1.896  0.00  0.00    +0.219 C 
ATOM     19  C   UNL     1      13.336   3.679  -0.893  0.00  0.00    +0.219 C 
ENDROOT
BRANCH  18  14
ATOM      7  N   UNL     1      17.172  10.388   4.348  0.00  0.00    -0.316 NA
ATOM     14  C   UNL     1      15.902   7.938   3.355  0.00  0.00    +0.078 C 
ATOM     20  C   UNL     1      17.187   7.920   4.186  0.00  0.00    +0.028 C 
ATOM     21  C   UNL     1      15.122   9.235   3.581  0.00  0.00    +0.028 C 
ATOM     24  C   UNL     1      17.989   9.214   4.042  0.00  0.00    +0.081 C 
ATOM     25  C   UNL     1      16.012  10.474   3.463  0.00  0.00    +0.081 C 
ATOM     40  H   UNL     1      17.739  11.229   4.245  0.00  0.00    +0.122 HD
ENDBRANCH  18  14
BRANCH  19  16
ATOM      8  N   UNL     1      10.148   3.354  -2.807  0.00  0.00    -0.316 NA
ATOM     16  C   UNL     1      12.976   3.963  -2.323  0.00  0.00    +0.078 C 
ATOM     22  C   UNL     1      11.903   5.051  -2.409  0.00  0.00    +0.028 C 
ATOM     23  C   UNL     1      12.519   2.687  -3.035  0.00  0.00    +0.028 C 
ATOM     27  C   UNL     1      10.518   4.530  -2.021  0.00  0.00    +0.081 C 
ATOM     28  C   UNL     1      11.108   2.266  -2.620  0.00  0.00    +0.081 C 
ATOM     41  H   UNL     1       9.221   3.037  -2.524  0.00  0.00    +0.122 HD
ENDBRANCH  19  16
BRANCH  12  26
ATOM      3  O   UNL     1      13.040   7.460   1.653  0.00  0.00    -0.274 OA
ATOM      9  N   UNL     1      12.456   5.537   2.827  0.00  0.00    -0.302 N 
ATOM     26  C   UNL     1      13.309   6.349   2.100  0.00  0.00    +0.236 C 
ATOM     42  H   UNL     1      12.763   4.604   3.086  0.00  0.00    +0.150 HD
BRANCH   9  29
ATOM     29  C   UNL     1      11.100   5.913   3.160  0.00  0.00    +0.163 C 
BRANCH  29  32
ATOM      4  O   UNL     1       9.992   4.676   1.387  0.00  0.00    -0.274 OA
ATOM     11  N   UNL     1       9.816   6.965   1.405  0.00  0.00    -0.328 N 
ATOM     32  C   UNL     1      10.270   5.760   1.895  0.00  0.00    +0.231 C 
ATOM     44  H   UNL     1       9.239   7.005   0.571  0.00  0.00    +0.145 HD
ATOM     45  H   UNL     1      10.035   7.852   1.848  0.00  0.00    +0.145 HD
ENDBRANCH  29  32
BRANCH  29  30
ATOM     30  C   UNL     1      10.520   5.051   4.288  0.00  0.00    +0.069 C 
BRANCH  30  31
ATOM     10  N   UNL     1       9.240   7.577   6.643  0.00  0.00    -0.360 N 
ATOM     31  C   UNL     1      10.004   5.872   5.444  0.00  0.00    -0.020 A 
ATOM     33  C   UNL     1       9.784   5.418   6.774  0.00  0.00    +0.003 A 
ATOM     34  C   UNL     1       9.660   7.203   5.394  0.00  0.00    +0.087 A 
ATOM     35  C   UNL     1       9.304   6.507   7.505  0.00  0.00    +0.047 A 
ATOM     36  C   UNL     1       9.946   4.181   7.429  0.00  0.00    +0.010 A 
ATOM     37  C   UNL     1       8.979   6.420   8.863  0.00  0.00    +0.026 A 
ATOM     38  C   UNL     1       9.624   4.079   8.787  0.00  0.00    +0.001 A 
ATOM     39  C   UNL     1       9.149   5.183   9.492  0.00  0.00    +0.002 A 
ATOM     43  H   UNL     1       8.928   8.505   6.895  0.00  0.00    +0.165 HD
ENDBRANCH  30  31
ENDBRANCH  29  30
ENDBRANCH   9  29
ENDBRANCH  12  26
TORSDOF 7
ENDMDL
MODEL 8
REMARK VINA RESULT:      -6.2     24.473     26.980
REMARK  Name = 45361714
REMARK  7 active torsions:
REMARK  status: ('A' for Active; 'I' for Inactive)
REMARK    1  A    between atoms: N_9  and  C_29
REMARK    2  A    between atoms: C_12  and  C_26
REMARK    3  A    between atoms: C_14  and  C_18
REMARK    4  A    between atoms: C_16  and  C_19
REMARK    5  A    between atoms: C_29  and  C_30
REMARK    6  A    between atoms: C_29  and  C_32
REMARK    7  A    between atoms: C_30  and  C_31
REMARK                            x       y       z     vdW  Elec       q    Type
REMARK                         _______ _______ _______ _____ _____    ______ ____
ROOT
ATOM      1  O   UNL     1       8.903   8.439  -1.165  0.00  0.00    -0.275 OA
ATOM      2  O   UNL     1      10.805   5.090   5.071  0.00  0.00    -0.275 OA
ATOM      5  N   UNL     1       9.794   7.111   0.522  0.00  0.00    -0.287 N 
ATOM      6  N   UNL     1      10.255   6.548   3.347  0.00  0.00    -0.298 N 
ATOM     12  C   UNL     1      10.423   5.856   0.957  0.00  0.00    +0.179 C 
ATOM     13  C   UNL     1      10.037   5.465   2.383  0.00  0.00    +0.139 C 
ATOM     15  C   UNL     1       9.246   7.972   1.573  0.00  0.00    +0.127 C 
ATOM     17  C   UNL     1      10.053   7.917   2.863  0.00  0.00    +0.127 C 
ATOM     18  C   UNL     1       9.553   7.452  -0.813  0.00  0.00    +0.219 C 
ATOM     19  C   UNL     1      10.634   6.238   4.655  0.00  0.00    +0.219 C 
ENDROOT
BRANCH  18  14
ATOM      7  N   UNL     1       8.639   6.796  -4.372  0.00  0.00    -0.316 NA
ATOM     14  C   UNL     1      10.127   6.537  -1.859  0.00  0.00    +0.078 C 
ATOM     20  C   UNL     1       9.090   5.507  -2.310  0.00  0.00    +0.028 C 
ATOM     21  C   UNL     1      10.658   7.338  -3.050  0.00  0.00    +0.028 C 
ATOM     24  C   UNL     1       8.030   6.115  -3.229  0.00  0.00    +0.081 C 
ATOM     25  C   UNL     1       9.531   7.869  -3.939  0.00  0.00    +0.081 C 
ATOM     40  H   UNL     1       7.904   7.185  -4.963  0.00  0.00    +0.122 HD
ENDBRANCH  18  14
BRANCH  19  16
ATOM      8  N   UNL     1      10.010   6.692   8.306  0.00  0.00    -0.316 NA
ATOM     16  C   UNL     1      10.831   7.403   5.582  0.00  0.00    +0.078 C 
ATOM     22  C   UNL     1      11.838   7.060   6.682  0.00  0.00    +0.028 C 
ATOM     23  C   UNL     1       9.496   7.853   6.183  0.00  0.00    +0.028 C 
ATOM     27  C   UNL     1      11.241   6.139   7.747  0.00  0.00    +0.081 C 
ATOM     28  C   UNL     1       8.999   6.897   7.269  0.00  0.00    +0.081 C 
ATOM     41  H   UNL     1       9.644   6.054   9.013  0.00  0.00    +0.122 HD
ENDBRANCH  19  16
BRANCH  12  26
ATOM      3  O   UNL     1      12.453   7.110   1.077  0.00  0.00    -0.274 OA
ATOM      9  N   UNL     1      12.552   4.861   0.484  0.00  0.00    -0.302 N 
ATOM     26  C   UNL     1      11.912   6.030   0.859  0.00  0.00    +0.236 C 
ATOM     42  H   UNL     1      12.009   4.006   0.399  0.00  0.00    +0.150 HD
BRANCH   9  29
ATOM     29  C   UNL     1      13.982   4.768   0.297  0.00  0.00    +0.163 C 
BRANCH  29  32
ATOM      4  O   UNL     1      14.759   3.129   1.915  0.00  0.00    -0.274 OA
ATOM     11  N   UNL     1      14.940   5.358   2.436  0.00  0.00    -0.328 N 
ATOM     32  C   UNL     1      14.577   4.308   1.620  0.00  0.00    +0.231 C 
ATOM     44  H   UNL     1      15.362   5.190   3.344  0.00  0.00    +0.145 HD
ATOM     45  H   UNL     1      14.804   6.328   2.170  0.00  0.00    +0.145 HD
ENDBRANCH  29  32
BRANCH  29  30
ATOM     30  C   UNL     1      14.358   3.793  -0.825  0.00  0.00    +0.069 C 
BRANCH  30  31
ATOM     10  N   UNL     1      13.349   5.143  -4.101  0.00  0.00    -0.360 N 
ATOM     31  C   UNL     1      13.730   4.156  -2.149  0.00  0.00    -0.020 A 
ATOM     33  C   UNL     1      12.564   3.576  -2.721  0.00  0.00    +0.003 A 
ATOM     34  C   UNL     1      14.190   5.117  -3.020  0.00  0.00    +0.087 A 
ATOM     35  C   UNL     1      12.348   4.212  -3.946  0.00  0.00    +0.047 A 
ATOM     36  C   UNL     1      11.669   2.566  -2.315  0.00  0.00    +0.010 A 
ATOM     37  C   UNL     1      11.277   3.888  -4.786  0.00  0.00    +0.026 A 
ATOM     38  C   UNL     1      10.594   2.231  -3.146  0.00  0.00    +0.001 A 
ATOM     39  C   UNL     1      10.402   2.883  -4.362  0.00  0.00    +0.002 A 
ATOM     43  H   UNL     1      13.450   5.757  -4.897  0.00  0.00    +0.165 HD
ENDBRANCH  30  31
ENDBRANCH  29  30
ENDBRANCH   9  29
ENDBRANCH  12  26
TORSDOF 7
ENDMDL
MODEL 9
REMARK VINA RESULT:      -6.1     24.784     28.780
REMARK  Name = 45361714
REMARK  7 active torsions:
REMARK  status: ('A' for Active; 'I' for Inactive)
REMARK    1  A    between atoms: N_9  and  C_29
REMARK    2  A    between atoms: C_12  and  C_26
REMARK    3  A    between atoms: C_14  and  C_18
REMARK    4  A    between atoms: C_16  and  C_19
REMARK    5  A    between atoms: C_29  and  C_30
REMARK    6  A    between atoms: C_29  and  C_32
REMARK    7  A    between atoms: C_30  and  C_31
REMARK                            x       y       z     vdW  Elec       q    Type
REMARK                         _______ _______ _______ _____ _____    ______ ____
ROOT
ATOM      1  O   UNL     1      10.525   9.103   5.588  0.00  0.00    -0.275 OA
ATOM      2  O   UNL     1      17.387   8.057   3.232  0.00  0.00    -0.275 OA
ATOM      5  N   UNL     1      12.540   8.325   4.727  0.00  0.00    -0.287 N 
ATOM      6  N   UNL     1      15.247   8.801   3.750  0.00  0.00    -0.298 N 
ATOM     12  C   UNL     1      13.441   7.210   4.404  0.00  0.00    +0.179 C 
ATOM     13  C   UNL     1      14.917   7.594   4.513  0.00  0.00    +0.139 C 
ATOM     15  C   UNL     1      13.122   9.669   4.713  0.00  0.00    +0.127 C 
ATOM     17  C   UNL     1      14.208   9.832   3.658  0.00  0.00    +0.127 C 
ATOM     18  C   UNL     1      11.228   8.171   5.188  0.00  0.00    +0.219 C 
ATOM     19  C   UNL     1      16.507   8.918   3.159  0.00  0.00    +0.219 C 
ENDROOT
BRANCH  18  14
ATOM      7  N   UNL     1       7.799   6.819   5.782  0.00  0.00    -0.316 NA
ATOM     14  C   UNL     1      10.672   6.775   5.192  0.00  0.00    +0.078 C 
ATOM     20  C   UNL     1      10.110   6.416   6.569  0.00  0.00    +0.028 C 
ATOM     21  C   UNL     1       9.606   6.610   4.106  0.00  0.00    +0.028 C 
ATOM     24  C   UNL     1       8.768   7.097   6.843  0.00  0.00    +0.081 C 
ATOM     25  C   UNL     1       8.285   7.282   4.483  0.00  0.00    +0.081 C 
ATOM     40  H   UNL     1       6.919   7.284   5.999  0.00  0.00    +0.122 HD
ENDBRANCH  18  14
BRANCH  19  16
ATOM      8  N   UNL     1      19.218   9.942   0.806  0.00  0.00    -0.316 NA
ATOM     16  C   UNL     1      16.769  10.188   2.402  0.00  0.00    +0.078 C 
ATOM     22  C   UNL     1      16.746   9.937   0.892  0.00  0.00    +0.028 C 
ATOM     23  C   UNL     1      18.097  10.816   2.831  0.00  0.00    +0.028 C 
ATOM     27  C   UNL     1      18.009   9.225   0.404  0.00  0.00    +0.081 C 
ATOM     28  C   UNL     1      19.303  10.066   2.261  0.00  0.00    +0.081 C 
ATOM     41  H   UNL     1      20.036   9.441   0.462  0.00  0.00    +0.122 HD
ENDBRANCH  19  16
BRANCH  12  26
ATOM      3  O   UNL     1      12.423   7.420   2.253  0.00  0.00    -0.274 OA
ATOM      9  N   UNL     1      13.711   5.536   2.710  0.00  0.00    -0.302 N 
ATOM     26  C   UNL     1      13.131   6.758   3.006  0.00  0.00    +0.236 C 
ATOM     42  H   UNL     1      14.339   5.110   3.387  0.00  0.00    +0.150 HD
BRANCH   9  29
ATOM     29  C   UNL     1      13.548   4.871   1.437  0.00  0.00    +0.163 C 
BRANCH  29  32
ATOM      4  O   UNL     1      15.348   3.970   0.075  0.00  0.00    -0.274 OA
ATOM     11  N   UNL     1      15.352   3.534   2.330  0.00  0.00    -0.328 N 
ATOM     32  C   UNL     1      14.820   4.078   1.180  0.00  0.00    +0.231 C 
ATOM     44  H   UNL     1      16.209   2.990   2.302  0.00  0.00    +0.145 HD
ATOM     45  H   UNL     1      14.917   3.649   3.240  0.00  0.00    +0.145 HD
ENDBRANCH  29  32
BRANCH  29  30
ATOM     30  C   UNL     1      12.327   3.943   1.421  0.00  0.00    +0.069 C 
BRANCH  30  31
ATOM     10  N   UNL     1       9.737   4.989  -0.979  0.00  0.00    -0.360 N 
ATOM     31  C   UNL     1      11.409   4.205   0.252  0.00  0.00    -0.020 A 
ATOM     33  C   UNL     1      11.534   3.671  -1.060  0.00  0.00    +0.003 A 
ATOM     34  C   UNL     1      10.295   5.012   0.271  0.00  0.00    +0.087 A 
ATOM     35  C   UNL     1      10.473   4.178  -1.813  0.00  0.00    +0.047 A 
ATOM     36  C   UNL     1      12.452   2.801  -1.683  0.00  0.00    +0.010 A 
ATOM     37  C   UNL     1      10.283   3.858  -3.161  0.00  0.00    +0.026 A 
ATOM     38  C   UNL     1      12.274   2.472  -3.032  0.00  0.00    +0.001 A 
ATOM     39  C   UNL     1      11.205   2.993  -3.757  0.00  0.00    +0.002 A 
ATOM     43  H   UNL     1       8.904   5.494  -1.251  0.00  0.00    +0.165 HD
ENDBRANCH  30  31
ENDBRANCH  29  30
ENDBRANCH   9  29
ENDBRANCH  12  26
TORSDOF 7
ENDMDL
MODEL 10
REMARK VINA RESULT:      -6.1     24.143     27.866
REMARK  Name = 45361714
REMARK  7 active torsions:
REMARK  status: ('A' for Active; 'I' for Inactive)
REMARK    1  A    between atoms: N_9  and  C_29
REMARK    2  A    between atoms: C_12  and  C_26
REMARK    3  A    between atoms: C_14  and  C_18
REMARK    4  A    between atoms: C_16  and  C_19
REMARK    5  A    between atoms: C_29  and  C_30
REMARK    6  A    between atoms: C_29  and  C_32
REMARK    7  A    between atoms: C_30  and  C_31
REMARK                            x       y       z     vdW  Elec       q    Type
REMARK                         _______ _______ _______ _____ _____    ______ ____
ROOT
ATOM      1  O   UNL     1      11.026   5.585  -2.395  0.00  0.00    -0.275 OA
ATOM      2  O   UNL     1      10.348   4.340   4.797  0.00  0.00    -0.275 OA
ATOM      5  N   UNL     1      11.144   4.842  -0.195  0.00  0.00    -0.287 N 
ATOM      6  N   UNL     1      10.578   5.190   2.646  0.00  0.00    -0.298 N 
ATOM     12  C   UNL     1      11.436   3.779   0.777  0.00  0.00    +0.179 C 
ATOM     13  C   UNL     1      10.557   3.862   2.025  0.00  0.00    +0.139 C 
ATOM     15  C   UNL     1      10.391   5.998   0.299  0.00  0.00    +0.127 C 
ATOM     17  C   UNL     1      10.716   6.340   1.747  0.00  0.00    +0.127 C 
ATOM     18  C   UNL     1      11.398   4.749  -1.567  0.00  0.00    +0.219 C 
ATOM     19  C   UNL     1      10.465   5.302   4.034  0.00  0.00    +0.219 C 
ENDROOT
BRANCH  18  14
ATOM      7  N   UNL     1      11.740   3.102  -4.899  0.00  0.00    -0.316 NA
ATOM     14  C   UNL     1      12.167   3.544  -2.032  0.00  0.00    +0.078 C 
ATOM     20  C   UNL     1      11.221   2.467  -2.565  0.00  0.00    +0.028 C 
ATOM     21  C   UNL     1      13.204   3.934  -3.088  0.00  0.00    +0.028 C 
ATOM     24  C   UNL     1      10.667   2.815  -3.948  0.00  0.00    +0.081 C 
ATOM     25  C   UNL     1      12.567   4.220  -4.448  0.00  0.00    +0.081 C 
ATOM     40  H   UNL     1      11.335   3.326  -5.807  0.00  0.00    +0.122 HD
ENDBRANCH  18  14
BRANCH  19  16
ATOM      8  N   UNL     1       9.025   6.808   7.130  0.00  0.00    -0.316 NA
ATOM     16  C   UNL     1      10.488   6.696   4.590  0.00  0.00    +0.078 C 
ATOM     22  C   UNL     1      11.195   6.730   5.946  0.00  0.00    +0.028 C 
ATOM     23  C   UNL     1       9.070   7.263   4.699  0.00  0.00    +0.028 C 
ATOM     27  C   UNL     1      10.330   6.151   7.066  0.00  0.00    +0.081 C 
ATOM     28  C   UNL     1       8.294   6.661   5.872  0.00  0.00    +0.081 C 
ATOM     41  H   UNL     1       8.479   6.399   7.888  0.00  0.00    +0.122 HD
ENDBRANCH  19  16
BRANCH  12  26
ATOM      3  O   UNL     1      13.472   2.983   1.740  0.00  0.00    -0.274 OA
ATOM      9  N   UNL     1      13.426   5.115   0.807  0.00  0.00    -0.302 N 
ATOM     26  C   UNL     1      12.883   3.892   1.161  0.00  0.00    +0.236 C 
ATOM     42  H   UNL     1      12.864   5.766   0.265  0.00  0.00    +0.150 HD
BRANCH   9  29
ATOM     29  C   UNL     1      14.796   5.483   1.085  0.00  0.00    +0.163 C 
BRANCH  29  32
ATOM      4  O   UNL     1      15.821   5.160  -1.095  0.00  0.00    -0.274 OA
ATOM     11  N   UNL     1      16.309   3.667   0.580  0.00  0.00    -0.328 N 
ATOM     32  C   UNL     1      15.666   4.771   0.061  0.00  0.00    +0.231 C 
ATOM     44  H   UNL     1      16.932   3.108   0.006  0.00  0.00    +0.145 HD
ATOM     45  H   UNL     1      16.190   3.370   1.544  0.00  0.00    +0.145 HD
ENDBRANCH  29  32
BRANCH  29  30
ATOM     30  C   UNL     1      15.016   6.998   1.012  0.00  0.00    +0.069 C 
BRANCH  30  31
ATOM     10  N   UNL     1      17.897   8.225   2.952  0.00  0.00    -0.360 N 
ATOM     31  C   UNL     1      16.015   7.493   2.030  0.00  0.00    -0.020 A 
ATOM     33  C   UNL     1      15.779   7.702   3.417  0.00  0.00    +0.003 A 
ATOM     34  C   UNL     1      17.326   7.823   1.773  0.00  0.00    +0.087 A 
ATOM     35  C   UNL     1      16.975   8.162   3.972  0.00  0.00    +0.047 A 
ATOM     36  C   UNL     1      14.659   7.545   4.257  0.00  0.00    +0.010 A 
ATOM     37  C   UNL     1      17.107   8.472   5.329  0.00  0.00    +0.026 A 
ATOM     38  C   UNL     1      14.776   7.852   5.618  0.00  0.00    +0.001 A 
ATOM     39  C   UNL     1      15.983   8.308   6.143  0.00  0.00    +0.002 A 
ATOM     43  H   UNL     1      18.857   8.524   3.057  0.00  0.00    +0.165 HD
ENDBRANCH  30  31
ENDBRANCH  29  30
ENDBRANCH   9  29
ENDBRANCH  12  26
TORSDOF 7
ENDMDL
