MODEL 1
REMARK VINA RESULT:      -7.6      0.000      0.000
REMARK  Name = 45784429
REMARK  10 active torsions:
REMARK  status: ('A' for Active; 'I' for Inactive)
REMARK    1  A    between atoms: O_2  and  C_11
REMARK    2  A    between atoms: N_5  and  C_15
REMARK    3  A    between atoms: N_6  and  C_24
REMARK    4  A    between atoms: N_7  and  C_25
REMARK    5  A    between atoms: C_8  and  C_18
REMARK    6  A    between atoms: C_10  and  C_20
REMARK    7  A    between atoms: C_14  and  C_19
REMARK    8  A    between atoms: C_19  and  C_21
REMARK    9  A    between atoms: C_19  and  C_22
REMARK   10  A    between atoms: C_24  and  C_26
REMARK                            x       y       z     vdW  Elec       q    Type
REMARK                         _______ _______ _______ _____ _____    ______ ____
ROOT
ATOM      8  C   UNL     1      -3.449 -11.172  11.663  0.00  0.00    -0.027 C 
ATOM      9  C   UNL     1      -4.774 -10.534  12.199  0.00  0.00    +0.028 C 
ATOM     10  C   UNL     1      -5.312  -9.444  11.204  0.00  0.00    +0.012 C 
ATOM     11  C   UNL     1      -4.619 -10.072  13.676  0.00  0.00    +0.122 C 
ATOM     12  C   UNL     1      -3.007 -12.315  12.606  0.00  0.00    +0.007 C 
ATOM     13  C   UNL     1      -3.713 -11.787  10.269  0.00  0.00    +0.009 C 
ATOM     14  C   UNL     1      -4.078 -11.191  14.596  0.00  0.00    +0.029 C 
ATOM     15  C   UNL     1      -5.504 -10.057   9.787  0.00  0.00    +0.078 C 
ATOM     16  C   UNL     1      -2.817 -11.857  14.045  0.00  0.00    +0.007 C 
ATOM     17  C   UNL     1      -4.263 -10.782   9.266  0.00  0.00    +0.023 C 
ATOM     18  C   UNL     1      -2.295 -10.142  11.555  0.00  0.00    +0.011 C 
ATOM     20  C   UNL     1      -6.632  -8.796  11.657  0.00  0.00    +0.010 C 
ENDROOT
BRANCH  15   5
ATOM      4  O   UNL     1      -7.366 -10.380   7.636  0.00  0.00    -0.253 OA
ATOM      5  N   UNL     1      -5.889  -9.052   8.817  0.00  0.00    -0.296 N 
ATOM      7  N   UNL     1      -6.982  -8.149   7.018  0.00  0.00    -0.269 N 
ATOM     23  C   UNL     1      -6.810  -9.297   7.795  0.00  0.00    +0.304 C 
ATOM     37  H   UNL     1      -5.410  -8.157   8.834  0.00  0.00    +0.151 HD
ATOM     40  H   UNL     1      -6.443  -7.329   7.286  0.00  0.00    +0.156 HD
BRANCH   7  25
ATOM      1  F   UNL     1      -7.814  -8.642   2.315  0.00  0.00    -0.205 F 
ATOM     25  C   UNL     1      -7.822  -7.981   5.892  0.00  0.00    +0.037 A 
ATOM     27  C   UNL     1      -7.395  -8.402   4.633  0.00  0.00    +0.061 A 
ATOM     28  C   UNL     1      -9.079  -7.394   6.042  0.00  0.00    +0.023 A 
ATOM     31  C   UNL     1      -8.225  -8.238   3.525  0.00  0.00    +0.125 A 
ATOM     32  C   UNL     1      -9.909  -7.230   4.933  0.00  0.00    +0.005 A 
ATOM     35  C   UNL     1      -9.480  -7.652   3.674  0.00  0.00    +0.038 A 
ENDBRANCH   7  25
ENDBRANCH  15   5
BRANCH  11   2
ATOM      2  O   UNL     1      -5.896  -9.698  14.195  0.00  0.00    -0.391 OA
ATOM     38  H   UNL     1      -6.311 -10.490  14.578  0.00  0.00    +0.210 HD
ENDBRANCH  11   2
BRANCH  14  19
ATOM     19  C   UNL     1      -3.809 -10.680  16.017  0.00  0.00    +0.077 C 
ATOM     21  C   UNL     1      -2.352 -10.924  16.395  0.00  0.00    +0.017 C 
BRANCH  19  22
ATOM      3  O   UNL     1      -4.507 -12.431  17.537  0.00  0.00    -0.276 OA
ATOM      6  N   UNL     1      -5.919 -10.620  17.208  0.00  0.00    -0.311 N 
ATOM     22  C   UNL     1      -4.759 -11.354  17.001  0.00  0.00    +0.216 C 
ATOM     39  H   UNL     1      -6.030  -9.714  16.767  0.00  0.00    +0.149 HD
BRANCH   6  24
ATOM     24  C   UNL     1      -6.971 -11.055  18.097  0.00  0.00    +0.139 C 
BRANCH  24  26
ATOM     26  C   UNL     1      -8.210 -10.219  17.951  0.00  0.00    -0.030 A 
ATOM     29  C   UNL     1      -8.199  -9.095  17.125  0.00  0.00    +0.005 A 
ATOM     30  C   UNL     1      -9.371 -10.567  18.641  0.00  0.00    +0.005 A 
ATOM     33  C   UNL     1      -9.349  -8.318  16.990  0.00  0.00    +0.000 A 
ATOM     34  C   UNL     1     -10.521  -9.790  18.506  0.00  0.00    +0.000 A 
ATOM     36  C   UNL     1     -10.511  -8.665  17.680  0.00  0.00    +0.000 A 
ENDBRANCH  24  26
ENDBRANCH   6  24
ENDBRANCH  19  22
ENDBRANCH  14  19
TORSDOF 7
ENDMDL
MODEL 2
REMARK VINA RESULT:      -7.3     20.001     23.399
REMARK  Name = 45784429
REMARK  10 active torsions:
REMARK  status: ('A' for Active; 'I' for Inactive)
REMARK    1  A    between atoms: O_2  and  C_11
REMARK    2  A    between atoms: N_5  and  C_15
REMARK    3  A    between atoms: N_6  and  C_24
REMARK    4  A    between atoms: N_7  and  C_25
REMARK    5  A    between atoms: C_8  and  C_18
REMARK    6  A    between atoms: C_10  and  C_20
REMARK    7  A    between atoms: C_14  and  C_19
REMARK    8  A    between atoms: C_19  and  C_21
REMARK    9  A    between atoms: C_19  and  C_22
REMARK   10  A    between atoms: C_24  and  C_26
REMARK                            x       y       z     vdW  Elec       q    Type
REMARK                         _______ _______ _______ _____ _____    ______ ____
ROOT
ATOM      8  C   UNL     1     -11.150   8.545  18.893  0.00  0.00    -0.027 C 
ATOM      9  C   UNL     1     -12.658   8.940  18.756  0.00  0.00    +0.028 C 
ATOM     10  C   UNL     1     -13.589   7.740  19.157  0.00  0.00    +0.012 C 
ATOM     11  C   UNL     1     -12.950   9.575  17.366  0.00  0.00    +0.122 C 
ATOM     12  C   UNL     1     -10.265   9.779  18.600  0.00  0.00    +0.007 C 
ATOM     13  C   UNL     1     -10.875   8.104  20.349  0.00  0.00    +0.009 C 
ATOM     14  C   UNL     1     -11.993  10.743  17.033  0.00  0.00    +0.029 C 
ATOM     15  C   UNL     1     -13.253   7.257  20.597  0.00  0.00    +0.078 C 
ATOM     16  C   UNL     1     -10.520  10.380  17.224  0.00  0.00    +0.007 C 
ATOM     17  C   UNL     1     -11.768   6.959  20.806  0.00  0.00    +0.023 C 
ATOM     18  C   UNL     1     -10.745   7.401  17.929  0.00  0.00    +0.011 C 
ATOM     20  C   UNL     1     -15.089   8.069  19.073  0.00  0.00    +0.010 C 
ENDROOT
BRANCH  15   5
ATOM      4  O   UNL     1     -14.631   6.796  23.064  0.00  0.00    -0.253 OA
ATOM      5  N   UNL     1     -14.013   6.077  20.957  0.00  0.00    -0.296 N 
ATOM      7  N   UNL     1     -15.305   4.699  22.252  0.00  0.00    -0.269 N 
ATOM     23  C   UNL     1     -14.657   5.935  22.188  0.00  0.00    +0.304 C 
ATOM     37  H   UNL     1     -14.010   5.288  20.318  0.00  0.00    +0.151 HD
ATOM     40  H   UNL     1     -15.228   4.099  21.435  0.00  0.00    +0.156 HD
BRANCH   7  25
ATOM      1  F   UNL     1     -15.612   3.086  26.765  0.00  0.00    -0.205 F 
ATOM     25  C   UNL     1     -16.067   4.173  23.322  0.00  0.00    +0.037 A 
ATOM     27  C   UNL     1     -15.451   3.883  24.540  0.00  0.00    +0.061 A 
ATOM     28  C   UNL     1     -17.434   3.946  23.160  0.00  0.00    +0.023 A 
ATOM     31  C   UNL     1     -16.203   3.366  25.595  0.00  0.00    +0.125 A 
ATOM     32  C   UNL     1     -18.185   3.429  24.215  0.00  0.00    +0.005 A 
ATOM     35  C   UNL     1     -17.569   3.139  25.433  0.00  0.00    +0.038 A 
ENDBRANCH   7  25
ENDBRANCH  15   5
BRANCH  11   2
ATOM      2  O   UNL     1     -14.272  10.115  17.356  0.00  0.00    -0.391 OA
ATOM     38  H   UNL     1     -14.821   9.580  17.955  0.00  0.00    +0.210 HD
ENDBRANCH  11   2
BRANCH  14  19
ATOM     19  C   UNL     1     -12.210  11.269  15.609  0.00  0.00    +0.077 C 
ATOM     21  C   UNL     1     -11.636  10.287  14.593  0.00  0.00    +0.017 C 
BRANCH  19  22
ATOM      3  O   UNL     1     -11.939  13.618  16.133  0.00  0.00    -0.276 OA
ATOM      6  N   UNL     1     -10.583  12.682  14.501  0.00  0.00    -0.311 N 
ATOM     22  C   UNL     1     -11.582  12.651  15.463  0.00  0.00    +0.216 C 
ATOM     39  H   UNL     1     -10.310  11.828  14.026  0.00  0.00    +0.149 HD
BRANCH   6  24
ATOM     24  C   UNL     1      -9.842  13.880  14.181  0.00  0.00    +0.139 C 
BRANCH  24  26
ATOM     26  C   UNL     1      -8.432  13.822  14.695  0.00  0.00    -0.030 A 
ATOM     29  C   UNL     1      -7.363  14.030  13.823  0.00  0.00    +0.005 A 
ATOM     30  C   UNL     1      -8.191  13.559  16.044  0.00  0.00    +0.005 A 
ATOM     33  C   UNL     1      -6.053  13.976  14.300  0.00  0.00    +0.000 A 
ATOM     34  C   UNL     1      -6.881  13.504  16.520  0.00  0.00    +0.000 A 
ATOM     36  C   UNL     1      -5.812  13.712  15.648  0.00  0.00    +0.000 A 
ENDBRANCH  24  26
ENDBRANCH   6  24
ENDBRANCH  19  22
ENDBRANCH  14  19
TORSDOF 7
ENDMDL
MODEL 3
REMARK VINA RESULT:      -7.2      5.355      8.415
REMARK  Name = 45784429
REMARK  10 active torsions:
REMARK  status: ('A' for Active; 'I' for Inactive)
REMARK    1  A    between atoms: O_2  and  C_11
REMARK    2  A    between atoms: N_5  and  C_15
REMARK    3  A    between atoms: N_6  and  C_24
REMARK    4  A    between atoms: N_7  and  C_25
REMARK    5  A    between atoms: C_8  and  C_18
REMARK    6  A    between atoms: C_10  and  C_20
REMARK    7  A    between atoms: C_14  and  C_19
REMARK    8  A    between atoms: C_19  and  C_21
REMARK    9  A    between atoms: C_19  and  C_22
REMARK   10  A    between atoms: C_24  and  C_26
REMARK                            x       y       z     vdW  Elec       q    Type
REMARK                         _______ _______ _______ _____ _____    ______ ____
ROOT
ATOM      8  C   UNL     1     -11.948 -10.442  18.493  0.00  0.00    -0.027 C 
ATOM      9  C   UNL     1     -10.742  -9.826  17.711  0.00  0.00    +0.028 C 
ATOM     10  C   UNL     1     -11.192  -9.328  16.290  0.00  0.00    +0.012 C 
ATOM     11  C   UNL     1      -9.514 -10.781  17.726  0.00  0.00    +0.122 C 
ATOM     12  C   UNL     1     -11.498 -10.818  19.925  0.00  0.00    +0.007 C 
ATOM     13  C   UNL     1     -13.066  -9.381  18.615  0.00  0.00    +0.009 C 
ATOM     14  C   UNL     1      -9.132 -11.236  19.153  0.00  0.00    +0.029 C 
ATOM     15  C   UNL     1     -12.366  -8.317  16.422  0.00  0.00    +0.078 C 
ATOM     16  C   UNL     1     -10.321 -11.784  19.942  0.00  0.00    +0.007 C 
ATOM     17  C   UNL     1     -13.526  -8.840  17.268  0.00  0.00    +0.023 C 
ATOM     18  C   UNL     1     -12.520 -11.707  17.803  0.00  0.00    +0.011 C 
ATOM     20  C   UNL     1     -10.058  -8.683  15.476  0.00  0.00    +0.010 C 
ENDROOT
BRANCH  15   5
ATOM      4  O   UNL     1     -12.381  -5.677  15.311  0.00  0.00    -0.253 OA
ATOM      5  N   UNL     1     -12.883  -7.925  15.127  0.00  0.00    -0.296 N 
ATOM      7  N   UNL     1     -13.418  -6.533  13.388  0.00  0.00    -0.269 N 
ATOM     23  C   UNL     1     -12.850  -6.608  14.662  0.00  0.00    +0.304 C 
ATOM     37  H   UNL     1     -13.362  -8.624  14.567  0.00  0.00    +0.151 HD
ATOM     40  H   UNL     1     -13.761  -7.403  12.988  0.00  0.00    +0.156 HD
BRANCH   7  25
ATOM      1  F   UNL     1     -11.585  -3.230  10.424  0.00  0.00    -0.205 F 
ATOM     25  C   UNL     1     -13.576  -5.387  12.574  0.00  0.00    +0.037 A 
ATOM     27  C   UNL     1     -12.480  -4.863  11.887  0.00  0.00    +0.061 A 
ATOM     28  C   UNL     1     -14.827  -4.781  12.457  0.00  0.00    +0.023 A 
ATOM     31  C   UNL     1     -12.637  -3.734  11.084  0.00  0.00    +0.125 A 
ATOM     32  C   UNL     1     -14.984  -3.652  11.653  0.00  0.00    +0.005 A 
ATOM     35  C   UNL     1     -13.887  -3.128  10.967  0.00  0.00    +0.038 A 
ENDBRANCH   7  25
ENDBRANCH  15   5
BRANCH  11   2
ATOM      2  O   UNL     1      -8.375 -10.101  17.195  0.00  0.00    -0.391 OA
ATOM     38  H   UNL     1      -8.241  -9.287  17.710  0.00  0.00    +0.210 HD
ENDBRANCH  11   2
BRANCH  14  19
ATOM     19  C   UNL     1      -8.005 -12.276  19.136  0.00  0.00    +0.077 C 
ATOM     21  C   UNL     1      -8.267 -13.351  20.186  0.00  0.00    +0.017 C 
BRANCH  19  22
ATOM      3  O   UNL     1      -6.295 -11.199  20.470  0.00  0.00    -0.276 OA
ATOM      6  N   UNL     1      -5.923 -11.467  18.197  0.00  0.00    -0.311 N 
ATOM     22  C   UNL     1      -6.661 -11.592  19.365  0.00  0.00    +0.216 C 
ATOM     39  H   UNL     1      -6.273 -11.864  17.331  0.00  0.00    +0.149 HD
BRANCH   6  24
ATOM     24  C   UNL     1      -4.617 -10.851  18.159  0.00  0.00    +0.139 C 
BRANCH  24  26
ATOM     26  C   UNL     1      -4.072 -10.776  16.762  0.00  0.00    -0.030 A 
ATOM     29  C   UNL     1      -4.944 -10.694  15.677  0.00  0.00    +0.005 A 
ATOM     30  C   UNL     1      -2.693 -10.789  16.550  0.00  0.00    +0.005 A 
ATOM     33  C   UNL     1      -4.438 -10.625  14.379  0.00  0.00    +0.000 A 
ATOM     34  C   UNL     1      -2.187 -10.719  15.252  0.00  0.00    +0.000 A 
ATOM     36  C   UNL     1      -3.060 -10.637  14.166  0.00  0.00    +0.000 A 
ENDBRANCH  24  26
ENDBRANCH   6  24
ENDBRANCH  19  22
ENDBRANCH  14  19
TORSDOF 7
ENDMDL
MODEL 4
REMARK VINA RESULT:      -7.1      3.600      6.849
REMARK  Name = 45784429
REMARK  10 active torsions:
REMARK  status: ('A' for Active; 'I' for Inactive)
REMARK    1  A    between atoms: O_2  and  C_11
REMARK    2  A    between atoms: N_5  and  C_15
REMARK    3  A    between atoms: N_6  and  C_24
REMARK    4  A    between atoms: N_7  and  C_25
REMARK    5  A    between atoms: C_8  and  C_18
REMARK    6  A    between atoms: C_10  and  C_20
REMARK    7  A    between atoms: C_14  and  C_19
REMARK    8  A    between atoms: C_19  and  C_21
REMARK    9  A    between atoms: C_19  and  C_22
REMARK   10  A    between atoms: C_24  and  C_26
REMARK                            x       y       z     vdW  Elec       q    Type
REMARK                         _______ _______ _______ _____ _____    ______ ____
ROOT
ATOM      8  C   UNL     1      -7.768  -8.424   7.375  0.00  0.00    -0.027 C 
ATOM      9  C   UNL     1      -6.705  -9.248   6.575  0.00  0.00    +0.028 C 
ATOM     10  C   UNL     1      -7.319  -9.807   5.242  0.00  0.00    +0.012 C 
ATOM     11  C   UNL     1      -6.008 -10.301   7.483  0.00  0.00    +0.122 C 
ATOM     12  C   UNL     1      -7.102  -7.795   8.622  0.00  0.00    +0.007 C 
ATOM     13  C   UNL     1      -8.286  -7.270   6.486  0.00  0.00    +0.009 C 
ATOM     14  C   UNL     1      -5.435  -9.683   8.779  0.00  0.00    +0.029 C 
ATOM     15  C   UNL     1      -7.904  -8.645   4.390  0.00  0.00    +0.078 C 
ATOM     16  C   UNL     1      -6.453  -8.828   9.533  0.00  0.00    +0.007 C 
ATOM     17  C   UNL     1      -8.870  -7.750   5.165  0.00  0.00    +0.023 C 
ATOM     18  C   UNL     1      -8.968  -9.291   7.836  0.00  0.00    +0.011 C 
ATOM     20  C   UNL     1      -6.318 -10.605   4.389  0.00  0.00    +0.010 C 
ENDROOT
BRANCH  15   5
ATOM      4  O   UNL     1      -7.538  -7.727   1.702  0.00  0.00    -0.253 OA
ATOM      5  N   UNL     1      -8.581  -9.136   3.207  0.00  0.00    -0.296 N 
ATOM      7  N   UNL     1      -9.136  -9.291   0.990  0.00  0.00    -0.269 N 
ATOM     23  C   UNL     1      -8.341  -8.629   1.928  0.00  0.00    +0.304 C 
ATOM     37  H   UNL     1      -9.319  -9.823   3.325  0.00  0.00    +0.151 HD
ATOM     40  H   UNL     1      -9.751 -10.019   1.345  0.00  0.00    +0.156 HD
BRANCH   7  25
ATOM      1  F   UNL     1      -7.075  -9.433  -3.344  0.00  0.00    -0.205 F 
ATOM     25  C   UNL     1      -9.192  -9.077  -0.407  0.00  0.00    +0.037 A 
ATOM     27  C   UNL     1      -8.084  -9.366  -1.203  0.00  0.00    +0.061 A 
ATOM     28  C   UNL     1     -10.357  -8.576  -0.990  0.00  0.00    +0.023 A 
ATOM     31  C   UNL     1      -8.140  -9.156  -2.580  0.00  0.00    +0.125 A 
ATOM     32  C   UNL     1     -10.414  -8.366  -2.367  0.00  0.00    +0.005 A 
ATOM     35  C   UNL     1      -9.304  -8.656  -3.162  0.00  0.00    +0.038 A 
ENDBRANCH   7  25
ENDBRANCH  15   5
BRANCH  11   2
ATOM      2  O   UNL     1      -4.906 -10.880   6.783  0.00  0.00    -0.391 OA
ATOM     38  H   UNL     1      -4.160 -10.257   6.826  0.00  0.00    +0.210 HD
ENDBRANCH  11   2
BRANCH  14  19
ATOM     19  C   UNL     1      -4.869 -10.755   9.719  0.00  0.00    +0.077 C 
ATOM     21  C   UNL     1      -5.938 -11.200  10.712  0.00  0.00    +0.017 C 
BRANCH  19  22
ATOM      3  O   UNL     1      -2.977  -9.272  10.009  0.00  0.00    -0.276 OA
ATOM      6  N   UNL     1      -3.348 -10.920  11.598  0.00  0.00    -0.311 N 
ATOM     22  C   UNL     1      -3.634 -10.220  10.435  0.00  0.00    +0.216 C 
ATOM     39  H   UNL     1      -3.970 -11.658  11.911  0.00  0.00    +0.149 HD
BRANCH   6  24
ATOM     24  C   UNL     1      -2.225 -10.600  12.448  0.00  0.00    +0.139 C 
BRANCH  24  26
ATOM     26  C   UNL     1      -2.592 -10.644  13.904  0.00  0.00    -0.030 A 
ATOM     29  C   UNL     1      -3.933 -10.696  14.283  0.00  0.00    +0.005 A 
ATOM     30  C   UNL     1      -1.591 -10.633  14.876  0.00  0.00    +0.005 A 
ATOM     33  C   UNL     1      -4.275 -10.737  15.635  0.00  0.00    +0.000 A 
ATOM     34  C   UNL     1      -1.933 -10.673  16.228  0.00  0.00    +0.000 A 
ATOM     36  C   UNL     1      -3.275 -10.725  16.607  0.00  0.00    +0.000 A 
ENDBRANCH  24  26
ENDBRANCH   6  24
ENDBRANCH  19  22
ENDBRANCH  14  19
TORSDOF 7
ENDMDL
MODEL 5
REMARK VINA RESULT:      -7.1     24.765     27.976
REMARK  Name = 45784429
REMARK  10 active torsions:
REMARK  status: ('A' for Active; 'I' for Inactive)
REMARK    1  A    between atoms: O_2  and  C_11
REMARK    2  A    between atoms: N_5  and  C_15
REMARK    3  A    between atoms: N_6  and  C_24
REMARK    4  A    between atoms: N_7  and  C_25
REMARK    5  A    between atoms: C_8  and  C_18
REMARK    6  A    between atoms: C_10  and  C_20
REMARK    7  A    between atoms: C_14  and  C_19
REMARK    8  A    between atoms: C_19  and  C_21
REMARK    9  A    between atoms: C_19  and  C_22
REMARK   10  A    between atoms: C_24  and  C_26
REMARK                            x       y       z     vdW  Elec       q    Type
REMARK                         _______ _______ _______ _____ _____    ______ ____
ROOT
ATOM      8  C   UNL     1       9.432   6.202   6.265  0.00  0.00    -0.027 C 
ATOM      9  C   UNL     1      10.470   7.276   5.797  0.00  0.00    +0.028 C 
ATOM     10  C   UNL     1      10.017   8.717   6.229  0.00  0.00    +0.012 C 
ATOM     11  C   UNL     1      10.814   7.108   4.290  0.00  0.00    +0.122 C 
ATOM     12  C   UNL     1       9.961   4.789   5.924  0.00  0.00    +0.007 C 
ATOM     13  C   UNL     1       9.274   6.288   7.800  0.00  0.00    +0.009 C 
ATOM     14  C   UNL     1      11.244   5.665   3.935  0.00  0.00    +0.029 C 
ATOM     15  C   UNL     1       9.789   8.771   7.766  0.00  0.00    +0.078 C 
ATOM     16  C   UNL     1      10.262   4.609   4.443  0.00  0.00    +0.007 C 
ATOM     17  C   UNL     1       8.861   7.672   8.282  0.00  0.00    +0.023 C 
ATOM     18  C   UNL     1       8.045   6.388   5.598  0.00  0.00    +0.011 C 
ATOM     20  C   UNL     1      11.009   9.821   5.826  0.00  0.00    +0.010 C 
ENDROOT
BRANCH  15   5
ATOM      4  O   UNL     1      11.106  10.716   9.405  0.00  0.00    -0.253 OA
ATOM      5  N   UNL     1       9.259  10.053   8.184  0.00  0.00    -0.296 N 
ATOM      7  N   UNL     1       9.213  12.092   9.228  0.00  0.00    -0.269 N 
ATOM     23  C   UNL     1       9.974  10.945   8.988  0.00  0.00    +0.304 C 
ATOM     37  H   UNL     1       8.298  10.277   7.949  0.00  0.00    +0.151 HD
ATOM     40  H   UNL     1       8.289  12.124   8.806  0.00  0.00    +0.156 HD
BRANCH   7  25
ATOM      1  F   UNL     1       9.867  14.234  13.475  0.00  0.00    -0.205 F 
ATOM     25  C   UNL     1       9.572  13.227   9.991  0.00  0.00    +0.037 A 
ATOM     27  C   UNL     1       9.541  13.170  11.385  0.00  0.00    +0.061 A 
ATOM     28  C   UNL     1       9.958  14.405   9.351  0.00  0.00    +0.023 A 
ATOM     31  C   UNL     1       9.898  14.289  12.136  0.00  0.00    +0.125 A 
ATOM     32  C   UNL     1      10.314  15.524  10.102  0.00  0.00    +0.005 A 
ATOM     35  C   UNL     1      10.283  15.466  11.496  0.00  0.00    +0.038 A 
ENDBRANCH   7  25
ENDBRANCH  15   5
BRANCH  11   2
ATOM      2  O   UNL     1      11.913   7.956   3.954  0.00  0.00    -0.391 OA
ATOM     38  H   UNL     1      11.718   8.380   3.101  0.00  0.00    +0.210 HD
ENDBRANCH  11   2
BRANCH  14  19
ATOM     19  C   UNL     1      11.453   5.488   2.426  0.00  0.00    +0.077 C 
ATOM     21  C   UNL     1      10.604   4.331   1.911  0.00  0.00    +0.017 C 
BRANCH  19  22
ATOM      3  O   UNL     1      13.767   6.167   2.208  0.00  0.00    -0.276 OA
ATOM      6  N   UNL     1      13.211   3.961   1.758  0.00  0.00    -0.311 N 
ATOM     22  C   UNL     1      12.932   5.269   2.127  0.00  0.00    +0.216 C 
ATOM     39  H   UNL     1      12.474   3.264   1.764  0.00  0.00    +0.149 HD
BRANCH   6  24
ATOM     24  C   UNL     1      14.542   3.510   1.425  0.00  0.00    +0.139 C 
BRANCH  24  26
ATOM     26  C   UNL     1      14.949   3.932   0.043  0.00  0.00    -0.030 A 
ATOM     29  C   UNL     1      16.267   4.315  -0.210  0.00  0.00    +0.005 A 
ATOM     30  C   UNL     1      14.009   3.943  -0.988  0.00  0.00    +0.005 A 
ATOM     33  C   UNL     1      16.645   4.708  -1.493  0.00  0.00    +0.000 A 
ATOM     34  C   UNL     1      14.388   4.337  -2.272  0.00  0.00    +0.000 A 
ATOM     36  C   UNL     1      15.706   4.719  -2.525  0.00  0.00    +0.000 A 
ENDBRANCH  24  26
ENDBRANCH   6  24
ENDBRANCH  19  22
ENDBRANCH  14  19
TORSDOF 7
ENDMDL
MODEL 6
REMARK VINA RESULT:      -7.0     26.778     29.468
REMARK  Name = 45784429
REMARK  10 active torsions:
REMARK  status: ('A' for Active; 'I' for Inactive)
REMARK    1  A    between atoms: O_2  and  C_11
REMARK    2  A    between atoms: N_5  and  C_15
REMARK    3  A    between atoms: N_6  and  C_24
REMARK    4  A    between atoms: N_7  and  C_25
REMARK    5  A    between atoms: C_8  and  C_18
REMARK    6  A    between atoms: C_10  and  C_20
REMARK    7  A    between atoms: C_14  and  C_19
REMARK    8  A    between atoms: C_19  and  C_21
REMARK    9  A    between atoms: C_19  and  C_22
REMARK   10  A    between atoms: C_24  and  C_26
REMARK                            x       y       z     vdW  Elec       q    Type
REMARK                         _______ _______ _______ _____ _____    ______ ____
ROOT
ATOM      8  C   UNL     1      16.709  -4.423  30.242  0.00  0.00    -0.027 C 
ATOM      9  C   UNL     1      15.660  -5.427  29.658  0.00  0.00    +0.028 C 
ATOM     10  C   UNL     1      14.737  -5.996  30.795  0.00  0.00    +0.012 C 
ATOM     11  C   UNL     1      16.344  -6.495  28.757  0.00  0.00    +0.122 C 
ATOM     12  C   UNL     1      17.525  -3.799  29.086  0.00  0.00    +0.007 C 
ATOM     13  C   UNL     1      15.963  -3.278  30.964  0.00  0.00    +0.009 C 
ATOM     14  C   UNL     1      17.242  -5.866  27.667  0.00  0.00    +0.029 C 
ATOM     15  C   UNL     1      14.049  -4.830  31.562  0.00  0.00    +0.078 C 
ATOM     16  C   UNL     1      18.228  -4.840  28.226  0.00  0.00    +0.007 C 
ATOM     17  C   UNL     1      15.030  -3.770  32.062  0.00  0.00    +0.023 C 
ATOM     18  C   UNL     1      17.689  -5.099  31.235  0.00  0.00    +0.011 C 
ATOM     20  C   UNL     1      13.661  -6.969  30.286  0.00  0.00    +0.010 C 
ENDROOT
BRANCH  15   5
ATOM      4  O   UNL     1      11.310  -4.236  32.148  0.00  0.00    -0.253 OA
ATOM      5  N   UNL     1      13.281  -5.313  32.692  0.00  0.00    -0.296 N 
ATOM      7  N   UNL     1      11.467  -5.580  34.065  0.00  0.00    -0.269 N 
ATOM     23  C   UNL     1      11.942  -4.971  32.902  0.00  0.00    +0.304 C 
ATOM     37  H   UNL     1      13.759  -5.857  33.403  0.00  0.00    +0.151 HD
ATOM     40  H   UNL     1      12.124  -6.164  34.577  0.00  0.00    +0.156 HD
BRANCH   7  25
ATOM      1  F   UNL     1       6.828  -6.822  34.086  0.00  0.00    -0.205 F 
ATOM     25  C   UNL     1      10.171  -5.489  34.625  0.00  0.00    +0.037 A 
ATOM     27  C   UNL     1       9.118  -6.215  34.068  0.00  0.00    +0.061 A 
ATOM     28  C   UNL     1       9.946  -4.675  35.736  0.00  0.00    +0.023 A 
ATOM     31  C   UNL     1       7.841  -6.126  34.622  0.00  0.00    +0.125 A 
ATOM     32  C   UNL     1       8.670  -4.587  36.290  0.00  0.00    +0.005 A 
ATOM     35  C   UNL     1       7.616  -5.312  35.731  0.00  0.00    +0.038 A 
ENDBRANCH   7  25
ENDBRANCH  15   5
BRANCH  11   2
ATOM      2  O   UNL     1      15.344  -7.254  28.075  0.00  0.00    -0.391 OA
ATOM     38  H   UNL     1      15.633  -8.183  28.053  0.00  0.00    +0.210 HD
ENDBRANCH  11   2
BRANCH  14  19
ATOM     19  C   UNL     1      18.007  -6.933  26.874  0.00  0.00    +0.077 C 
ATOM     21  C   UNL     1      19.272  -7.337  27.624  0.00  0.00    +0.017 C 
BRANCH  19  22
ATOM      3  O   UNL     1      19.452  -6.494  24.981  0.00  0.00    -0.276 OA
ATOM      6  N   UNL     1      17.230  -5.842  24.855  0.00  0.00    -0.311 N 
ATOM     22  C   UNL     1      18.331  -6.412  25.478  0.00  0.00    +0.216 C 
ATOM     39  H   UNL     1      16.324  -5.859  25.311  0.00  0.00    +0.149 HD
BRANCH   6  24
ATOM     24  C   UNL     1      17.289  -5.278  23.526  0.00  0.00    +0.139 C 
BRANCH  24  26
ATOM     26  C   UNL     1      17.222  -3.778  23.551  0.00  0.00    -0.030 A 
ATOM     29  C   UNL     1      17.743  -3.040  22.488  0.00  0.00    +0.005 A 
ATOM     30  C   UNL     1      16.638  -3.123  24.636  0.00  0.00    +0.005 A 
ATOM     33  C   UNL     1      17.682  -1.646  22.511  0.00  0.00    +0.000 A 
ATOM     34  C   UNL     1      16.577  -1.730  24.658  0.00  0.00    +0.000 A 
ATOM     36  C   UNL     1      17.099  -0.991  23.595  0.00  0.00    +0.000 A 
ENDBRANCH  24  26
ENDBRANCH   6  24
ENDBRANCH  19  22
ENDBRANCH  14  19
TORSDOF 7
ENDMDL
MODEL 7
REMARK VINA RESULT:      -7.0     26.483     30.016
REMARK  Name = 45784429
REMARK  10 active torsions:
REMARK  status: ('A' for Active; 'I' for Inactive)
REMARK    1  A    between atoms: O_2  and  C_11
REMARK    2  A    between atoms: N_5  and  C_15
REMARK    3  A    between atoms: N_6  and  C_24
REMARK    4  A    between atoms: N_7  and  C_25
REMARK    5  A    between atoms: C_8  and  C_18
REMARK    6  A    between atoms: C_10  and  C_20
REMARK    7  A    between atoms: C_14  and  C_19
REMARK    8  A    between atoms: C_19  and  C_21
REMARK    9  A    between atoms: C_19  and  C_22
REMARK   10  A    between atoms: C_24  and  C_26
REMARK                            x       y       z     vdW  Elec       q    Type
REMARK                         _______ _______ _______ _____ _____    ______ ____
ROOT
ATOM      8  C   UNL     1      13.494   4.697  -1.403  0.00  0.00    -0.027 C 
ATOM      9  C   UNL     1      14.492   4.017  -0.407  0.00  0.00    +0.028 C 
ATOM     10  C   UNL     1      13.930   4.053   1.060  0.00  0.00    +0.012 C 
ATOM     11  C   UNL     1      15.933   4.575  -0.585  0.00  0.00    +0.122 C 
ATOM     12  C   UNL     1      14.022   4.545  -2.848  0.00  0.00    +0.007 C 
ATOM     13  C   UNL     1      12.129   3.974  -1.322  0.00  0.00    +0.009 C 
ATOM     14  C   UNL     1      16.417   4.517  -2.052  0.00  0.00    +0.029 C 
ATOM     15  C   UNL     1      12.525   3.389   1.114  0.00  0.00    +0.078 C 
ATOM     16  C   UNL     1      15.417   5.126  -3.035  0.00  0.00    +0.007 C 
ATOM     17  C   UNL     1      11.546   3.953   0.085  0.00  0.00    +0.023 C 
ATOM     18  C   UNL     1      13.291   6.204  -1.103  0.00  0.00    +0.011 C 
ATOM     20  C   UNL     1      14.850   3.374   2.088  0.00  0.00    +0.010 C 
ENDROOT
BRANCH  15   5
ATOM      4  O   UNL     1      11.458   5.767   2.301  0.00  0.00    -0.253 OA
ATOM      5  N   UNL     1      11.927   3.508   2.428  0.00  0.00    -0.296 N 
ATOM      7  N   UNL     1      10.918   4.523   4.216  0.00  0.00    -0.269 N 
ATOM     23  C   UNL     1      11.430   4.713   2.931  0.00  0.00    +0.304 C 
ATOM     37  H   UNL     1      11.944   2.698   3.040  0.00  0.00    +0.151 HD
ATOM     40  H   UNL     1      10.971   3.581   4.596  0.00  0.00    +0.156 HD
BRANCH   7  25
ATOM      1  F   UNL     1      11.317   8.025   7.477  0.00  0.00    -0.205 F 
ATOM     25  C   UNL     1      10.326   5.487   5.066  0.00  0.00    +0.037 A 
ATOM     27  C   UNL     1      11.129   6.296   5.869  0.00  0.00    +0.061 A 
ATOM     28  C   UNL     1       8.938   5.629   5.100  0.00  0.00    +0.023 A 
ATOM     31  C   UNL     1      10.545   7.248   6.705  0.00  0.00    +0.125 A 
ATOM     32  C   UNL     1       8.354   6.581   5.935  0.00  0.00    +0.005 A 
ATOM     35  C   UNL     1       9.159   7.390   6.739  0.00  0.00    +0.038 A 
ENDBRANCH   7  25
ENDBRANCH  15   5
BRANCH  11   2
ATOM      2  O   UNL     1      16.847   3.788   0.179  0.00  0.00    -0.391 OA
ATOM     38  H   UNL     1      16.488   3.696   1.079  0.00  0.00    +0.210 HD
ENDBRANCH  11   2
BRANCH  14  19
ATOM     19  C   UNL     1      17.784   5.189  -2.228  0.00  0.00    +0.077 C 
ATOM     21  C   UNL     1      17.671   6.363  -3.195  0.00  0.00    +0.017 C 
BRANCH  19  22
ATOM      3  O   UNL     1      19.036   3.967  -3.902  0.00  0.00    -0.276 OA
ATOM      6  N   UNL     1      19.434   3.507  -1.664  0.00  0.00    -0.311 N 
ATOM     22  C   UNL     1      18.808   4.168  -2.711  0.00  0.00    +0.216 C 
ATOM     39  H   UNL     1      19.228   3.766  -0.705  0.00  0.00    +0.149 HD
BRANCH   6  24
ATOM     24  C   UNL     1      20.441   2.492  -1.870  0.00  0.00    +0.139 C 
BRANCH  24  26
ATOM     26  C   UNL     1      21.811   2.976  -1.487  0.00  0.00    -0.030 A 
ATOM     29  C   UNL     1      22.130   3.170  -0.143  0.00  0.00    +0.005 A 
ATOM     30  C   UNL     1      22.762   3.230  -2.475  0.00  0.00    +0.005 A 
ATOM     33  C   UNL     1      23.402   3.619   0.213  0.00  0.00    +0.000 A 
ATOM     34  C   UNL     1      24.034   3.679  -2.118  0.00  0.00    +0.000 A 
ATOM     36  C   UNL     1      24.354   3.874  -0.774  0.00  0.00    +0.000 A 
ENDBRANCH  24  26
ENDBRANCH   6  24
ENDBRANCH  19  22
ENDBRANCH  14  19
TORSDOF 7
ENDMDL
MODEL 8
REMARK VINA RESULT:      -7.0      2.432      3.399
REMARK  Name = 45784429
REMARK  10 active torsions:
REMARK  status: ('A' for Active; 'I' for Inactive)
REMARK    1  A    between atoms: O_2  and  C_11
REMARK    2  A    between atoms: N_5  and  C_15
REMARK    3  A    between atoms: N_6  and  C_24
REMARK    4  A    between atoms: N_7  and  C_25
REMARK    5  A    between atoms: C_8  and  C_18
REMARK    6  A    between atoms: C_10  and  C_20
REMARK    7  A    between atoms: C_14  and  C_19
REMARK    8  A    between atoms: C_19  and  C_21
REMARK    9  A    between atoms: C_19  and  C_22
REMARK   10  A    between atoms: C_24  and  C_26
REMARK                            x       y       z     vdW  Elec       q    Type
REMARK                         _______ _______ _______ _____ _____    ______ ____
ROOT
ATOM      8  C   UNL     1      -5.013 -12.726  10.214  0.00  0.00    -0.027 C 
ATOM      9  C   UNL     1      -4.531 -11.252  10.425  0.00  0.00    +0.028 C 
ATOM     10  C   UNL     1      -4.554 -10.458   9.070  0.00  0.00    +0.012 C 
ATOM     11  C   UNL     1      -3.185 -11.206  11.203  0.00  0.00    +0.122 C 
ATOM     12  C   UNL     1      -5.085 -13.446  11.582  0.00  0.00    +0.007 C 
ATOM     13  C   UNL     1      -6.438 -12.710   9.615  0.00  0.00    +0.009 C 
ATOM     14  C   UNL     1      -3.231 -12.014  12.520  0.00  0.00    +0.029 C 
ATOM     15  C   UNL     1      -5.975 -10.511   8.439  0.00  0.00    +0.078 C 
ATOM     16  C   UNL     1      -3.758 -13.436  12.328  0.00  0.00    +0.007 C 
ATOM     17  C   UNL     1      -6.529 -11.930   8.311  0.00  0.00    +0.023 C 
ATOM     18  C   UNL     1      -4.075 -13.530   9.278  0.00  0.00    +0.011 C 
ATOM     20  C   UNL     1      -4.119  -8.989   9.209  0.00  0.00    +0.010 C 
ENDROOT
BRANCH  15   5
ATOM      4  O   UNL     1      -8.251  -9.345   7.151  0.00  0.00    -0.253 OA
ATOM      5  N   UNL     1      -6.005  -9.887   7.132  0.00  0.00    -0.296 N 
ATOM      7  N   UNL     1      -6.892  -8.813   5.314  0.00  0.00    -0.269 N 
ATOM     23  C   UNL     1      -7.165  -9.341   6.578  0.00  0.00    +0.304 C 
ATOM     37  H   UNL     1      -5.165  -9.920   6.563  0.00  0.00    +0.151 HD
ATOM     40  H   UNL     1      -5.933  -8.890   4.983  0.00  0.00    +0.156 HD
BRANCH   7  25
ATOM      1  F   UNL     1     -11.044  -6.547   4.488  0.00  0.00    -0.205 F 
ATOM     25  C   UNL     1      -7.790  -8.174   4.427  0.00  0.00    +0.037 A 
ATOM     27  C   UNL     1      -8.998  -7.666   4.904  0.00  0.00    +0.061 A 
ATOM     28  C   UNL     1      -7.467  -8.051   3.075  0.00  0.00    +0.023 A 
ATOM     31  C   UNL     1      -9.882  -7.034   4.030  0.00  0.00    +0.125 A 
ATOM     32  C   UNL     1      -8.351  -7.420   2.201  0.00  0.00    +0.005 A 
ATOM     35  C   UNL     1      -9.560  -6.912   2.679  0.00  0.00    +0.038 A 
ENDBRANCH   7  25
ENDBRANCH  15   5
BRANCH  11   2
ATOM      2  O   UNL     1      -2.888  -9.855  11.562  0.00  0.00    -0.391 OA
ATOM     38  H   UNL     1      -3.529  -9.575  12.238  0.00  0.00    +0.210 HD
ENDBRANCH  11   2
BRANCH  14  19
ATOM     19  C   UNL     1      -1.860 -12.064  13.206  0.00  0.00    +0.077 C 
ATOM     21  C   UNL     1      -1.529 -13.496  13.615  0.00  0.00    +0.017 C 
BRANCH  19  22
ATOM      3  O   UNL     1      -1.456  -9.961  14.336  0.00  0.00    -0.276 OA
ATOM      6  N   UNL     1      -2.309 -11.734  15.564  0.00  0.00    -0.311 N 
ATOM     22  C   UNL     1      -1.844 -11.125  14.407  0.00  0.00    +0.216 C 
ATOM     39  H   UNL     1      -2.662 -12.685  15.530  0.00  0.00    +0.149 HD
BRANCH   6  24
ATOM     24  C   UNL     1      -2.388 -11.047  16.832  0.00  0.00    +0.139 C 
BRANCH  24  26
ATOM     26  C   UNL     1      -3.784 -11.048  17.386  0.00  0.00    -0.030 A 
ATOM     29  C   UNL     1      -4.781 -10.298  16.762  0.00  0.00    +0.005 A 
ATOM     30  C   UNL     1      -4.083 -11.799  18.522  0.00  0.00    +0.005 A 
ATOM     33  C   UNL     1      -6.078 -10.298  17.276  0.00  0.00    +0.000 A 
ATOM     34  C   UNL     1      -5.380 -11.799  19.036  0.00  0.00    +0.000 A 
ATOM     36  C   UNL     1      -6.378 -11.049  18.413  0.00  0.00    +0.000 A 
ENDBRANCH  24  26
ENDBRANCH   6  24
ENDBRANCH  19  22
ENDBRANCH  14  19
TORSDOF 7
ENDMDL
MODEL 9
REMARK VINA RESULT:      -7.0      1.864      2.561
REMARK  Name = 45784429
REMARK  10 active torsions:
REMARK  status: ('A' for Active; 'I' for Inactive)
REMARK    1  A    between atoms: O_2  and  C_11
REMARK    2  A    between atoms: N_5  and  C_15
REMARK    3  A    between atoms: N_6  and  C_24
REMARK    4  A    between atoms: N_7  and  C_25
REMARK    5  A    between atoms: C_8  and  C_18
REMARK    6  A    between atoms: C_10  and  C_20
REMARK    7  A    between atoms: C_14  and  C_19
REMARK    8  A    between atoms: C_19  and  C_21
REMARK    9  A    between atoms: C_19  and  C_22
REMARK   10  A    between atoms: C_24  and  C_26
REMARK                            x       y       z     vdW  Elec       q    Type
REMARK                         _______ _______ _______ _____ _____    ______ ____
ROOT
ATOM      8  C   UNL     1      -4.941 -12.611  13.922  0.00  0.00    -0.027 C 
ATOM      9  C   UNL     1      -5.804 -11.308  14.006  0.00  0.00    +0.028 C 
ATOM     10  C   UNL     1      -5.646 -10.447  12.702  0.00  0.00    +0.012 C 
ATOM     11  C   UNL     1      -5.552 -10.550  15.341  0.00  0.00    +0.122 C 
ATOM     12  C   UNL     1      -5.206 -13.487  15.170  0.00  0.00    +0.007 C 
ATOM     13  C   UNL     1      -5.371 -13.421  12.678  0.00  0.00    +0.009 C 
ATOM     14  C   UNL     1      -5.717 -11.458  16.581  0.00  0.00    +0.029 C 
ATOM     15  C   UNL     1      -6.009 -11.296  11.450  0.00  0.00    +0.078 C 
ATOM     16  C   UNL     1      -4.922 -12.760  16.477  0.00  0.00    +0.007 C 
ATOM     17  C   UNL     1      -5.264 -12.628  11.382  0.00  0.00    +0.023 C 
ATOM     18  C   UNL     1      -3.422 -12.312  13.837  0.00  0.00    +0.011 C 
ATOM     20  C   UNL     1      -6.492  -9.163  12.704  0.00  0.00    +0.010 C 
ENDROOT
BRANCH  15   5
ATOM      4  O   UNL     1      -7.967 -10.468   9.530  0.00  0.00    -0.253 OA
ATOM      5  N   UNL     1      -5.764 -10.569  10.221  0.00  0.00    -0.296 N 
ATOM      7  N   UNL     1      -6.249  -9.519   8.244  0.00  0.00    -0.269 N 
ATOM     23  C   UNL     1      -6.782 -10.205   9.337  0.00  0.00    +0.304 C 
ATOM     37  H   UNL     1      -4.802 -10.389   9.952  0.00  0.00    +0.151 HD
ATOM     40  H   UNL     1      -5.241  -9.382   8.237  0.00  0.00    +0.156 HD
BRANCH   7  25
ATOM      1  F   UNL     1      -9.476  -6.476   6.405  0.00  0.00    -0.205 F 
ATOM     25  C   UNL     1      -6.941  -8.983   7.133  0.00  0.00    +0.037 A 
ATOM     27  C   UNL     1      -7.887  -7.974   7.321  0.00  0.00    +0.061 A 
ATOM     28  C   UNL     1      -6.679  -9.462   5.849  0.00  0.00    +0.023 A 
ATOM     31  C   UNL     1      -8.567  -7.445   6.225  0.00  0.00    +0.125 A 
ATOM     32  C   UNL     1      -7.359  -8.932   4.754  0.00  0.00    +0.005 A 
ATOM     35  C   UNL     1      -8.305  -7.924   4.942  0.00  0.00    +0.038 A 
ENDBRANCH   7  25
ENDBRANCH  15   5
BRANCH  11   2
ATOM      2  O   UNL     1      -6.504  -9.494  15.478  0.00  0.00    -0.391 OA
ATOM     38  H   UNL     1      -7.026  -9.660  16.281  0.00  0.00    +0.210 HD
ENDBRANCH  11   2
BRANCH  14  19
ATOM     19  C   UNL     1      -5.337 -10.729  17.876  0.00  0.00    +0.077 C 
ATOM     21  C   UNL     1      -4.236 -11.491  18.605  0.00  0.00    +0.017 C 
BRANCH  19  22
ATOM      3  O   UNL     1      -6.500 -10.294  19.955  0.00  0.00    -0.276 OA
ATOM      6  N   UNL     1      -7.754 -10.731  18.054  0.00  0.00    -0.311 N 
ATOM     22  C   UNL     1      -6.570 -10.556  18.756  0.00  0.00    +0.216 C 
ATOM     39  H   UNL     1      -7.730 -10.895  17.053  0.00  0.00    +0.149 HD
BRANCH   6  24
ATOM     24  C   UNL     1      -9.054 -10.618  18.673  0.00  0.00    +0.139 C 
BRANCH  24  26
ATOM     26  C   UNL     1      -9.920  -9.605  17.980  0.00  0.00    -0.030 A 
ATOM     29  C   UNL     1      -9.335  -8.519  17.329  0.00  0.00    +0.005 A 
ATOM     30  C   UNL     1     -11.307  -9.751  17.987  0.00  0.00    +0.005 A 
ATOM     33  C   UNL     1     -10.138  -7.577  16.686  0.00  0.00    +0.000 A 
ATOM     34  C   UNL     1     -12.110  -8.809  17.344  0.00  0.00    +0.000 A 
ATOM     36  C   UNL     1     -11.526  -7.722  16.693  0.00  0.00    +0.000 A 
ENDBRANCH  24  26
ENDBRANCH   6  24
ENDBRANCH  19  22
ENDBRANCH  14  19
TORSDOF 7
ENDMDL
MODEL 10
REMARK VINA RESULT:      -6.9      5.792     12.049
REMARK  Name = 45784429
REMARK  10 active torsions:
REMARK  status: ('A' for Active; 'I' for Inactive)
REMARK    1  A    between atoms: O_2  and  C_11
REMARK    2  A    between atoms: N_5  and  C_15
REMARK    3  A    between atoms: N_6  and  C_24
REMARK    4  A    between atoms: N_7  and  C_25
REMARK    5  A    between atoms: C_8  and  C_18
REMARK    6  A    between atoms: C_10  and  C_20
REMARK    7  A    between atoms: C_14  and  C_19
REMARK    8  A    between atoms: C_19  and  C_21
REMARK    9  A    between atoms: C_19  and  C_22
REMARK   10  A    between atoms: C_24  and  C_26
REMARK                            x       y       z     vdW  Elec       q    Type
REMARK                         _______ _______ _______ _____ _____    ______ ____
ROOT
ATOM      8  C   UNL     1      -8.461 -10.635  16.877  0.00  0.00    -0.027 C 
ATOM      9  C   UNL     1      -7.990 -11.851  17.743  0.00  0.00    +0.028 C 
ATOM     10  C   UNL     1      -8.695 -11.845  19.146  0.00  0.00    +0.012 C 
ATOM     11  C   UNL     1      -6.438 -11.951  17.776  0.00  0.00    +0.122 C 
ATOM     12  C   UNL     1      -7.836 -10.733  15.466  0.00  0.00    +0.007 C 
ATOM     13  C   UNL     1      -9.997 -10.696  16.717  0.00  0.00    +0.009 C 
ATOM     14  C   UNL     1      -5.811 -11.943  16.362  0.00  0.00    +0.029 C 
ATOM     15  C   UNL     1     -10.240 -11.831  18.971  0.00  0.00    +0.078 C 
ATOM     16  C   UNL     1      -6.315 -10.791  15.493  0.00  0.00    +0.007 C 
ATOM     17  C   UNL     1     -10.737 -10.720  18.047  0.00  0.00    +0.023 C 
ATOM     18  C   UNL     1      -8.067  -9.272  17.503  0.00  0.00    +0.011 C 
ATOM     20  C   UNL     1      -8.298 -13.032  20.040  0.00  0.00    +0.010 C 
ENDROOT
BRANCH  15   5
ATOM      4  O   UNL     1     -12.304 -13.542  19.980  0.00  0.00    -0.253 OA
ATOM      5  N   UNL     1     -10.922 -11.708  20.244  0.00  0.00    -0.296 N 
ATOM      7  N   UNL     1     -12.395 -12.226  21.921  0.00  0.00    -0.269 N 
ATOM     23  C   UNL     1     -11.922 -12.592  20.658  0.00  0.00    +0.304 C 
ATOM     37  H   UNL     1     -10.720 -10.900  20.823  0.00  0.00    +0.151 HD
ATOM     40  H   UNL     1     -11.969 -11.408  22.349  0.00  0.00    +0.156 HD
BRANCH   7  25
ATOM      1  F   UNL     1     -13.703 -15.107  25.533  0.00  0.00    -0.205 F 
ATOM     25  C   UNL     1     -13.401 -12.859  22.688  0.00  0.00    +0.037 A 
ATOM     27  C   UNL     1     -13.048 -13.688  23.753  0.00  0.00    +0.061 A 
ATOM     28  C   UNL     1     -14.746 -12.653  22.380  0.00  0.00    +0.023 A 
ATOM     31  C   UNL     1     -14.041 -14.309  24.510  0.00  0.00    +0.125 A 
ATOM     32  C   UNL     1     -15.738 -13.275  23.137  0.00  0.00    +0.005 A 
ATOM     35  C   UNL     1     -15.385 -14.104  24.202  0.00  0.00    +0.038 A 
ENDBRANCH   7  25
ENDBRANCH  15   5
BRANCH  11   2
ATOM      2  O   UNL     1      -6.052 -13.182  18.388  0.00  0.00    -0.391 OA
ATOM     38  H   UNL     1      -6.304 -13.908  17.791  0.00  0.00    +0.210 HD
ENDBRANCH  11   2
BRANCH  14  19
ATOM     19  C   UNL     1      -4.278 -11.910  16.419  0.00  0.00    +0.077 C 
ATOM     21  C   UNL     1      -3.801 -10.551  16.919  0.00  0.00    +0.017 C 
BRANCH  19  22
ATOM      3  O   UNL     1      -3.830 -13.332  14.510  0.00  0.00    -0.276 OA
ATOM      6  N   UNL     1      -3.021 -11.158  14.489  0.00  0.00    -0.311 N 
ATOM     22  C   UNL     1      -3.700 -12.233  15.045  0.00  0.00    +0.216 C 
ATOM     39  H   UNL     1      -3.002 -10.266  14.972  0.00  0.00    +0.149 HD
BRANCH   6  24
ATOM     24  C   UNL     1      -2.385 -11.221  13.194  0.00  0.00    +0.139 C 
BRANCH  24  26
ATOM     26  C   UNL     1      -3.125 -10.416  12.165  0.00  0.00    -0.030 A 
ATOM     29  C   UNL     1      -2.445  -9.898  11.063  0.00  0.00    +0.005 A 
ATOM     30  C   UNL     1      -4.493 -10.185  12.312  0.00  0.00    +0.005 A 
ATOM     33  C   UNL     1      -3.132  -9.150  10.108  0.00  0.00    +0.000 A 
ATOM     34  C   UNL     1      -5.180  -9.437  11.357  0.00  0.00    +0.000 A 
ATOM     36  C   UNL     1      -4.500  -8.919  10.254  0.00  0.00    +0.000 A 
ENDBRANCH  24  26
ENDBRANCH   6  24
ENDBRANCH  19  22
ENDBRANCH  14  19
TORSDOF 7
ENDMDL
