MODEL 1
REMARK VINA RESULT:      -6.6      0.000      0.000
REMARK  Name = 40779265
REMARK  10 active torsions:
REMARK  status: ('A' for Active; 'I' for Inactive)
REMARK    1  A    between atoms: O_2  and  C_22
REMARK    2  A    between atoms: O_2  and  C_28
REMARK    3  A    between atoms: O_3  and  C_27
REMARK    4  A    between atoms: O_3  and  C_29
REMARK    5  A    between atoms: N_5  and  C_19
REMARK    6  A    between atoms: N_6  and  C_16
REMARK    7  A    between atoms: C_9  and  C_15
REMARK    8  A    between atoms: C_10  and  C_16
REMARK    9  A    between atoms: C_18  and  C_21
REMARK   10  A    between atoms: C_20  and  C_22
REMARK                            x       y       z     vdW  Elec       q    Type
REMARK                         _______ _______ _______ _____ _____    ______ ____
ROOT
ATOM      4  N   UNL     1      13.173   7.124  21.217  0.00  0.00    -0.297 NA
ATOM      8  C   UNL     1      11.526   8.868  20.199  0.00  0.00    +0.002 C 
ATOM      9  C   UNL     1      12.322   8.151  19.074  0.00  0.00    +0.055 C 
ATOM     10  C   UNL     1      13.329   8.433  21.904  0.00  0.00    +0.074 C 
ATOM     11  C   UNL     1      12.515   9.528  21.181  0.00  0.00    +0.024 C 
ATOM     12  C   UNL     1      10.775   7.770  20.983  0.00  0.00    +0.019 C 
ATOM     13  C   UNL     1      13.415   7.282  19.760  0.00  0.00    +0.094 C 
ATOM     14  C   UNL     1      11.772   6.677  21.406  0.00  0.00    +0.085 C 
ENDROOT
BRANCH   9  15
ATOM      5  N   UNL     1      12.209   9.226  16.779  0.00  0.00    -0.270 N 
ATOM      7  N   UNL     1      12.879   9.998  15.905  0.00  0.00    -0.171 NA
ATOM     15  C   UNL     1      12.885   8.996  17.940  0.00  0.00    +0.044 A 
ATOM     17  C   UNL     1      14.080   9.662  17.818  0.00  0.00    +0.053 A 
ATOM     18  C   UNL     1      14.020  10.261  16.546  0.00  0.00    +0.093 A 
ATOM     19  C   UNL     1      10.898   8.733  16.424  0.00  0.00    +0.172 C 
BRANCH  18  21
ATOM     21  C   UNL     1      15.035  11.077  15.930  0.00  0.00    +0.002 A 
ATOM     23  C   UNL     1      15.339  10.911  14.580  0.00  0.00    +0.013 A 
ATOM     24  C   UNL     1      15.712  12.033  16.686  0.00  0.00    +0.013 A 
ATOM     25  C   UNL     1      16.322  11.701  13.984  0.00  0.00    +0.046 A 
ATOM     26  C   UNL     1      16.695  12.824  16.091  0.00  0.00    +0.046 A 
ATOM     27  C   UNL     1      17.000  12.658  14.740  0.00  0.00    +0.120 A 
BRANCH  27   3
ATOM      3  O   UNL     1      17.960  13.430  14.160  0.00  0.00    -0.495 OA
ATOM     29  C   UNL     1      19.112  13.731  14.945  0.00  0.00    +0.277 C 
ENDBRANCH  27   3
ENDBRANCH  18  21
ENDBRANCH   9  15
BRANCH  10  16
ATOM     16  C   UNL     1      14.798   8.830  22.072  0.00  0.00    +0.123 C 
BRANCH  16   6
ATOM      1  O   UNL     1      17.433   8.855  20.882  0.00  0.00    -0.273 OA
ATOM      6  N   UNL     1      15.659   7.709  21.857  0.00  0.00    -0.312 N 
ATOM     20  C   UNL     1      16.920   7.810  21.274  0.00  0.00    +0.239 C 
ATOM     30  H   UNL     1      15.325   6.793  22.145  0.00  0.00    +0.149 HD
BRANCH  20  22
ATOM     22  C   UNL     1      17.612   6.469  21.169  0.00  0.00    +0.255 C 
BRANCH  22   2
ATOM      2  O   UNL     1      18.071   6.245  19.853  0.00  0.00    -0.374 OA
ATOM     28  C   UNL     1      17.013   5.863  18.978  0.00  0.00    +0.194 C 
ENDBRANCH  22   2
ENDBRANCH  20  22
ENDBRANCH  16   6
ENDBRANCH  10  16
TORSDOF 7
ENDMDL
MODEL 2
REMARK VINA RESULT:      -6.6     26.717     29.091
REMARK  Name = 40779265
REMARK  10 active torsions:
REMARK  status: ('A' for Active; 'I' for Inactive)
REMARK    1  A    between atoms: O_2  and  C_22
REMARK    2  A    between atoms: O_2  and  C_28
REMARK    3  A    between atoms: O_3  and  C_27
REMARK    4  A    between atoms: O_3  and  C_29
REMARK    5  A    between atoms: N_5  and  C_19
REMARK    6  A    between atoms: N_6  and  C_16
REMARK    7  A    between atoms: C_9  and  C_15
REMARK    8  A    between atoms: C_10  and  C_16
REMARK    9  A    between atoms: C_18  and  C_21
REMARK   10  A    between atoms: C_20  and  C_22
REMARK                            x       y       z     vdW  Elec       q    Type
REMARK                         _______ _______ _______ _____ _____    ______ ____
ROOT
ATOM      4  N   UNL     1      -6.260 -10.326  17.785  0.00  0.00    -0.297 NA
ATOM      8  C   UNL     1      -4.584 -12.132  16.940  0.00  0.00    +0.002 C 
ATOM      9  C   UNL     1      -4.216 -10.737  16.363  0.00  0.00    +0.055 C 
ATOM     10  C   UNL     1      -7.002 -11.492  17.240  0.00  0.00    +0.074 C 
ATOM     11  C   UNL     1      -6.036 -12.478  16.549  0.00  0.00    +0.024 C 
ATOM     12  C   UNL     1      -4.548 -12.002  18.478  0.00  0.00    +0.019 C 
ATOM     13  C   UNL     1      -5.366  -9.760  16.743  0.00  0.00    +0.094 C 
ATOM     14  C   UNL     1      -5.417 -10.806  18.906  0.00  0.00    +0.085 C 
ENDROOT
BRANCH   9  15
ATOM      5  N   UNL     1      -2.552 -10.588  14.453  0.00  0.00    -0.270 N 
ATOM      7  N   UNL     1      -2.436 -10.508  13.116  0.00  0.00    -0.171 NA
ATOM     15  C   UNL     1      -3.843 -10.643  14.891  0.00  0.00    +0.044 A 
ATOM     17  C   UNL     1      -4.625 -10.596  13.763  0.00  0.00    +0.053 A 
ATOM     18  C   UNL     1      -3.704 -10.513  12.701  0.00  0.00    +0.093 A 
ATOM     19  C   UNL     1      -1.358 -10.605  15.266  0.00  0.00    +0.172 C 
BRANCH  18  21
ATOM     21  C   UNL     1      -4.015 -10.438  11.296  0.00  0.00    +0.002 A 
ATOM     23  C   UNL     1      -4.458 -11.573  10.618  0.00  0.00    +0.013 A 
ATOM     24  C   UNL     1      -3.872  -9.229  10.616  0.00  0.00    +0.013 A 
ATOM     25  C   UNL     1      -4.757 -11.499   9.257  0.00  0.00    +0.046 A 
ATOM     26  C   UNL     1      -4.172  -9.155   9.255  0.00  0.00    +0.046 A 
ATOM     27  C   UNL     1      -4.615 -10.289   8.576  0.00  0.00    +0.120 A 
BRANCH  27   3
ATOM      3  O   UNL     1      -4.907 -10.216   7.249  0.00  0.00    -0.495 OA
ATOM     29  C   UNL     1      -4.831 -11.429   6.501  0.00  0.00    +0.277 C 
ENDBRANCH  27   3
ENDBRANCH  18  21
ENDBRANCH   9  15
BRANCH  10  16
ATOM     16  C   UNL     1      -8.148 -11.074  16.316  0.00  0.00    +0.123 C 
BRANCH  16   6
ATOM      1  O   UNL     1      -9.259  -8.932  14.722  0.00  0.00    -0.273 OA
ATOM      6  N   UNL     1      -8.779  -9.882  16.791  0.00  0.00    -0.312 N 
ATOM     20  C   UNL     1      -9.289  -8.896  15.949  0.00  0.00    +0.239 C 
ATOM     30  H   UNL     1      -8.853  -9.753  17.797  0.00  0.00    +0.149 HD
BRANCH  20  22
ATOM     22  C   UNL     1      -9.901  -7.746  16.720  0.00  0.00    +0.255 C 
BRANCH  22   2
ATOM      2  O   UNL     1     -10.141  -6.646  15.867  0.00  0.00    -0.374 OA
ATOM     28  C   UNL     1     -11.448  -6.109  16.047  0.00  0.00    +0.194 C 
ENDBRANCH  22   2
ENDBRANCH  20  22
ENDBRANCH  16   6
ENDBRANCH  10  16
TORSDOF 7
ENDMDL
MODEL 3
REMARK VINA RESULT:      -6.4      2.683      7.167
REMARK  Name = 40779265
REMARK  10 active torsions:
REMARK  status: ('A' for Active; 'I' for Inactive)
REMARK    1  A    between atoms: O_2  and  C_22
REMARK    2  A    between atoms: O_2  and  C_28
REMARK    3  A    between atoms: O_3  and  C_27
REMARK    4  A    between atoms: O_3  and  C_29
REMARK    5  A    between atoms: N_5  and  C_19
REMARK    6  A    between atoms: N_6  and  C_16
REMARK    7  A    between atoms: C_9  and  C_15
REMARK    8  A    between atoms: C_10  and  C_16
REMARK    9  A    between atoms: C_18  and  C_21
REMARK   10  A    between atoms: C_20  and  C_22
REMARK                            x       y       z     vdW  Elec       q    Type
REMARK                         _______ _______ _______ _____ _____    ______ ____
ROOT
ATOM      4  N   UNL     1      12.216   9.186  19.786  0.00  0.00    -0.297 NA
ATOM      8  C   UNL     1      13.007   7.499  21.606  0.00  0.00    +0.002 C 
ATOM      9  C   UNL     1      13.996   8.693  21.506  0.00  0.00    +0.055 C 
ATOM     10  C   UNL     1      12.221   7.807  19.233  0.00  0.00    +0.074 C 
ATOM     11  C   UNL     1      12.881   6.824  20.225  0.00  0.00    +0.024 C 
ATOM     12  C   UNL     1      11.624   8.094  21.948  0.00  0.00    +0.019 C 
ATOM     13  C   UNL     1      13.572   9.543  20.274  0.00  0.00    +0.094 C 
ATOM     14  C   UNL     1      11.289   9.208  20.942  0.00  0.00    +0.085 C 
ENDROOT
BRANCH   9  15
ATOM      5  N   UNL     1      16.433   9.335  21.800  0.00  0.00    -0.270 N 
ATOM      7  N   UNL     1      17.694   8.869  21.755  0.00  0.00    -0.171 NA
ATOM     15  C   UNL     1      15.488   8.394  21.514  0.00  0.00    +0.044 A 
ATOM     17  C   UNL     1      16.178   7.233  21.263  0.00  0.00    +0.053 A 
ATOM     18  C   UNL     1      17.531   7.586  21.426  0.00  0.00    +0.093 A 
ATOM     19  C   UNL     1      16.205  10.723  22.131  0.00  0.00    +0.172 C 
BRANCH  18  21
ATOM     21  C   UNL     1      18.671   6.719  21.272  0.00  0.00    +0.002 A 
ATOM     23  C   UNL     1      19.706   6.756  22.205  0.00  0.00    +0.013 A 
ATOM     24  C   UNL     1      18.738   5.844  20.189  0.00  0.00    +0.013 A 
ATOM     25  C   UNL     1      20.811   5.917  22.054  0.00  0.00    +0.046 A 
ATOM     26  C   UNL     1      19.843   5.005  20.038  0.00  0.00    +0.046 A 
ATOM     27  C   UNL     1      20.878   5.041  20.970  0.00  0.00    +0.120 A 
BRANCH  27   3
ATOM      3  O   UNL     1      21.956   4.223  20.822  0.00  0.00    -0.495 OA
ATOM     29  C   UNL     1      22.952   4.272  21.842  0.00  0.00    +0.277 C 
ENDBRANCH  27   3
ENDBRANCH  18  21
ENDBRANCH   9  15
BRANCH  10  16
ATOM     16  C   UNL     1      12.866   7.737  17.847  0.00  0.00    +0.123 C 
BRANCH  16   6
ATOM      1  O   UNL     1      13.630   8.426  15.145  0.00  0.00    -0.273 OA
ATOM      6  N   UNL     1      13.090   9.048  17.321  0.00  0.00    -0.312 N 
ATOM     20  C   UNL     1      13.458   9.292  15.999  0.00  0.00    +0.239 C 
ATOM     30  H   UNL     1      12.976   9.838  17.951  0.00  0.00    +0.149 HD
BRANCH  20  22
ATOM     22  C   UNL     1      13.628  10.768  15.716  0.00  0.00    +0.255 C 
BRANCH  22   2
ATOM      2  O   UNL     1      13.806  10.993  14.333  0.00  0.00    -0.374 OA
ATOM     28  C   UNL     1      13.586  12.357  13.983  0.00  0.00    +0.194 C 
ENDBRANCH  22   2
ENDBRANCH  20  22
ENDBRANCH  16   6
ENDBRANCH  10  16
TORSDOF 7
ENDMDL
MODEL 4
REMARK VINA RESULT:      -6.4     26.806     29.976
REMARK  Name = 40779265
REMARK  10 active torsions:
REMARK  status: ('A' for Active; 'I' for Inactive)
REMARK    1  A    between atoms: O_2  and  C_22
REMARK    2  A    between atoms: O_2  and  C_28
REMARK    3  A    between atoms: O_3  and  C_27
REMARK    4  A    between atoms: O_3  and  C_29
REMARK    5  A    between atoms: N_5  and  C_19
REMARK    6  A    between atoms: N_6  and  C_16
REMARK    7  A    between atoms: C_9  and  C_15
REMARK    8  A    between atoms: C_10  and  C_16
REMARK    9  A    between atoms: C_18  and  C_21
REMARK   10  A    between atoms: C_20  and  C_22
REMARK                            x       y       z     vdW  Elec       q    Type
REMARK                         _______ _______ _______ _____ _____    ______ ____
ROOT
ATOM      4  N   UNL     1      -5.453 -12.540  17.033  0.00  0.00    -0.297 NA
ATOM      8  C   UNL     1      -5.903 -10.621  18.736  0.00  0.00    +0.002 C 
ATOM      9  C   UNL     1      -7.222 -11.371  18.400  0.00  0.00    +0.055 C 
ATOM     10  C   UNL     1      -4.845 -11.275  16.545  0.00  0.00    +0.074 C 
ATOM     11  C   UNL     1      -5.275 -10.086  17.432  0.00  0.00    +0.024 C 
ATOM     12  C   UNL     1      -4.928 -11.671  19.311  0.00  0.00    +0.019 C 
ATOM     13  C   UNL     1      -6.912 -12.357  17.239  0.00  0.00    +0.094 C 
ATOM     14  C   UNL     1      -4.839 -12.864  18.343  0.00  0.00    +0.085 C 
ENDROOT
BRANCH   9  15
ATOM      5  N   UNL     1      -9.607 -10.654  18.884  0.00  0.00    -0.270 N 
ATOM      7  N   UNL     1     -10.598  -9.835  18.489  0.00  0.00    -0.171 NA
ATOM     15  C   UNL     1      -8.472 -10.544  18.136  0.00  0.00    +0.044 A 
ATOM     17  C   UNL     1      -8.738  -9.589  17.186  0.00  0.00    +0.053 A 
ATOM     18  C   UNL     1     -10.061  -9.188  17.452  0.00  0.00    +0.093 A 
ATOM     19  C   UNL     1      -9.825 -11.533  20.009  0.00  0.00    +0.172 C 
BRANCH  18  21
ATOM     21  C   UNL     1     -10.823  -8.199  16.732  0.00  0.00    +0.002 A 
ATOM     23  C   UNL     1     -10.171  -7.132  16.114  0.00  0.00    +0.013 A 
ATOM     24  C   UNL     1     -12.210  -8.310  16.655  0.00  0.00    +0.013 A 
ATOM     25  C   UNL     1     -10.910  -6.174  15.418  0.00  0.00    +0.046 A 
ATOM     26  C   UNL     1     -12.948  -7.351  15.959  0.00  0.00    +0.046 A 
ATOM     27  C   UNL     1     -12.298  -6.285  15.341  0.00  0.00    +0.120 A 
BRANCH  27   3
ATOM      3  O   UNL     1     -13.019  -5.350  14.662  0.00  0.00    -0.495 OA
ATOM     29  C   UNL     1     -12.384  -4.726  13.547  0.00  0.00    +0.277 C 
ENDBRANCH  27   3
ENDBRANCH  18  21
ENDBRANCH   9  15
BRANCH  10  16
ATOM     16  C   UNL     1      -5.140 -11.019  15.066  0.00  0.00    +0.123 C 
BRANCH  16   6
ATOM      1  O   UNL     1      -2.883 -12.388  13.886  0.00  0.00    -0.273 OA
ATOM      6  N   UNL     1      -4.014 -10.425  14.415  0.00  0.00    -0.312 N 
ATOM     20  C   UNL     1      -2.964 -11.163  13.871  0.00  0.00    +0.239 C 
ATOM     30  H   UNL     1      -3.983  -9.410  14.352  0.00  0.00    +0.149 HD
BRANCH  20  22
ATOM     22  C   UNL     1      -1.908 -10.279  13.245  0.00  0.00    +0.255 C 
BRANCH  22   2
ATOM      2  O   UNL     1      -1.702 -10.630  11.893  0.00  0.00    -0.374 OA
ATOM     28  C   UNL     1      -2.649 -10.006  11.031  0.00  0.00    +0.194 C 
ENDBRANCH  22   2
ENDBRANCH  20  22
ENDBRANCH  16   6
ENDBRANCH  10  16
TORSDOF 7
ENDMDL
MODEL 5
REMARK VINA RESULT:      -6.3     26.678     29.257
REMARK  Name = 40779265
REMARK  10 active torsions:
REMARK  status: ('A' for Active; 'I' for Inactive)
REMARK    1  A    between atoms: O_2  and  C_22
REMARK    2  A    between atoms: O_2  and  C_28
REMARK    3  A    between atoms: O_3  and  C_27
REMARK    4  A    between atoms: O_3  and  C_29
REMARK    5  A    between atoms: N_5  and  C_19
REMARK    6  A    between atoms: N_6  and  C_16
REMARK    7  A    between atoms: C_9  and  C_15
REMARK    8  A    between atoms: C_10  and  C_16
REMARK    9  A    between atoms: C_18  and  C_21
REMARK   10  A    between atoms: C_20  and  C_22
REMARK                            x       y       z     vdW  Elec       q    Type
REMARK                         _______ _______ _______ _____ _____    ______ ____
ROOT
ATOM      4  N   UNL     1      -6.268 -10.348  17.878  0.00  0.00    -0.297 NA
ATOM      8  C   UNL     1      -4.456 -12.072  17.145  0.00  0.00    +0.002 C 
ATOM      9  C   UNL     1      -4.175 -10.683  16.508  0.00  0.00    +0.055 C 
ATOM     10  C   UNL     1      -6.917 -11.588  17.379  0.00  0.00    +0.074 C 
ATOM     11  C   UNL     1      -5.873 -12.536  16.750  0.00  0.00    +0.024 C 
ATOM     12  C   UNL     1      -4.457 -11.867  18.675  0.00  0.00    +0.019 C 
ATOM     13  C   UNL     1      -5.395  -9.772  16.824  0.00  0.00    +0.094 C 
ATOM     14  C   UNL     1      -5.414 -10.717  19.033  0.00  0.00    +0.085 C 
ENDROOT
BRANCH   9  15
ATOM      5  N   UNL     1      -2.486 -10.614  14.615  0.00  0.00    -0.270 N 
ATOM      7  N   UNL     1      -2.352 -10.569  13.278  0.00  0.00    -0.171 NA
ATOM     15  C   UNL     1      -3.783 -10.632  15.038  0.00  0.00    +0.044 A 
ATOM     17  C   UNL     1      -4.550 -10.595  13.900  0.00  0.00    +0.053 A 
ATOM     18  C   UNL     1      -3.616 -10.557  12.847  0.00  0.00    +0.093 A 
ATOM     19  C   UNL     1      -1.302 -10.638  15.442  0.00  0.00    +0.172 C 
BRANCH  18  21
ATOM     21  C   UNL     1      -3.909 -10.509  11.438  0.00  0.00    +0.002 A 
ATOM     23  C   UNL     1      -3.805  -9.303  10.745  0.00  0.00    +0.013 A 
ATOM     24  C   UNL     1      -4.296 -11.668  10.767  0.00  0.00    +0.013 A 
ATOM     25  C   UNL     1      -4.090  -9.256   9.380  0.00  0.00    +0.046 A 
ATOM     26  C   UNL     1      -4.581 -11.621   9.402  0.00  0.00    +0.046 A 
ATOM     27  C   UNL     1      -4.478 -10.416   8.709  0.00  0.00    +0.120 A 
BRANCH  27   3
ATOM      3  O   UNL     1      -4.756 -10.371   7.377  0.00  0.00    -0.495 OA
ATOM     29  C   UNL     1      -6.087 -10.019   7.004  0.00  0.00    +0.277 C 
ENDBRANCH  27   3
ENDBRANCH  18  21
ENDBRANCH   9  15
BRANCH  10  16
ATOM     16  C   UNL     1      -8.073 -11.294  16.419  0.00  0.00    +0.123 C 
BRANCH  16   6
ATOM      1  O   UNL     1      -8.889  -8.521  16.336  0.00  0.00    -0.273 OA
ATOM      6  N   UNL     1      -9.172 -10.697  17.111  0.00  0.00    -0.312 N 
ATOM     20  C   UNL     1      -9.497  -9.345  17.014  0.00  0.00    +0.239 C 
ATOM     30  H   UNL     1      -9.741 -11.295  17.705  0.00  0.00    +0.149 HD
BRANCH  20  22
ATOM     22  C   UNL     1     -10.706  -8.986  17.851  0.00  0.00    +0.255 C 
BRANCH  22   2
ATOM      2  O   UNL     1     -10.805  -9.834  18.975  0.00  0.00    -0.374 OA
ATOM     28  C   UNL     1     -12.147  -9.949  19.438  0.00  0.00    +0.194 C 
ENDBRANCH  22   2
ENDBRANCH  20  22
ENDBRANCH  16   6
ENDBRANCH  10  16
TORSDOF 7
ENDMDL
MODEL 6
REMARK VINA RESULT:      -6.3     26.544     29.035
REMARK  Name = 40779265
REMARK  10 active torsions:
REMARK  status: ('A' for Active; 'I' for Inactive)
REMARK    1  A    between atoms: O_2  and  C_22
REMARK    2  A    between atoms: O_2  and  C_28
REMARK    3  A    between atoms: O_3  and  C_27
REMARK    4  A    between atoms: O_3  and  C_29
REMARK    5  A    between atoms: N_5  and  C_19
REMARK    6  A    between atoms: N_6  and  C_16
REMARK    7  A    between atoms: C_9  and  C_15
REMARK    8  A    between atoms: C_10  and  C_16
REMARK    9  A    between atoms: C_18  and  C_21
REMARK   10  A    between atoms: C_20  and  C_22
REMARK                            x       y       z     vdW  Elec       q    Type
REMARK                         _______ _______ _______ _____ _____    ______ ____
ROOT
ATOM      4  N   UNL     1      -5.743 -10.501  17.990  0.00  0.00    -0.297 NA
ATOM      8  C   UNL     1      -4.807 -12.510  16.620  0.00  0.00    +0.002 C 
ATOM      9  C   UNL     1      -4.018 -11.212  16.291  0.00  0.00    +0.055 C 
ATOM     10  C   UNL     1      -6.856 -11.219  17.315  0.00  0.00    +0.074 C 
ATOM     11  C   UNL     1      -6.306 -12.280  16.337  0.00  0.00    +0.024 C 
ATOM     12  C   UNL     1      -4.664 -12.744  18.139  0.00  0.00    +0.019 C 
ATOM     13  C   UNL     1      -4.756 -10.032  16.984  0.00  0.00    +0.094 C 
ATOM     14  C   UNL     1      -5.063 -11.462  18.890  0.00  0.00    +0.085 C 
ENDROOT
BRANCH   9  15
ATOM      5  N   UNL     1      -2.452 -10.570  14.401  0.00  0.00    -0.270 N 
ATOM      7  N   UNL     1      -2.378 -10.350  13.076  0.00  0.00    -0.171 NA
ATOM     15  C   UNL     1      -3.698 -10.915  14.833  0.00  0.00    +0.044 A 
ATOM     17  C   UNL     1      -4.496 -10.921  13.715  0.00  0.00    +0.053 A 
ATOM     18  C   UNL     1      -3.630 -10.565  12.663  0.00  0.00    +0.093 A 
ATOM     19  C   UNL     1      -1.262 -10.427  15.207  0.00  0.00    +0.172 C 
BRANCH  18  21
ATOM     21  C   UNL     1      -3.976 -10.426  11.272  0.00  0.00    +0.002 A 
ATOM     23  C   UNL     1      -3.689  -9.240  10.598  0.00  0.00    +0.013 A 
ATOM     24  C   UNL     1      -4.599 -11.478  10.601  0.00  0.00    +0.013 A 
ATOM     25  C   UNL     1      -4.026  -9.105   9.250  0.00  0.00    +0.046 A 
ATOM     26  C   UNL     1      -4.936 -11.343   9.254  0.00  0.00    +0.046 A 
ATOM     27  C   UNL     1      -4.649 -10.157   8.579  0.00  0.00    +0.120 A 
BRANCH  27   3
ATOM      3  O   UNL     1      -4.978 -10.026   7.264  0.00  0.00    -0.495 OA
ATOM     29  C   UNL     1      -6.366  -9.925   6.951  0.00  0.00    +0.277 C 
ENDBRANCH  27   3
ENDBRANCH  18  21
ENDBRANCH   9  15
BRANCH  10  16
ATOM     16  C   UNL     1      -7.834 -10.263  16.629  0.00  0.00    +0.123 C 
BRANCH  16   6
ATOM      1  O   UNL     1      -9.407  -8.838  14.665  0.00  0.00    -0.273 OA
ATOM      6  N   UNL     1      -7.804 -10.434  15.209  0.00  0.00    -0.312 N 
ATOM     20  C   UNL     1      -8.601  -9.701  14.331  0.00  0.00    +0.239 C 
ATOM     30  H   UNL     1      -7.169 -11.130  14.828  0.00  0.00    +0.149 HD
BRANCH  20  22
ATOM     22  C   UNL     1      -8.365 -10.087  12.887  0.00  0.00    +0.255 C 
BRANCH  22   2
ATOM      2  O   UNL     1      -7.300  -9.340  12.339  0.00  0.00    -0.374 OA
ATOM     28  C   UNL     1      -7.469  -9.120  10.941  0.00  0.00    +0.194 C 
ENDBRANCH  22   2
ENDBRANCH  20  22
ENDBRANCH  16   6
ENDBRANCH  10  16
TORSDOF 7
ENDMDL
MODEL 7
REMARK VINA RESULT:      -6.2      1.617      2.239
REMARK  Name = 40779265
REMARK  10 active torsions:
REMARK  status: ('A' for Active; 'I' for Inactive)
REMARK    1  A    between atoms: O_2  and  C_22
REMARK    2  A    between atoms: O_2  and  C_28
REMARK    3  A    between atoms: O_3  and  C_27
REMARK    4  A    between atoms: O_3  and  C_29
REMARK    5  A    between atoms: N_5  and  C_19
REMARK    6  A    between atoms: N_6  and  C_16
REMARK    7  A    between atoms: C_9  and  C_15
REMARK    8  A    between atoms: C_10  and  C_16
REMARK    9  A    between atoms: C_18  and  C_21
REMARK   10  A    between atoms: C_20  and  C_22
REMARK                            x       y       z     vdW  Elec       q    Type
REMARK                         _______ _______ _______ _____ _____    ______ ____
ROOT
ATOM      4  N   UNL     1      13.005   6.780  19.634  0.00  0.00    -0.297 NA
ATOM      8  C   UNL     1      12.855   9.381  19.672  0.00  0.00    +0.002 C 
ATOM      9  C   UNL     1      12.389   8.829  18.296  0.00  0.00    +0.055 C 
ATOM     10  C   UNL     1      14.284   7.356  20.123  0.00  0.00    +0.074 C 
ATOM     11  C   UNL     1      14.290   8.892  19.957  0.00  0.00    +0.024 C 
ATOM     12  C   UNL     1      11.939   8.745  20.740  0.00  0.00    +0.019 C 
ATOM     13  C   UNL     1      12.695   7.304  18.280  0.00  0.00    +0.094 C 
ATOM     14  C   UNL     1      11.929   7.218  20.555  0.00  0.00    +0.085 C 
ENDROOT
BRANCH   9  15
ATOM      5  N   UNL     1      12.141   9.603  15.892  0.00  0.00    -0.270 N 
ATOM      7  N   UNL     1      12.752  10.265  14.894  0.00  0.00    -0.171 NA
ATOM     15  C   UNL     1      12.879   9.529  17.037  0.00  0.00    +0.044 A 
ATOM     17  C   UNL     1      14.054  10.187  16.769  0.00  0.00    +0.053 A 
ATOM     18  C   UNL     1      13.920  10.619  15.436  0.00  0.00    +0.093 A 
ATOM     19  C   UNL     1      10.823   9.055  15.672  0.00  0.00    +0.172 C 
BRANCH  18  21
ATOM     21  C   UNL     1      14.888  11.362  14.670  0.00  0.00    +0.002 A 
ATOM     23  C   UNL     1      16.238  11.312  15.016  0.00  0.00    +0.013 A 
ATOM     24  C   UNL     1      14.473  12.130  13.583  0.00  0.00    +0.013 A 
ATOM     25  C   UNL     1      17.174  12.032  14.274  0.00  0.00    +0.046 A 
ATOM     26  C   UNL     1      15.410  12.851  12.841  0.00  0.00    +0.046 A 
ATOM     27  C   UNL     1      16.759  12.801  13.186  0.00  0.00    +0.120 A 
BRANCH  27   3
ATOM      3  O   UNL     1      17.673  13.505  12.462  0.00  0.00    -0.495 OA
ATOM     29  C   UNL     1      17.198  14.173  11.294  0.00  0.00    +0.277 C 
ENDBRANCH  27   3
ENDBRANCH  18  21
ENDBRANCH   9  15
BRANCH  10  16
ATOM     16  C   UNL     1      15.504   6.707  19.465  0.00  0.00    +0.123 C 
BRANCH  16   6
ATOM      1  O   UNL     1      18.071   5.413  19.151  0.00  0.00    -0.273 OA
ATOM      6  N   UNL     1      16.682   6.926  20.245  0.00  0.00    -0.312 N 
ATOM     20  C   UNL     1      17.884   6.255  20.025  0.00  0.00    +0.239 C 
ATOM     30  H   UNL     1      16.633   7.605  21.000  0.00  0.00    +0.149 HD
BRANCH  20  22
ATOM     22  C   UNL     1      18.964   6.681  20.996  0.00  0.00    +0.255 C 
BRANCH  22   2
ATOM      2  O   UNL     1      20.239   6.587  20.397  0.00  0.00    -0.374 OA
ATOM     28  C   UNL     1      21.231   6.157  21.324  0.00  0.00    +0.194 C 
ENDBRANCH  22   2
ENDBRANCH  20  22
ENDBRANCH  16   6
ENDBRANCH  10  16
TORSDOF 7
ENDMDL
MODEL 8
REMARK VINA RESULT:      -6.0     26.969     30.065
REMARK  Name = 40779265
REMARK  10 active torsions:
REMARK  status: ('A' for Active; 'I' for Inactive)
REMARK    1  A    between atoms: O_2  and  C_22
REMARK    2  A    between atoms: O_2  and  C_28
REMARK    3  A    between atoms: O_3  and  C_27
REMARK    4  A    between atoms: O_3  and  C_29
REMARK    5  A    between atoms: N_5  and  C_19
REMARK    6  A    between atoms: N_6  and  C_16
REMARK    7  A    between atoms: C_9  and  C_15
REMARK    8  A    between atoms: C_10  and  C_16
REMARK    9  A    between atoms: C_18  and  C_21
REMARK   10  A    between atoms: C_20  and  C_22
REMARK                            x       y       z     vdW  Elec       q    Type
REMARK                         _______ _______ _______ _____ _____    ______ ____
ROOT
ATOM      4  N   UNL     1      -5.636 -10.969   9.668  0.00  0.00    -0.297 NA
ATOM      8  C   UNL     1      -4.332  -9.161  11.017  0.00  0.00    +0.002 C 
ATOM      9  C   UNL     1      -4.093 -10.571  11.625  0.00  0.00    +0.055 C 
ATOM     10  C   UNL     1      -6.542  -9.846  10.020  0.00  0.00    +0.074 C 
ATOM     11  C   UNL     1      -5.846  -8.867  10.992  0.00  0.00    +0.024 C 
ATOM     12  C   UNL     1      -3.858  -9.223   9.549  0.00  0.00    +0.019 C 
ATOM     13  C   UNL     1      -5.053 -11.557  10.901  0.00  0.00    +0.094 C 
ATOM     14  C   UNL     1      -4.528 -10.420   8.851  0.00  0.00    +0.085 C 
ENDROOT
BRANCH   9  15
ATOM      5  N   UNL     1      -3.060 -10.547  13.943  0.00  0.00    -0.270 N 
ATOM      7  N   UNL     1      -3.318 -10.723  15.251  0.00  0.00    -0.171 NA
ATOM     15  C   UNL     1      -4.148 -10.720  13.139  0.00  0.00    +0.044 A 
ATOM     17  C   UNL     1      -5.190 -11.030  13.978  0.00  0.00    +0.053 A 
ATOM     18  C   UNL     1      -4.621 -11.017  15.265  0.00  0.00    +0.093 A 
ATOM     19  C   UNL     1      -1.718 -10.210  13.528  0.00  0.00    +0.172 C 
BRANCH  18  21
ATOM     21  C   UNL     1      -5.297 -11.283  16.509  0.00  0.00    +0.002 A 
ATOM     23  C   UNL     1      -6.231 -12.316  16.587  0.00  0.00    +0.013 A 
ATOM     24  C   UNL     1      -5.017 -10.508  17.633  0.00  0.00    +0.013 A 
ATOM     25  C   UNL     1      -6.887 -12.572  17.792  0.00  0.00    +0.046 A 
ATOM     26  C   UNL     1      -5.673 -10.764  18.838  0.00  0.00    +0.046 A 
ATOM     27  C   UNL     1      -6.607 -11.796  18.917  0.00  0.00    +0.120 A 
BRANCH  27   3
ATOM      3  O   UNL     1      -7.247 -12.045  20.093  0.00  0.00    -0.495 OA
ATOM     29  C   UNL     1      -8.267 -13.042  20.077  0.00  0.00    +0.277 C 
ENDBRANCH  27   3
ENDBRANCH  18  21
ENDBRANCH   9  15
BRANCH  10  16
ATOM     16  C   UNL     1      -7.887 -10.331  10.566  0.00  0.00    +0.123 C 
BRANCH  16   6
ATOM      1  O   UNL     1      -8.797 -11.569  13.016  0.00  0.00    -0.273 OA
ATOM      6  N   UNL     1      -8.205  -9.677  11.797  0.00  0.00    -0.312 N 
ATOM     20  C   UNL     1      -8.639 -10.353  12.936  0.00  0.00    +0.239 C 
ATOM     30  H   UNL     1      -8.111  -8.666  11.835  0.00  0.00    +0.149 HD
BRANCH  20  22
ATOM     22  C   UNL     1      -8.904  -9.415  14.093  0.00  0.00    +0.255 C 
BRANCH  22   2
ATOM      2  O   UNL     1      -8.142  -9.789  15.222  0.00  0.00    -0.374 OA
ATOM     28  C   UNL     1      -8.612  -9.162  16.412  0.00  0.00    +0.194 C 
ENDBRANCH  22   2
ENDBRANCH  20  22
ENDBRANCH  16   6
ENDBRANCH  10  16
TORSDOF 7
ENDMDL
MODEL 9
REMARK VINA RESULT:      -6.0      1.786      2.471
REMARK  Name = 40779265
REMARK  10 active torsions:
REMARK  status: ('A' for Active; 'I' for Inactive)
REMARK    1  A    between atoms: O_2  and  C_22
REMARK    2  A    between atoms: O_2  and  C_28
REMARK    3  A    between atoms: O_3  and  C_27
REMARK    4  A    between atoms: O_3  and  C_29
REMARK    5  A    between atoms: N_5  and  C_19
REMARK    6  A    between atoms: N_6  and  C_16
REMARK    7  A    between atoms: C_9  and  C_15
REMARK    8  A    between atoms: C_10  and  C_16
REMARK    9  A    between atoms: C_18  and  C_21
REMARK   10  A    between atoms: C_20  and  C_22
REMARK                            x       y       z     vdW  Elec       q    Type
REMARK                         _______ _______ _______ _____ _____    ______ ____
ROOT
ATOM      4  N   UNL     1      11.436   7.597  20.891  0.00  0.00    -0.297 NA
ATOM      8  C   UNL     1      12.427   9.790  21.888  0.00  0.00    +0.002 C 
ATOM      9  C   UNL     1      11.954  10.022  20.425  0.00  0.00    +0.055 C 
ATOM     10  C   UNL     1      12.761   7.323  21.505  0.00  0.00    +0.074 C 
ATOM     11  C   UNL     1      13.455   8.641  21.915  0.00  0.00    +0.024 C 
ATOM     12  C   UNL     1      11.193   9.314  22.684  0.00  0.00    +0.019 C 
ATOM     13  C   UNL     1      11.568   8.635  19.838  0.00  0.00    +0.094 C 
ATOM     14  C   UNL     1      10.545   8.126  21.952  0.00  0.00    +0.085 C 
ENDROOT
BRANCH   9  15
ATOM      5  N   UNL     1      12.987  12.167  19.548  0.00  0.00    -0.270 N 
ATOM      7  N   UNL     1      13.840  12.672  18.639  0.00  0.00    -0.171 NA
ATOM     15  C   UNL     1      12.863  10.810  19.493  0.00  0.00    +0.044 A 
ATOM     17  C   UNL     1      13.690  10.398  18.477  0.00  0.00    +0.053 A 
ATOM     18  C   UNL     1      14.265  11.586  17.988  0.00  0.00    +0.093 A 
ATOM     19  C   UNL     1      12.312  13.065  20.456  0.00  0.00    +0.172 C 
BRANCH  18  21
ATOM     21  C   UNL     1      15.213  11.704  16.909  0.00  0.00    +0.002 A 
ATOM     23  C   UNL     1      15.041  10.955  15.746  0.00  0.00    +0.013 A 
ATOM     24  C   UNL     1      16.301  12.566  17.030  0.00  0.00    +0.013 A 
ATOM     25  C   UNL     1      15.959  11.068  14.702  0.00  0.00    +0.046 A 
ATOM     26  C   UNL     1      17.220  12.679  15.986  0.00  0.00    +0.046 A 
ATOM     27  C   UNL     1      17.049  11.931  14.822  0.00  0.00    +0.120 A 
BRANCH  27   3
ATOM      3  O   UNL     1      17.946  12.042  13.804  0.00  0.00    -0.495 OA
ATOM     29  C   UNL     1      17.841  13.195  12.970  0.00  0.00    +0.277 C 
ENDBRANCH  27   3
ENDBRANCH  18  21
ENDBRANCH   9  15
BRANCH  10  16
ATOM     16  C   UNL     1      13.653   6.464  20.606  0.00  0.00    +0.123 C 
BRANCH  16   6
ATOM      1  O   UNL     1      15.933   6.174  18.851  0.00  0.00    -0.273 OA
ATOM      6  N   UNL     1      15.032   6.628  20.948  0.00  0.00    -0.312 N 
ATOM     20  C   UNL     1      16.073   6.469  20.035  0.00  0.00    +0.239 C 
ATOM     30  H   UNL     1      15.257   6.871  21.909  0.00  0.00    +0.149 HD
BRANCH  20  22
ATOM     22  C   UNL     1      17.429   6.702  20.667  0.00  0.00    +0.255 C 
BRANCH  22   2
ATOM      2  O   UNL     1      17.487   7.980  21.265  0.00  0.00    -0.374 OA
ATOM     28  C   UNL     1      18.758   8.233  21.856  0.00  0.00    +0.194 C 
ENDBRANCH  22   2
ENDBRANCH  20  22
ENDBRANCH  16   6
ENDBRANCH  10  16
TORSDOF 7
ENDMDL
MODEL 10
REMARK VINA RESULT:      -5.9     27.285     30.141
REMARK  Name = 40779265
REMARK  10 active torsions:
REMARK  status: ('A' for Active; 'I' for Inactive)
REMARK    1  A    between atoms: O_2  and  C_22
REMARK    2  A    between atoms: O_2  and  C_28
REMARK    3  A    between atoms: O_3  and  C_27
REMARK    4  A    between atoms: O_3  and  C_29
REMARK    5  A    between atoms: N_5  and  C_19
REMARK    6  A    between atoms: N_6  and  C_16
REMARK    7  A    between atoms: C_9  and  C_15
REMARK    8  A    between atoms: C_10  and  C_16
REMARK    9  A    between atoms: C_18  and  C_21
REMARK   10  A    between atoms: C_20  and  C_22
REMARK                            x       y       z     vdW  Elec       q    Type
REMARK                         _______ _______ _______ _____ _____    ______ ____
ROOT
ATOM      4  N   UNL     1      -5.851 -10.453   9.384  0.00  0.00    -0.297 NA
ATOM      8  C   UNL     1      -4.215  -8.924  10.716  0.00  0.00    +0.002 C 
ATOM      9  C   UNL     1      -4.290 -10.334  11.364  0.00  0.00    +0.055 C 
ATOM     10  C   UNL     1      -6.503  -9.153   9.689  0.00  0.00    +0.074 C 
ATOM     11  C   UNL     1      -5.631  -8.317  10.651  0.00  0.00    +0.024 C 
ATOM     12  C   UNL     1      -3.741  -9.128   9.260  0.00  0.00    +0.019 C 
ATOM     13  C   UNL     1      -5.426 -11.115  10.643  0.00  0.00    +0.094 C 
ATOM     14  C   UNL     1      -4.639 -10.174   8.577  0.00  0.00    +0.085 C 
ENDROOT
BRANCH   9  15
ATOM      5  N   UNL     1      -3.314 -10.536  13.697  0.00  0.00    -0.270 N 
ATOM      7  N   UNL     1      -3.624 -10.601  15.004  0.00  0.00    -0.171 NA
ATOM     15  C   UNL     1      -4.400 -10.424  12.879  0.00  0.00    +0.044 A 
ATOM     17  C   UNL     1      -5.495 -10.417  13.707  0.00  0.00    +0.053 A 
ATOM     18  C   UNL     1      -4.958 -10.528  15.003  0.00  0.00    +0.093 A 
ATOM     19  C   UNL     1      -1.927 -10.589  13.298  0.00  0.00    +0.172 C 
BRANCH  18  21
ATOM     21  C   UNL     1      -5.694 -10.568  16.240  0.00  0.00    +0.002 A 
ATOM     23  C   UNL     1      -5.103 -11.098  17.387  0.00  0.00    +0.013 A 
ATOM     24  C   UNL     1      -6.998 -10.076  16.290  0.00  0.00    +0.013 A 
ATOM     25  C   UNL     1      -5.818 -11.137  18.585  0.00  0.00    +0.046 A 
ATOM     26  C   UNL     1      -7.713 -10.115  17.488  0.00  0.00    +0.046 A 
ATOM     27  C   UNL     1      -7.123 -10.645  18.634  0.00  0.00    +0.120 A 
BRANCH  27   3
ATOM      3  O   UNL     1      -7.820 -10.683  19.803  0.00  0.00    -0.495 OA
ATOM     29  C   UNL     1      -9.182 -11.102  19.731  0.00  0.00    +0.277 C 
ENDBRANCH  27   3
ENDBRANCH  18  21
ENDBRANCH   9  15
BRANCH  10  16
ATOM     16  C   UNL     1      -7.929  -9.326  10.217  0.00  0.00    +0.123 C 
BRANCH  16   6
ATOM      1  O   UNL     1      -9.081  -9.302   7.564  0.00  0.00    -0.273 OA
ATOM      6  N   UNL     1      -8.803  -8.339   9.664  0.00  0.00    -0.312 N 
ATOM     20  C   UNL     1      -9.314  -8.405   8.369  0.00  0.00    +0.239 C 
ATOM     30  H   UNL     1      -9.057  -7.548  10.250  0.00  0.00    +0.149 HD
BRANCH  20  22
ATOM     22  C   UNL     1     -10.211  -7.229   8.047  0.00  0.00    +0.255 C 
BRANCH  22   2
ATOM      2  O   UNL     1      -9.443  -6.069   7.803  0.00  0.00    -0.374 OA
ATOM     28  C   UNL     1      -9.824  -4.990   8.652  0.00  0.00    +0.194 C 
ENDBRANCH  22   2
ENDBRANCH  20  22
ENDBRANCH  16   6
ENDBRANCH  10  16
TORSDOF 7
ENDMDL
