MODEL 1
REMARK VINA RESULT:      -7.3      0.000      0.000
REMARK  Name = 40777374
REMARK  7 active torsions:
REMARK  status: ('A' for Active; 'I' for Inactive)
REMARK    1  A    between atoms: N_5  and  C_18
REMARK    2  A    between atoms: C_7  and  C_13
REMARK    3  A    between atoms: C_8  and  C_12
REMARK    4  A    between atoms: C_12  and  C_14
REMARK    5  A    between atoms: C_13  and  C_15
REMARK    6  A    between atoms: C_17  and  C_19
REMARK    7  A    between atoms: C_18  and  C_20
REMARK                            x       y       z     vdW  Elec       q    Type
REMARK                         _______ _______ _______ _____ _____    ______ ____
ROOT
ATOM      4  N   UNL     1     -18.665   4.910  26.746  0.00  0.00    -0.316 NA
ATOM      7  C   UNL     1     -16.272   3.393  27.568  0.00  0.00    +0.004 C 
ATOM      8  C   UNL     1     -16.479   3.909  26.124  0.00  0.00    +0.012 C 
ATOM      9  C   UNL     1     -17.089   4.265  28.535  0.00  0.00    +0.019 C 
ATOM     10  C   UNL     1     -17.972   4.055  25.782  0.00  0.00    +0.085 C 
ATOM     11  C   UNL     1     -18.550   4.395  28.109  0.00  0.00    +0.081 C 
ATOM     29  H   UNL     1     -19.650   4.975  26.491  0.00  0.00    +0.122 HD
ENDROOT
BRANCH   8  12
ATOM     12  C   UNL     1     -15.768   3.055  25.074  0.00  0.00    +0.064 C 
BRANCH  12  14
ATOM      2  O   UNL     1     -15.610   4.611  21.831  0.00  0.00    -0.354 OA
ATOM      6  N   UNL     1     -16.188   3.748  22.755  0.00  0.00    -0.083 NA
ATOM     14  C   UNL     1     -15.433   3.858  23.851  0.00  0.00    +0.085 A 
ATOM     16  C   UNL     1     -14.373   4.765  23.680  0.00  0.00    +0.076 A 
ATOM     17  C   UNL     1     -14.529   5.210  22.394  0.00  0.00    +0.167 A 
BRANCH  17  19
ATOM     19  C   UNL     1     -13.824   6.135  21.555  0.00  0.00    +0.020 A 
ATOM     21  C   UNL     1     -12.430   6.110  21.508  0.00  0.00    +0.011 A 
ATOM     22  C   UNL     1     -14.532   7.058  20.786  0.00  0.00    +0.011 A 
ATOM     24  C   UNL     1     -11.745   7.009  20.691  0.00  0.00    +0.001 A 
ATOM     25  C   UNL     1     -13.846   7.957  19.969  0.00  0.00    +0.001 A 
ATOM     28  C   UNL     1     -12.453   7.933  19.922  0.00  0.00    +0.000 A 
ENDBRANCH  17  19
ENDBRANCH  12  14
ENDBRANCH   8  12
BRANCH   7  13
ATOM     13  C   UNL     1     -16.609   1.908  27.754  0.00  0.00    +0.099 C 
BRANCH  13  15
ATOM      1  O   UNL     1     -16.291   0.343  29.571  0.00  0.00    -0.276 OA
ATOM      5  N   UNL     1     -14.663   1.948  29.149  0.00  0.00    -0.308 N 
ATOM     15  C   UNL     1     -15.866   1.295  28.922  0.00  0.00    +0.214 C 
ATOM     30  H   UNL     1     -14.409   2.738  28.564  0.00  0.00    +0.149 HD
BRANCH   5  18
ATOM     18  C   UNL     1     -13.749   1.573  30.203  0.00  0.00    +0.178 C 
BRANCH  18  20
ATOM      3  O   UNL     1     -14.912   1.981  32.299  0.00  0.00    -0.466 OA
ATOM     20  C   UNL     1     -13.947   2.402  31.440  0.00  0.00    +0.122 A 
ATOM     23  C   UNL     1     -13.341   3.541  31.915  0.00  0.00    +0.046 A 
ATOM     26  C   UNL     1     -13.974   3.840  33.145  0.00  0.00    +0.041 A 
ATOM     27  C   UNL     1     -14.923   2.861  33.334  0.00  0.00    +0.195 A 
ENDBRANCH  18  20
ENDBRANCH   5  18
ENDBRANCH  13  15
ENDBRANCH   7  13
TORSDOF 7
ENDMDL
MODEL 2
REMARK VINA RESULT:      -6.8      1.996      3.281
REMARK  Name = 40777374
REMARK  7 active torsions:
REMARK  status: ('A' for Active; 'I' for Inactive)
REMARK    1  A    between atoms: N_5  and  C_18
REMARK    2  A    between atoms: C_7  and  C_13
REMARK    3  A    between atoms: C_8  and  C_12
REMARK    4  A    between atoms: C_12  and  C_14
REMARK    5  A    between atoms: C_13  and  C_15
REMARK    6  A    between atoms: C_17  and  C_19
REMARK    7  A    between atoms: C_18  and  C_20
REMARK                            x       y       z     vdW  Elec       q    Type
REMARK                         _______ _______ _______ _____ _____    ______ ____
ROOT
ATOM      4  N   UNL     1     -18.210   4.510  22.663  0.00  0.00    -0.316 NA
ATOM      7  C   UNL     1     -16.376   4.640  24.971  0.00  0.00    +0.004 C 
ATOM      8  C   UNL     1     -15.955   5.061  23.543  0.00  0.00    +0.012 C 
ATOM      9  C   UNL     1     -17.903   4.766  25.101  0.00  0.00    +0.019 C 
ATOM     10  C   UNL     1     -16.772   4.324  22.468  0.00  0.00    +0.085 C 
ATOM     11  C   UNL     1     -18.645   4.042  23.978  0.00  0.00    +0.081 C 
ATOM     29  H   UNL     1     -18.717   4.001  21.940  0.00  0.00    +0.122 HD
ENDROOT
BRANCH   8  12
ATOM     12  C   UNL     1     -14.456   4.895  23.286  0.00  0.00    +0.064 C 
BRANCH  12  14
ATOM      2  O   UNL     1     -13.779   7.962  21.527  0.00  0.00    -0.354 OA
ATOM      6  N   UNL     1     -14.508   7.197  22.430  0.00  0.00    -0.083 NA
ATOM     14  C   UNL     1     -13.924   5.996  22.415  0.00  0.00    +0.085 A 
ATOM     16  C   UNL     1     -12.834   5.942  21.529  0.00  0.00    +0.076 A 
ATOM     17  C   UNL     1     -12.785   7.204  20.997  0.00  0.00    +0.167 A 
BRANCH  17  19
ATOM     19  C   UNL     1     -11.943   7.863  20.041  0.00  0.00    +0.020 A 
ATOM     21  C   UNL     1     -11.462   9.145  20.304  0.00  0.00    +0.011 A 
ATOM     22  C   UNL     1     -11.607   7.221  18.850  0.00  0.00    +0.011 A 
ATOM     24  C   UNL     1     -10.642   9.786  19.375  0.00  0.00    +0.001 A 
ATOM     25  C   UNL     1     -10.788   7.863  17.920  0.00  0.00    +0.001 A 
ATOM     28  C   UNL     1     -10.306   9.145  18.183  0.00  0.00    +0.000 A 
ENDBRANCH  17  19
ENDBRANCH  12  14
ENDBRANCH   8  12
BRANCH   7  13
ATOM     13  C   UNL     1     -15.908   3.236  25.370  0.00  0.00    +0.099 C 
BRANCH  13  15
ATOM      1  O   UNL     1     -17.298   2.075  26.974  0.00  0.00    -0.276 OA
ATOM      5  N   UNL     1     -15.617   3.489  27.734  0.00  0.00    -0.308 N 
ATOM     15  C   UNL     1     -16.372   2.851  26.759  0.00  0.00    +0.214 C 
ATOM     30  H   UNL     1     -14.880   4.128  27.451  0.00  0.00    +0.149 HD
BRANCH   5  18
ATOM     18  C   UNL     1     -15.841   3.306  29.149  0.00  0.00    +0.178 C 
BRANCH  18  20
ATOM      3  O   UNL     1     -15.920   0.975  29.835  0.00  0.00    -0.466 OA
ATOM     20  C   UNL     1     -15.148   2.082  29.674  0.00  0.00    +0.122 A 
ATOM     23  C   UNL     1     -13.849   1.823  30.043  0.00  0.00    +0.046 A 
ATOM     26  C   UNL     1     -13.820   0.470  30.458  0.00  0.00    +0.041 A 
ATOM     27  C   UNL     1     -15.105  -0.001  30.312  0.00  0.00    +0.195 A 
ENDBRANCH  18  20
ENDBRANCH   5  18
ENDBRANCH  13  15
ENDBRANCH   7  13
TORSDOF 7
ENDMDL
MODEL 3
REMARK VINA RESULT:      -6.6     20.326     22.108
REMARK  Name = 40777374
REMARK  7 active torsions:
REMARK  status: ('A' for Active; 'I' for Inactive)
REMARK    1  A    between atoms: N_5  and  C_18
REMARK    2  A    between atoms: C_7  and  C_13
REMARK    3  A    between atoms: C_8  and  C_12
REMARK    4  A    between atoms: C_12  and  C_14
REMARK    5  A    between atoms: C_13  and  C_15
REMARK    6  A    between atoms: C_17  and  C_19
REMARK    7  A    between atoms: C_18  and  C_20
REMARK                            x       y       z     vdW  Elec       q    Type
REMARK                         _______ _______ _______ _____ _____    ______ ____
ROOT
ATOM      4  N   UNL     1      -7.332 -10.324  19.653  0.00  0.00    -0.316 NA
ATOM      7  C   UNL     1      -5.707 -11.557  17.521  0.00  0.00    +0.004 C 
ATOM      8  C   UNL     1      -7.083 -10.903  17.251  0.00  0.00    +0.012 C 
ATOM      9  C   UNL     1      -5.101 -10.942  18.793  0.00  0.00    +0.019 C 
ATOM     10  C   UNL     1      -7.984 -10.941  18.498  0.00  0.00    +0.085 C 
ATOM     11  C   UNL     1      -6.066 -10.980  19.976  0.00  0.00    +0.081 C 
ATOM     29  H   UNL     1      -7.954 -10.377  20.459  0.00  0.00    +0.122 HD
ENDROOT
BRANCH   8  12
ATOM     12  C   UNL     1      -7.807 -11.506  16.046  0.00  0.00    +0.064 C 
BRANCH  12  14
ATOM      2  O   UNL     1      -7.279  -9.446  13.141  0.00  0.00    -0.354 OA
ATOM      6  N   UNL     1      -7.927  -9.749  14.333  0.00  0.00    -0.083 NA
ATOM     14  C   UNL     1      -7.351 -10.875  14.763  0.00  0.00    +0.085 A 
ATOM     16  C   UNL     1      -6.344 -11.326  13.892  0.00  0.00    +0.076 A 
ATOM     17  C   UNL     1      -6.338 -10.392  12.889  0.00  0.00    +0.167 A 
BRANCH  17  19
ATOM     19  C   UNL     1      -5.583 -10.211  11.685  0.00  0.00    +0.020 A 
ATOM     21  C   UNL     1      -5.230 -11.318  10.911  0.00  0.00    +0.011 A 
ATOM     22  C   UNL     1      -5.200  -8.931  11.287  0.00  0.00    +0.011 A 
ATOM     24  C   UNL     1      -4.496 -11.141   9.738  0.00  0.00    +0.001 A 
ATOM     25  C   UNL     1      -4.465  -8.755  10.114  0.00  0.00    +0.001 A 
ATOM     28  C   UNL     1      -4.112  -9.861   9.340  0.00  0.00    +0.000 A 
ENDBRANCH  17  19
ENDBRANCH  12  14
ENDBRANCH   8  12
BRANCH   7  13
ATOM     13  C   UNL     1      -5.751 -13.086  17.621  0.00  0.00    +0.099 C 
BRANCH  13  15
ATOM      1  O   UNL     1      -5.532 -14.823  15.951  0.00  0.00    -0.276 OA
ATOM      5  N   UNL     1      -4.076 -13.011  15.912  0.00  0.00    -0.308 N 
ATOM     15  C   UNL     1      -5.134 -13.757  16.413  0.00  0.00    +0.214 C 
ATOM     30  H   UNL     1      -3.813 -12.147  16.377  0.00  0.00    +0.149 HD
BRANCH   5  18
ATOM     18  C   UNL     1      -3.302 -13.415  14.760  0.00  0.00    +0.178 C 
BRANCH  18  20
ATOM      3  O   UNL     1      -2.230 -12.504  12.778  0.00  0.00    -0.466 OA
ATOM     20  C   UNL     1      -2.788 -12.235  13.987  0.00  0.00    +0.122 A 
ATOM     23  C   UNL     1      -2.759 -10.884  14.243  0.00  0.00    +0.046 A 
ATOM     26  C   UNL     1      -2.141 -10.284  13.120  0.00  0.00    +0.041 A 
ATOM     27  C   UNL     1      -1.838 -11.312  12.257  0.00  0.00    +0.195 A 
ENDBRANCH  18  20
ENDBRANCH   5  18
ENDBRANCH  13  15
ENDBRANCH   7  13
TORSDOF 7
ENDMDL
MODEL 4
REMARK VINA RESULT:      -6.6     28.168     30.597
REMARK  Name = 40777374
REMARK  7 active torsions:
REMARK  status: ('A' for Active; 'I' for Inactive)
REMARK    1  A    between atoms: N_5  and  C_18
REMARK    2  A    between atoms: C_7  and  C_13
REMARK    3  A    between atoms: C_8  and  C_12
REMARK    4  A    between atoms: C_12  and  C_14
REMARK    5  A    between atoms: C_13  and  C_15
REMARK    6  A    between atoms: C_17  and  C_19
REMARK    7  A    between atoms: C_18  and  C_20
REMARK                            x       y       z     vdW  Elec       q    Type
REMARK                         _______ _______ _______ _____ _____    ______ ____
ROOT
ATOM      4  N   UNL     1      15.135   7.166  21.954  0.00  0.00    -0.316 NA
ATOM      7  C   UNL     1      14.033   8.206  19.422  0.00  0.00    +0.004 C 
ATOM      8  C   UNL     1      13.589   8.734  20.807  0.00  0.00    +0.012 C 
ATOM      9  C   UNL     1      15.444   7.606  19.543  0.00  0.00    +0.019 C 
ATOM     10  C   UNL     1      13.762   7.669  21.904  0.00  0.00    +0.085 C 
ATOM     11  C   UNL     1      15.548   6.587  20.677  0.00  0.00    +0.081 C 
ATOM     29  H   UNL     1      15.208   6.458  22.684  0.00  0.00    +0.122 HD
ENDROOT
BRANCH   8  12
ATOM     12  C   UNL     1      12.161   9.281  20.810  0.00  0.00    +0.064 C 
BRANCH  12  14
ATOM      2  O   UNL     1      12.370  12.757  21.725  0.00  0.00    -0.354 OA
ATOM      6  N   UNL     1      12.598  11.698  20.853  0.00  0.00    -0.083 NA
ATOM     14  C   UNL     1      12.092  10.627  21.470  0.00  0.00    +0.085 A 
ATOM     16  C   UNL     1      11.539  10.944  22.723  0.00  0.00    +0.076 A 
ATOM     17  C   UNL     1      11.740  12.295  22.835  0.00  0.00    +0.167 A 
BRANCH  17  19
ATOM     19  C   UNL     1      11.437  13.280  23.832  0.00  0.00    +0.020 A 
ATOM     21  C   UNL     1      10.835  12.895  25.031  0.00  0.00    +0.011 A 
ATOM     22  C   UNL     1      11.745  14.620  23.604  0.00  0.00    +0.011 A 
ATOM     24  C   UNL     1      10.541  13.854  26.001  0.00  0.00    +0.001 A 
ATOM     25  C   UNL     1      11.451  15.578  24.575  0.00  0.00    +0.001 A 
ATOM     28  C   UNL     1      10.849  15.195  25.773  0.00  0.00    +0.000 A 
ENDBRANCH  17  19
ENDBRANCH  12  14
ENDBRANCH   8  12
BRANCH   7  13
ATOM     13  C   UNL     1      13.062   7.196  18.798  0.00  0.00    +0.099 C 
BRANCH  13  15
ATOM      1  O   UNL     1      11.341   7.301  17.101  0.00  0.00    -0.276 OA
ATOM      5  N   UNL     1      13.135   8.775  17.000  0.00  0.00    -0.308 N 
ATOM     15  C   UNL     1      12.397   7.738  17.551  0.00  0.00    +0.214 C 
ATOM     30  H   UNL     1      14.008   9.052  17.440  0.00  0.00    +0.149 HD
BRANCH   5  18
ATOM     18  C   UNL     1      12.735   9.478  15.803  0.00  0.00    +0.178 C 
BRANCH  18  20
ATOM      3  O   UNL     1      13.383  11.348  14.391  0.00  0.00    -0.466 OA
ATOM     20  C   UNL     1      13.755  10.497  15.383  0.00  0.00    +0.122 A 
ATOM     23  C   UNL     1      15.037  10.772  15.800  0.00  0.00    +0.046 A 
ATOM     26  C   UNL     1      15.482  11.861  15.013  0.00  0.00    +0.041 A 
ATOM     27  C   UNL     1      14.439  12.175  14.171  0.00  0.00    +0.195 A 
ENDBRANCH  18  20
ENDBRANCH   5  18
ENDBRANCH  13  15
ENDBRANCH   7  13
TORSDOF 7
ENDMDL
MODEL 5
REMARK VINA RESULT:      -6.5     16.029     19.167
REMARK  Name = 40777374
REMARK  7 active torsions:
REMARK  status: ('A' for Active; 'I' for Inactive)
REMARK    1  A    between atoms: N_5  and  C_18
REMARK    2  A    between atoms: C_7  and  C_13
REMARK    3  A    between atoms: C_8  and  C_12
REMARK    4  A    between atoms: C_12  and  C_14
REMARK    5  A    between atoms: C_13  and  C_15
REMARK    6  A    between atoms: C_17  and  C_19
REMARK    7  A    between atoms: C_18  and  C_20
REMARK                            x       y       z     vdW  Elec       q    Type
REMARK                         _______ _______ _______ _____ _____    ______ ____
ROOT
ATOM      4  N   UNL     1     -13.171  -9.784  14.633  0.00  0.00    -0.316 NA
ATOM      7  C   UNL     1     -11.716  -7.221  14.476  0.00  0.00    +0.004 C 
ATOM      8  C   UNL     1     -11.367  -8.319  15.509  0.00  0.00    +0.012 C 
ATOM      9  C   UNL     1     -12.408  -7.872  13.267  0.00  0.00    +0.019 C 
ATOM     10  C   UNL     1     -12.586  -9.197  15.840  0.00  0.00    +0.085 C 
ATOM     11  C   UNL     1     -13.583  -8.758  13.676  0.00  0.00    +0.081 C 
ATOM     29  H   UNL     1     -13.979 -10.349  14.891  0.00  0.00    +0.122 HD
ENDROOT
BRANCH   8  12
ATOM     12  C   UNL     1     -10.743  -7.761  16.789  0.00  0.00    +0.064 C 
BRANCH  12  14
ATOM      2  O   UNL     1      -8.862 -10.268  18.561  0.00  0.00    -0.354 OA
ATOM      6  N   UNL     1     -10.038  -9.583  18.280  0.00  0.00    -0.083 NA
ATOM     14  C   UNL     1      -9.704  -8.692  17.342  0.00  0.00    +0.085 A 
ATOM     16  C   UNL     1      -8.344  -8.767  16.996  0.00  0.00    +0.076 A 
ATOM     17  C   UNL     1      -7.860  -9.773  17.790  0.00  0.00    +0.167 A 
BRANCH  17  19
ATOM     19  C   UNL     1      -6.577 -10.387  17.971  0.00  0.00    +0.020 A 
ATOM     21  C   UNL     1      -5.605 -10.276  16.976  0.00  0.00    +0.011 A 
ATOM     22  C   UNL     1      -6.300 -11.094  19.140  0.00  0.00    +0.011 A 
ATOM     24  C   UNL     1      -4.357 -10.872  17.152  0.00  0.00    +0.001 A 
ATOM     25  C   UNL     1      -5.052 -11.691  19.316  0.00  0.00    +0.001 A 
ATOM     28  C   UNL     1      -4.080 -11.580  18.321  0.00  0.00    +0.000 A 
ENDBRANCH  17  19
ENDBRANCH  12  14
ENDBRANCH   8  12
BRANCH   7  13
ATOM     13  C   UNL     1     -12.567  -6.079  15.043  0.00  0.00    +0.099 C 
BRANCH  13  15
ATOM      1  O   UNL     1     -14.300  -5.093  13.673  0.00  0.00    -0.276 OA
ATOM      5  N   UNL     1     -12.086  -4.466  13.340  0.00  0.00    -0.308 N 
ATOM     15  C   UNL     1     -13.108  -5.174  13.957  0.00  0.00    +0.214 C 
ATOM     30  H   UNL     1     -11.127  -4.617  13.639  0.00  0.00    +0.149 HD
BRANCH   5  18
ATOM     18  C   UNL     1     -12.314  -3.527  12.267  0.00  0.00    +0.178 C 
BRANCH  18  20
ATOM      3  O   UNL     1     -11.852  -5.404  10.793  0.00  0.00    -0.466 OA
ATOM     20  C   UNL     1     -11.829  -4.054  10.947  0.00  0.00    +0.122 A 
ATOM     23  C   UNL     1     -11.348  -3.446   9.811  0.00  0.00    +0.046 A 
ATOM     26  C   UNL     1     -11.055  -4.489   8.900  0.00  0.00    +0.041 A 
ATOM     27  C   UNL     1     -11.380  -5.661   9.545  0.00  0.00    +0.195 A 
ENDBRANCH  18  20
ENDBRANCH   5  18
ENDBRANCH  13  15
ENDBRANCH   7  13
TORSDOF 7
ENDMDL
MODEL 6
REMARK VINA RESULT:      -6.4     20.527     22.205
REMARK  Name = 40777374
REMARK  7 active torsions:
REMARK  status: ('A' for Active; 'I' for Inactive)
REMARK    1  A    between atoms: N_5  and  C_18
REMARK    2  A    between atoms: C_7  and  C_13
REMARK    3  A    between atoms: C_8  and  C_12
REMARK    4  A    between atoms: C_12  and  C_14
REMARK    5  A    between atoms: C_13  and  C_15
REMARK    6  A    between atoms: C_17  and  C_19
REMARK    7  A    between atoms: C_18  and  C_20
REMARK                            x       y       z     vdW  Elec       q    Type
REMARK                         _______ _______ _______ _____ _____    ______ ____
ROOT
ATOM      4  N   UNL     1      -8.817 -11.772  18.396  0.00  0.00    -0.316 NA
ATOM      7  C   UNL     1      -5.992 -11.287  17.698  0.00  0.00    +0.004 C 
ATOM      8  C   UNL     1      -6.931 -12.154  16.826  0.00  0.00    +0.012 C 
ATOM      9  C   UNL     1      -6.838 -10.300  18.519  0.00  0.00    +0.019 C 
ATOM     10  C   UNL     1      -8.059 -12.785  17.661  0.00  0.00    +0.085 C 
ATOM     11  C   UNL     1      -7.960 -10.994  19.288  0.00  0.00    +0.081 C 
ATOM     29  H   UNL     1      -9.548 -12.227  18.942  0.00  0.00    +0.122 HD
ENDROOT
BRANCH   8  12
ATOM     12  C   UNL     1      -6.189 -13.227  16.028  0.00  0.00    +0.064 C 
BRANCH  12  14
ATOM      2  O   UNL     1      -5.679 -12.912  12.478  0.00  0.00    -0.354 OA
ATOM      6  N   UNL     1      -5.978 -13.650  13.617  0.00  0.00    -0.083 NA
ATOM     14  C   UNL     1      -5.918 -12.774  14.623  0.00  0.00    +0.085 A 
ATOM     16  C   UNL     1      -5.587 -11.480  14.185  0.00  0.00    +0.076 A 
ATOM     17  C   UNL     1      -5.448 -11.621  12.829  0.00  0.00    +0.167 A 
BRANCH  17  19
ATOM     19  C   UNL     1      -5.125 -10.732  11.751  0.00  0.00    +0.020 A 
ATOM     21  C   UNL     1      -4.476 -11.220  10.617  0.00  0.00    +0.011 A 
ATOM     22  C   UNL     1      -5.459  -9.381  11.837  0.00  0.00    +0.011 A 
ATOM     24  C   UNL     1      -4.163 -10.356   9.568  0.00  0.00    +0.001 A 
ATOM     25  C   UNL     1      -5.145  -8.517  10.788  0.00  0.00    +0.001 A 
ATOM     28  C   UNL     1      -4.497  -9.004   9.654  0.00  0.00    +0.000 A 
ENDBRANCH  17  19
ENDBRANCH  12  14
ENDBRANCH   8  12
BRANCH   7  13
ATOM     13  C   UNL     1      -5.062 -12.098  18.609  0.00  0.00    +0.099 C 
BRANCH  13  15
ATOM      1  O   UNL     1      -2.751 -11.829  19.271  0.00  0.00    -0.276 OA
ATOM      5  N   UNL     1      -3.375 -11.346  17.085  0.00  0.00    -0.308 N 
ATOM     15  C   UNL     1      -3.604 -11.753  18.392  0.00  0.00    +0.214 C 
ATOM     30  H   UNL     1      -4.155 -11.300  16.435  0.00  0.00    +0.149 HD
BRANCH   5  18
ATOM     18  C   UNL     1      -2.072 -10.955  16.598  0.00  0.00    +0.178 C 
BRANCH  18  20
ATOM      3  O   UNL     1      -1.963 -12.390  14.639  0.00  0.00    -0.466 OA
ATOM     20  C   UNL     1      -1.958 -11.116  15.109  0.00  0.00    +0.122 A 
ATOM     23  C   UNL     1      -1.847 -10.218  14.073  0.00  0.00    +0.046 A 
ATOM     26  C   UNL     1      -1.777 -10.991  12.889  0.00  0.00    +0.041 A 
ATOM     27  C   UNL     1      -1.852 -12.307  13.287  0.00  0.00    +0.195 A 
ENDBRANCH  18  20
ENDBRANCH   5  18
ENDBRANCH  13  15
ENDBRANCH   7  13
TORSDOF 7
ENDMDL
MODEL 7
REMARK VINA RESULT:      -6.4     18.488     21.010
REMARK  Name = 40777374
REMARK  7 active torsions:
REMARK  status: ('A' for Active; 'I' for Inactive)
REMARK    1  A    between atoms: N_5  and  C_18
REMARK    2  A    between atoms: C_7  and  C_13
REMARK    3  A    between atoms: C_8  and  C_12
REMARK    4  A    between atoms: C_12  and  C_14
REMARK    5  A    between atoms: C_13  and  C_15
REMARK    6  A    between atoms: C_17  and  C_19
REMARK    7  A    between atoms: C_18  and  C_20
REMARK                            x       y       z     vdW  Elec       q    Type
REMARK                         _______ _______ _______ _____ _____    ______ ____
ROOT
ATOM      4  N   UNL     1      -5.906 -12.584  18.935  0.00  0.00    -0.316 NA
ATOM      7  C   UNL     1      -4.384 -10.853  17.093  0.00  0.00    +0.004 C 
ATOM      8  C   UNL     1      -5.925 -10.784  17.225  0.00  0.00    +0.012 C 
ATOM      9  C   UNL     1      -3.795 -11.422  18.395  0.00  0.00    +0.019 C 
ATOM     10  C   UNL     1      -6.516 -12.128  17.686  0.00  0.00    +0.085 C 
ATOM     11  C   UNL     1      -4.457 -12.734  18.809  0.00  0.00    +0.081 C 
ATOM     29  H   UNL     1      -6.316 -13.478  19.203  0.00  0.00    +0.122 HD
ENDROOT
BRANCH   8  12
ATOM     12  C   UNL     1      -6.615 -10.304  15.947  0.00  0.00    +0.064 C 
BRANCH  12  14
ATOM      2  O   UNL     1      -9.173  -8.237  17.411  0.00  0.00    -0.354 OA
ATOM      6  N   UNL     1      -7.960  -8.914  17.462  0.00  0.00    -0.083 NA
ATOM     14  C   UNL     1      -7.829  -9.479  16.258  0.00  0.00    +0.085 A 
ATOM     16  C   UNL     1      -8.917  -9.197  15.415  0.00  0.00    +0.076 A 
ATOM     17  C   UNL     1      -9.734  -8.413  16.187  0.00  0.00    +0.167 A 
BRANCH  17  19
ATOM     19  C   UNL     1     -10.998  -7.767  15.985  0.00  0.00    +0.020 A 
ATOM     21  C   UNL     1     -11.042  -6.425  15.606  0.00  0.00    +0.011 A 
ATOM     22  C   UNL     1     -12.182  -8.481  16.166  0.00  0.00    +0.011 A 
ATOM     24  C   UNL     1     -12.272  -5.798  15.408  0.00  0.00    +0.001 A 
ATOM     25  C   UNL     1     -13.412  -7.853  15.969  0.00  0.00    +0.001 A 
ATOM     28  C   UNL     1     -13.457  -6.511  15.590  0.00  0.00    +0.000 A 
ENDBRANCH  17  19
ENDBRANCH  12  14
ENDBRANCH   8  12
BRANCH   7  13
ATOM     13  C   UNL     1      -3.897 -11.651  15.878  0.00  0.00    +0.099 C 
BRANCH  13  15
ATOM      1  O   UNL     1      -1.907 -10.298  15.623  0.00  0.00    -0.276 OA
ATOM      5  N   UNL     1      -3.046 -11.021  13.730  0.00  0.00    -0.308 N 
ATOM     15  C   UNL     1      -2.832 -10.910  15.097  0.00  0.00    +0.214 C 
ATOM     30  H   UNL     1      -3.853 -11.539  13.394  0.00  0.00    +0.149 HD
BRANCH   5  18
ATOM     18  C   UNL     1      -2.183 -10.411  12.745  0.00  0.00    +0.178 C 
BRANCH  18  20
ATOM      3  O   UNL     1      -4.267 -10.281  11.498  0.00  0.00    -0.466 OA
ATOM     20  C   UNL     1      -2.945  -9.967  11.529  0.00  0.00    +0.122 A 
ATOM     23  C   UNL     1      -2.584  -9.282  10.393  0.00  0.00    +0.046 A 
ATOM     26  C   UNL     1      -3.759  -9.168   9.612  0.00  0.00    +0.041 A 
ATOM     27  C   UNL     1      -4.755  -9.791  10.329  0.00  0.00    +0.195 A 
ENDBRANCH  18  20
ENDBRANCH   5  18
ENDBRANCH  13  15
ENDBRANCH   7  13
TORSDOF 7
ENDMDL
MODEL 8
REMARK VINA RESULT:      -6.4     35.032     37.212
REMARK  Name = 40777374
REMARK  7 active torsions:
REMARK  status: ('A' for Active; 'I' for Inactive)
REMARK    1  A    between atoms: N_5  and  C_18
REMARK    2  A    between atoms: C_7  and  C_13
REMARK    3  A    between atoms: C_8  and  C_12
REMARK    4  A    between atoms: C_12  and  C_14
REMARK    5  A    between atoms: C_13  and  C_15
REMARK    6  A    between atoms: C_17  and  C_19
REMARK    7  A    between atoms: C_18  and  C_20
REMARK                            x       y       z     vdW  Elec       q    Type
REMARK                         _______ _______ _______ _____ _____    ______ ____
ROOT
ATOM      4  N   UNL     1       6.866   9.161  -2.614  0.00  0.00    -0.316 NA
ATOM      7  C   UNL     1       5.679   6.528  -3.220  0.00  0.00    +0.004 C 
ATOM      8  C   UNL     1       7.205   6.747  -3.084  0.00  0.00    +0.012 C 
ATOM      9  C   UNL     1       4.944   7.621  -2.427  0.00  0.00    +0.019 C 
ATOM     10  C   UNL     1       7.605   8.192  -3.424  0.00  0.00    +0.085 C 
ATOM     11  C   UNL     1       5.421   9.026  -2.790  0.00  0.00    +0.081 C 
ATOM     29  H   UNL     1       7.151  10.105  -2.874  0.00  0.00    +0.122 HD
ENDROOT
BRANCH   8  12
ATOM     12  C   UNL     1       8.028   5.753  -3.906  0.00  0.00    +0.064 C 
BRANCH  12  14
ATOM      2  O   UNL     1      10.182   3.319  -2.357  0.00  0.00    -0.354 OA
ATOM      6  N   UNL     1       9.294   3.723  -3.347  0.00  0.00    -0.083 NA
ATOM     14  C   UNL     1       8.982   4.984  -3.039  0.00  0.00    +0.085 A 
ATOM     16  C   UNL     1       9.635   5.427  -1.875  0.00  0.00    +0.076 A 
ATOM     17  C   UNL     1      10.378   4.342  -1.486  0.00  0.00    +0.167 A 
BRANCH  17  19
ATOM     19  C   UNL     1      11.277   4.072  -0.403  0.00  0.00    +0.020 A 
ATOM     21  C   UNL     1      10.837   4.200   0.916  0.00  0.00    +0.011 A 
ATOM     22  C   UNL     1      12.589   3.682  -0.666  0.00  0.00    +0.011 A 
ATOM     24  C   UNL     1      11.712   3.936   1.970  0.00  0.00    +0.001 A 
ATOM     25  C   UNL     1      13.464   3.420   0.389  0.00  0.00    +0.001 A 
ATOM     28  C   UNL     1      13.025   3.547   1.706  0.00  0.00    +0.000 A 
ENDBRANCH  17  19
ENDBRANCH  12  14
ENDBRANCH   8  12
BRANCH   7  13
ATOM     13  C   UNL     1       5.183   6.478  -4.669  0.00  0.00    +0.099 C 
BRANCH  13  15
ATOM      1  O   UNL     1       2.996   7.405  -5.132  0.00  0.00    -0.276 OA
ATOM      5  N   UNL     1       3.170   5.218  -4.361  0.00  0.00    -0.308 N 
ATOM     15  C   UNL     1       3.672   6.450  -4.757  0.00  0.00    +0.214 C 
ATOM     30  H   UNL     1       3.814   4.496  -4.051  0.00  0.00    +0.149 HD
BRANCH   5  18
ATOM     18  C   UNL     1       1.759   4.911  -4.344  0.00  0.00    +0.178 C 
BRANCH  18  20
ATOM      3  O   UNL     1       0.341   2.941  -4.198  0.00  0.00    -0.466 OA
ATOM     20  C   UNL     1       1.493   3.472  -4.684  0.00  0.00    +0.122 A 
ATOM     23  C   UNL     1       2.189   2.534  -5.411  0.00  0.00    +0.046 A 
ATOM     26  C   UNL     1       1.415   1.351  -5.369  0.00  0.00    +0.041 A 
ATOM     27  C   UNL     1       0.300   1.650  -4.619  0.00  0.00    +0.195 A 
ENDBRANCH  18  20
ENDBRANCH   5  18
ENDBRANCH  13  15
ENDBRANCH   7  13
TORSDOF 7
ENDMDL
MODEL 9
REMARK VINA RESULT:      -6.3      3.255      9.510
REMARK  Name = 40777374
REMARK  7 active torsions:
REMARK  status: ('A' for Active; 'I' for Inactive)
REMARK    1  A    between atoms: N_5  and  C_18
REMARK    2  A    between atoms: C_7  and  C_13
REMARK    3  A    between atoms: C_8  and  C_12
REMARK    4  A    between atoms: C_12  and  C_14
REMARK    5  A    between atoms: C_13  and  C_15
REMARK    6  A    between atoms: C_17  and  C_19
REMARK    7  A    between atoms: C_18  and  C_20
REMARK                            x       y       z     vdW  Elec       q    Type
REMARK                         _______ _______ _______ _____ _____    ______ ____
ROOT
ATOM      4  N   UNL     1     -14.612   1.187  32.404  0.00  0.00    -0.316 NA
ATOM      7  C   UNL     1     -15.306   2.337  29.777  0.00  0.00    +0.004 C 
ATOM      8  C   UNL     1     -14.989   3.210  31.014  0.00  0.00    +0.012 C 
ATOM      9  C   UNL     1     -14.630   0.966  29.944  0.00  0.00    +0.019 C 
ATOM     10  C   UNL     1     -15.307   2.472  32.326  0.00  0.00    +0.085 C 
ATOM     11  C   UNL     1     -14.960   0.313  31.285  0.00  0.00    +0.081 C 
ATOM     29  H   UNL     1     -14.854   0.725  33.280  0.00  0.00    +0.122 HD
ENDROOT
BRANCH   8  12
ATOM     12  C   UNL     1     -15.684   4.572  30.981  0.00  0.00    +0.064 C 
BRANCH  12  14
ATOM      2  O   UNL     1     -15.453   6.622  33.932  0.00  0.00    -0.354 OA
ATOM      6  N   UNL     1     -16.172   5.872  33.008  0.00  0.00    -0.083 NA
ATOM     14  C   UNL     1     -15.261   5.430  32.138  0.00  0.00    +0.085 A 
ATOM     16  C   UNL     1     -13.963   5.865  32.456  0.00  0.00    +0.076 A 
ATOM     17  C   UNL     1     -14.139   6.610  33.593  0.00  0.00    +0.167 A 
BRANCH  17  19
ATOM     19  C   UNL     1     -13.267   7.347  34.460  0.00  0.00    +0.020 A 
ATOM     21  C   UNL     1     -12.582   8.462  33.977  0.00  0.00    +0.011 A 
ATOM     22  C   UNL     1     -13.104   6.948  35.787  0.00  0.00    +0.011 A 
ATOM     24  C   UNL     1     -11.735   9.179  34.822  0.00  0.00    +0.001 A 
ATOM     25  C   UNL     1     -12.255   7.665  36.631  0.00  0.00    +0.001 A 
ATOM     28  C   UNL     1     -11.571   8.780  36.148  0.00  0.00    +0.000 A 
ENDBRANCH  17  19
ENDBRANCH  12  14
ENDBRANCH   8  12
BRANCH   7  13
ATOM     13  C   UNL     1     -16.804   2.176  29.494  0.00  0.00    +0.099 C 
BRANCH  13  15
ATOM      1  O   UNL     1     -17.565   0.288  28.187  0.00  0.00    -0.276 OA
ATOM      5  N   UNL     1     -16.670   2.140  27.103  0.00  0.00    -0.308 N 
ATOM     15  C   UNL     1     -17.066   1.410  28.215  0.00  0.00    +0.214 C 
ATOM     30  H   UNL     1     -16.252   3.056  27.234  0.00  0.00    +0.149 HD
BRANCH   5  18
ATOM     18  C   UNL     1     -16.803   1.651  25.750  0.00  0.00    +0.178 C 
BRANCH  18  20
ATOM      3  O   UNL     1     -17.200   2.765  23.626  0.00  0.00    -0.466 OA
ATOM     20  C   UNL     1     -16.420   2.690  24.737  0.00  0.00    +0.122 A 
ATOM     23  C   UNL     1     -15.412   3.624  24.683  0.00  0.00    +0.046 A 
ATOM     26  C   UNL     1     -15.581   4.317  23.461  0.00  0.00    +0.041 A 
ATOM     27  C   UNL     1     -16.683   3.757  22.855  0.00  0.00    +0.195 A 
ENDBRANCH  18  20
ENDBRANCH   5  18
ENDBRANCH  13  15
ENDBRANCH   7  13
TORSDOF 7
ENDMDL
MODEL 10
REMARK VINA RESULT:      -6.2      6.760     10.330
REMARK  Name = 40777374
REMARK  7 active torsions:
REMARK  status: ('A' for Active; 'I' for Inactive)
REMARK    1  A    between atoms: N_5  and  C_18
REMARK    2  A    between atoms: C_7  and  C_13
REMARK    3  A    between atoms: C_8  and  C_12
REMARK    4  A    between atoms: C_12  and  C_14
REMARK    5  A    between atoms: C_13  and  C_15
REMARK    6  A    between atoms: C_17  and  C_19
REMARK    7  A    between atoms: C_18  and  C_20
REMARK                            x       y       z     vdW  Elec       q    Type
REMARK                         _______ _______ _______ _____ _____    ______ ____
ROOT
ATOM      4  N   UNL     1     -14.043   4.376  22.021  0.00  0.00    -0.316 NA
ATOM      7  C   UNL     1     -14.145   7.161  21.052  0.00  0.00    +0.004 C 
ATOM      8  C   UNL     1     -12.865   6.295  20.975  0.00  0.00    +0.012 C 
ATOM      9  C   UNL     1     -15.374   6.238  21.090  0.00  0.00    +0.019 C 
ATOM     10  C   UNL     1     -12.844   5.214  22.069  0.00  0.00    +0.085 C 
ATOM     11  C   UNL     1     -15.264   5.167  22.174  0.00  0.00    +0.081 C 
ATOM     29  H   UNL     1     -13.998   3.679  22.764  0.00  0.00    +0.122 HD
ENDROOT
BRANCH   8  12
ATOM     12  C   UNL     1     -11.579   7.122  21.013  0.00  0.00    +0.064 C 
BRANCH  12  14
ATOM      2  O   UNL     1     -11.391   8.315  17.621  0.00  0.00    -0.354 OA
ATOM      6  N   UNL     1     -11.670   7.335  18.567  0.00  0.00    -0.083 NA
ATOM     14  C   UNL     1     -11.392   7.902  19.744  0.00  0.00    +0.085 A 
ATOM     16  C   UNL     1     -10.937   9.225  19.606  0.00  0.00    +0.076 A 
ATOM     17  C   UNL     1     -10.956   9.435  18.252  0.00  0.00    +0.167 A 
BRANCH  17  19
ATOM     19  C   UNL     1     -10.627  10.540  17.399  0.00  0.00    +0.020 A 
ATOM     21  C   UNL     1     -10.014  11.674  17.933  0.00  0.00    +0.011 A 
ATOM     22  C   UNL     1     -10.921  10.481  16.037  0.00  0.00    +0.011 A 
ATOM     24  C   UNL     1      -9.694  12.749  17.103  0.00  0.00    +0.001 A 
ATOM     25  C   UNL     1     -10.601  11.556  15.208  0.00  0.00    +0.001 A 
ATOM     28  C   UNL     1      -9.988  12.690  15.741  0.00  0.00    +0.000 A 
ENDBRANCH  17  19
ENDBRANCH  12  14
ENDBRANCH   8  12
BRANCH   7  13
ATOM     13  C   UNL     1     -14.163   8.144  22.228  0.00  0.00    +0.099 C 
BRANCH  13  15
ATOM      1  O   UNL     1     -15.816   9.886  21.929  0.00  0.00    -0.276 OA
ATOM      5  N   UNL     1     -13.610  10.287  21.313  0.00  0.00    -0.308 N 
ATOM     15  C   UNL     1     -14.649   9.518  21.819  0.00  0.00    +0.214 C 
ATOM     30  H   UNL     1     -12.680   9.883  21.248  0.00  0.00    +0.149 HD
BRANCH   5  18
ATOM     18  C   UNL     1     -13.787  11.642  20.845  0.00  0.00    +0.178 C 
BRANCH  18  20
ATOM      3  O   UNL     1     -13.490  12.867  18.766  0.00  0.00    -0.466 OA
ATOM     20  C   UNL     1     -13.898  11.709  19.349  0.00  0.00    +0.122 A 
ATOM     23  C   UNL     1     -14.338  10.818  18.397  0.00  0.00    +0.046 A 
ATOM     26  C   UNL     1     -14.193  11.471  17.150  0.00  0.00    +0.041 A 
ATOM     27  C   UNL     1     -13.673  12.715  17.428  0.00  0.00    +0.195 A 
ENDBRANCH  18  20
ENDBRANCH   5  18
ENDBRANCH  13  15
ENDBRANCH   7  13
TORSDOF 7
ENDMDL
