MODEL 1
REMARK VINA RESULT:      -7.5      0.000      0.000
REMARK  Name = 7134558
REMARK  4 active torsions:
REMARK  status: ('A' for Active; 'I' for Inactive)
REMARK    1  A    between atoms: N_9  and  C_14
REMARK    2  A    between atoms: N_10  and  C_27
REMARK    3  A    between atoms: C_19  and  C_24
REMARK    4  A    between atoms: C_34  and  C_37
REMARK                            x       y       z     vdW  Elec       q    Type
REMARK                         _______ _______ _______ _____ _____    ______ ____
ROOT
ATOM      7  O   UNL     1     -12.843  -9.324  16.783  0.00  0.00    -0.276 OA
ATOM      9  N   UNL     1     -12.909  -8.521  14.614  0.00  0.00    -0.312 N 
ATOM     24  C   UNL     1     -12.566  -9.449  15.587  0.00  0.00    +0.216 C 
ATOM     38  H   UNL     1     -12.639  -8.691  13.651  0.00  0.00    +0.149 HD
ENDROOT
BRANCH  24  19
ATOM     11  N   UNL     1      -9.070 -10.520  15.998  0.00  0.00    -0.300 N 
ATOM     12  N   UNL     1      -7.485 -10.791  17.726  0.00  0.00    -0.210 NA
ATOM     13  N   UNL     1      -6.805 -10.034  15.541  0.00  0.00    -0.223 NA
ATOM     19  C   UNL     1     -11.810 -10.627  15.044  0.00  0.00    +0.078 C 
ATOM     22  C   UNL     1     -10.660 -10.162  14.153  0.00  0.00    +0.032 C 
ATOM     23  C   UNL     1     -11.310 -11.534  16.166  0.00  0.00    +0.032 C 
ATOM     25  C   UNL     1      -9.489  -9.585  14.947  0.00  0.00    +0.108 C 
ATOM     26  C   UNL     1     -10.113 -10.960  16.928  0.00  0.00    +0.108 C 
ATOM     28  C   UNL     1      -7.742 -10.446  16.436  0.00  0.00    +0.218 A 
ATOM     34  C   UNL     1      -6.195 -10.708  18.114  0.00  0.00    +0.149 A 
ATOM     35  C   UNL     1      -5.537  -9.974  15.996  0.00  0.00    +0.116 A 
ATOM     36  C   UNL     1      -5.169 -10.302  17.285  0.00  0.00    +0.052 A 
BRANCH  34  37
ATOM      2  F   UNL     1      -6.749 -12.018  20.038  0.00  0.00    -0.164 F 
ATOM      3  F   UNL     1      -4.646 -11.611  19.696  0.00  0.00    -0.164 F 
ATOM      4  F   UNL     1      -5.961 -10.020  20.378  0.00  0.00    -0.164 F 
ATOM     37  C   UNL     1      -5.894 -11.083  19.526  0.00  0.00    +0.434 C 
ENDBRANCH  34  37
ENDBRANCH  24  19
BRANCH   9  14
ATOM      5  O   UNL     1     -15.511  -6.103  10.951  0.00  0.00    -0.273 OA
ATOM      6  O   UNL     1     -12.399  -3.090  12.622  0.00  0.00    -0.252 OA
ATOM      8  N   UNL     1     -12.824  -5.343  12.980  0.00  0.00    -0.273 N 
ATOM     10  N   UNL     1     -14.104  -4.275  11.484  0.00  0.00    -0.193 N 
ATOM     14  C   UNL     1     -13.631  -7.303  14.902  0.00  0.00    +0.077 C 
ATOM     15  C   UNL     1     -13.743  -6.361  12.550  0.00  0.00    +0.166 C 
ATOM     16  C   UNL     1     -14.544  -6.906  13.729  0.00  0.00    +0.054 C 
ATOM     17  C   UNL     1     -12.663  -6.165  15.272  0.00  0.00    +0.041 C 
ATOM     18  C   UNL     1     -11.896  -5.635  14.059  0.00  0.00    +0.112 C 
ATOM     20  C   UNL     1     -14.590  -5.576  11.563  0.00  0.00    +0.248 C 
ATOM     21  C   UNL     1     -13.029  -4.108  12.364  0.00  0.00    +0.316 C 
BRANCH  10  27
ATOM      1 CL   UNL     1     -16.329  -0.004   7.997  0.00  0.00    -0.084 Cl
ATOM     27  C   UNL     1     -14.639  -3.247  10.645  0.00  0.00    +0.046 A 
ATOM     29  C   UNL     1     -15.609  -2.370  11.140  0.00  0.00    +0.025 A 
ATOM     30  C   UNL     1     -14.197  -3.115   9.326  0.00  0.00    +0.025 A 
ATOM     31  C   UNL     1     -16.130  -1.368  10.321  0.00  0.00    +0.022 A 
ATOM     32  C   UNL     1     -14.719  -2.113   8.508  0.00  0.00    +0.022 A 
ATOM     33  C   UNL     1     -15.685  -1.240   9.006  0.00  0.00    +0.041 A 
ENDBRANCH  10  27
ENDBRANCH   9  14
TORSDOF 4
ENDMDL
MODEL 2
REMARK VINA RESULT:      -7.5      6.669     11.366
REMARK  Name = 7134558
REMARK  4 active torsions:
REMARK  status: ('A' for Active; 'I' for Inactive)
REMARK    1  A    between atoms: N_9  and  C_14
REMARK    2  A    between atoms: N_10  and  C_27
REMARK    3  A    between atoms: C_19  and  C_24
REMARK    4  A    between atoms: C_34  and  C_37
REMARK                            x       y       z     vdW  Elec       q    Type
REMARK                         _______ _______ _______ _____ _____    ______ ____
ROOT
ATOM      7  O   UNL     1      -9.202  -9.500   6.843  0.00  0.00    -0.276 OA
ATOM      9  N   UNL     1      -7.379  -8.726   8.040  0.00  0.00    -0.312 N 
ATOM     24  C   UNL     1      -8.470  -8.570   7.197  0.00  0.00    +0.216 C 
ATOM     38  H   UNL     1      -6.821  -7.914   8.280  0.00  0.00    +0.149 HD
ENDROOT
BRANCH  24  19
ATOM     11  N   UNL     1     -10.841  -5.968   8.267  0.00  0.00    -0.300 N 
ATOM     12  N   UNL     1     -11.673  -5.036  10.269  0.00  0.00    -0.210 NA
ATOM     13  N   UNL     1     -13.100  -5.289   8.344  0.00  0.00    -0.223 NA
ATOM     19  C   UNL     1      -8.673  -7.155   6.743  0.00  0.00    +0.078 C 
ATOM     22  C   UNL     1     -10.072  -6.975   6.156  0.00  0.00    +0.032 C 
ATOM     23  C   UNL     1      -8.415  -6.162   7.874  0.00  0.00    +0.032 C 
ATOM     25  C   UNL     1     -11.165  -6.948   7.223  0.00  0.00    +0.108 C 
ATOM     26  C   UNL     1      -9.536  -6.120   8.916  0.00  0.00    +0.108 C 
ATOM     28  C   UNL     1     -11.907  -5.412   8.984  0.00  0.00    +0.218 A 
ATOM     34  C   UNL     1     -12.722  -4.504  10.930  0.00  0.00    +0.149 A 
ATOM     35  C   UNL     1     -14.106  -4.749   9.064  0.00  0.00    +0.116 A 
ATOM     36  C   UNL     1     -13.974  -4.335  10.373  0.00  0.00    +0.052 A 
BRANCH  34  37
ATOM      2  F   UNL     1     -13.630  -3.829  13.038  0.00  0.00    -0.164 F 
ATOM      3  F   UNL     1     -11.818  -5.020  13.083  0.00  0.00    -0.164 F 
ATOM      4  F   UNL     1     -11.737  -2.946  12.432  0.00  0.00    -0.164 F 
ATOM     37  C   UNL     1     -12.483  -4.085  12.342  0.00  0.00    +0.434 C 
ENDBRANCH  34  37
ENDBRANCH  24  19
BRANCH   9  14
ATOM      5  O   UNL     1      -8.143  -9.772  12.976  0.00  0.00    -0.273 OA
ATOM      6  O   UNL     1      -3.587 -10.194  12.186  0.00  0.00    -0.252 OA
ATOM      8  N   UNL     1      -5.391  -9.476  10.914  0.00  0.00    -0.273 N 
ATOM     10  N   UNL     1      -5.797 -10.090  13.029  0.00  0.00    -0.193 N 
ATOM     14  C   UNL     1      -6.983 -10.000   8.595  0.00  0.00    +0.077 C 
ATOM     15  C   UNL     1      -6.814  -9.318  11.033  0.00  0.00    +0.166 C 
ATOM     16  C   UNL     1      -7.546 -10.188  10.015  0.00  0.00    +0.054 C 
ATOM     17  C   UNL     1      -5.453 -10.157   8.571  0.00  0.00    +0.041 C 
ATOM     18  C   UNL     1      -4.761  -9.284   9.620  0.00  0.00    +0.112 C 
ATOM     20  C   UNL     1      -7.029  -9.767  12.468  0.00  0.00    +0.248 C 
ATOM     21  C   UNL     1      -4.780  -9.936  12.082  0.00  0.00    +0.316 C 
BRANCH  10  27
ATOM      1 CL   UNL     1      -4.978 -11.958  18.615  0.00  0.00    -0.084 Cl
ATOM     27  C   UNL     1      -5.600 -10.539  14.374  0.00  0.00    +0.046 A 
ATOM     29  C   UNL     1      -5.279 -11.876  14.627  0.00  0.00    +0.025 A 
ATOM     30  C   UNL     1      -5.729  -9.645  15.440  0.00  0.00    +0.025 A 
ATOM     31  C   UNL     1      -5.087 -12.313  15.938  0.00  0.00    +0.022 A 
ATOM     32  C   UNL     1      -5.536 -10.083  16.750  0.00  0.00    +0.022 A 
ATOM     33  C   UNL     1      -5.215 -11.417  16.999  0.00  0.00    +0.041 A 
ENDBRANCH  10  27
ENDBRANCH   9  14
TORSDOF 4
ENDMDL
MODEL 3
REMARK VINA RESULT:      -7.4      1.608      2.624
REMARK  Name = 7134558
REMARK  4 active torsions:
REMARK  status: ('A' for Active; 'I' for Inactive)
REMARK    1  A    between atoms: N_9  and  C_14
REMARK    2  A    between atoms: N_10  and  C_27
REMARK    3  A    between atoms: C_19  and  C_24
REMARK    4  A    between atoms: C_34  and  C_37
REMARK                            x       y       z     vdW  Elec       q    Type
REMARK                         _______ _______ _______ _____ _____    ______ ____
ROOT
ATOM      7  O   UNL     1     -12.058  -9.623  15.122  0.00  0.00    -0.276 OA
ATOM      9  N   UNL     1     -12.137  -7.355  14.672  0.00  0.00    -0.312 N 
ATOM     24  C   UNL     1     -11.947  -8.452  15.499  0.00  0.00    +0.216 C 
ATOM     38  H   UNL     1     -12.034  -6.422  15.058  0.00  0.00    +0.149 HD
ENDROOT
BRANCH  24  19
ATOM     11  N   UNL     1      -9.486  -9.828  17.864  0.00  0.00    -0.300 N 
ATOM     12  N   UNL     1      -7.219 -10.485  17.889  0.00  0.00    -0.210 NA
ATOM     13  N   UNL     1      -8.862 -11.685  19.181  0.00  0.00    -0.223 NA
ATOM     19  C   UNL     1     -11.599  -8.080  16.911  0.00  0.00    +0.078 C 
ATOM     22  C   UNL     1     -11.878  -9.246  17.857  0.00  0.00    +0.032 C 
ATOM     23  C   UNL     1     -10.151  -7.608  17.024  0.00  0.00    +0.032 C 
ATOM     25  C   UNL     1     -10.846 -10.366  17.739  0.00  0.00    +0.108 C 
ATOM     26  C   UNL     1      -9.131  -8.746  16.942  0.00  0.00    +0.108 C 
ATOM     28  C   UNL     1      -8.489 -10.695  18.327  0.00  0.00    +0.218 A 
ATOM     34  C   UNL     1      -6.284 -11.338  18.356  0.00  0.00    +0.149 A 
ATOM     35  C   UNL     1      -7.876 -12.501  19.608  0.00  0.00    +0.116 A 
ATOM     36  C   UNL     1      -6.557 -12.374  19.226  0.00  0.00    +0.052 A 
BRANCH  34  37
ATOM      2  F   UNL     1      -3.947 -11.296  18.864  0.00  0.00    -0.164 F 
ATOM      3  F   UNL     1      -4.511 -11.965  16.879  0.00  0.00    -0.164 F 
ATOM      4  F   UNL     1      -4.682  -9.861  17.404  0.00  0.00    -0.164 F 
ATOM     37  C   UNL     1      -4.885 -11.121  17.886  0.00  0.00    +0.434 C 
ENDBRANCH  34  37
ENDBRANCH  24  19
BRANCH   9  14
ATOM      5  O   UNL     1     -12.226  -3.233  11.664  0.00  0.00    -0.273 OA
ATOM      6  O   UNL     1     -16.468  -5.115  11.518  0.00  0.00    -0.252 OA
ATOM      8  N   UNL     1     -14.545  -5.552  12.742  0.00  0.00    -0.273 N 
ATOM     10  N   UNL     1     -14.488  -3.835  11.304  0.00  0.00    -0.193 N 
ATOM     14  C   UNL     1     -12.487  -7.467  13.275  0.00  0.00    +0.077 C 
ATOM     15  C   UNL     1     -13.198  -5.067  12.865  0.00  0.00    +0.166 C 
ATOM     16  C   UNL     1     -12.191  -6.160  12.519  0.00  0.00    +0.054 C 
ATOM     17  C   UNL     1     -13.957  -7.892  13.110  0.00  0.00    +0.041 C 
ATOM     18  C   UNL     1     -14.931  -6.761  13.447  0.00  0.00    +0.112 C 
ATOM     20  C   UNL     1     -13.215  -3.929  11.859  0.00  0.00    +0.248 C 
ATOM     21  C   UNL     1     -15.314  -4.838  11.821  0.00  0.00    +0.316 C 
BRANCH  10  27
ATOM      1 CL   UNL     1     -16.151   0.178   7.244  0.00  0.00    -0.084 Cl
ATOM     27  C   UNL     1     -14.888  -2.870  10.327  0.00  0.00    +0.046 A 
ATOM     29  C   UNL     1     -15.770  -1.842  10.675  0.00  0.00    +0.025 A 
ATOM     30  C   UNL     1     -14.401  -2.949   9.019  0.00  0.00    +0.025 A 
ATOM     31  C   UNL     1     -16.159  -0.901   9.722  0.00  0.00    +0.022 A 
ATOM     32  C   UNL     1     -14.791  -2.008   8.067  0.00  0.00    +0.022 A 
ATOM     33  C   UNL     1     -15.670  -0.984   8.419  0.00  0.00    +0.041 A 
ENDBRANCH  10  27
ENDBRANCH   9  14
TORSDOF 4
ENDMDL
MODEL 4
REMARK VINA RESULT:      -7.3      7.322     10.475
REMARK  Name = 7134558
REMARK  4 active torsions:
REMARK  status: ('A' for Active; 'I' for Inactive)
REMARK    1  A    between atoms: N_9  and  C_14
REMARK    2  A    between atoms: N_10  and  C_27
REMARK    3  A    between atoms: C_19  and  C_24
REMARK    4  A    between atoms: C_34  and  C_37
REMARK                            x       y       z     vdW  Elec       q    Type
REMARK                         _______ _______ _______ _____ _____    ______ ____
ROOT
ATOM      7  O   UNL     1      -3.451 -14.142  14.503  0.00  0.00    -0.276 OA
ATOM      9  N   UNL     1      -3.867 -12.339  15.892  0.00  0.00    -0.312 N 
ATOM     24  C   UNL     1      -3.277 -12.956  14.798  0.00  0.00    +0.216 C 
ATOM     38  H   UNL     1      -3.669 -11.361  16.074  0.00  0.00    +0.149 HD
ENDROOT
BRANCH  24  19
ATOM     11  N   UNL     1      -3.759 -11.271  11.563  0.00  0.00    -0.300 N 
ATOM     12  N   UNL     1      -5.411 -10.009  10.445  0.00  0.00    -0.210 NA
ATOM     13  N   UNL     1      -4.002 -11.541   9.231  0.00  0.00    -0.223 NA
ATOM     19  C   UNL     1      -2.391 -12.040  14.005  0.00  0.00    +0.078 C 
ATOM     22  C   UNL     1      -2.047 -12.663  12.654  0.00  0.00    +0.032 C 
ATOM     23  C   UNL     1      -3.023 -10.660  13.835  0.00  0.00    +0.032 C 
ATOM     25  C   UNL     1      -3.216 -12.630  11.670  0.00  0.00    +0.108 C 
ATOM     26  C   UNL     1      -4.168 -10.635  12.819  0.00  0.00    +0.108 C 
ATOM     28  C   UNL     1      -4.412 -10.928  10.373  0.00  0.00    +0.218 A 
ATOM     34  C   UNL     1      -6.018  -9.703   9.280  0.00  0.00    +0.149 A 
ATOM     35  C   UNL     1      -4.653 -11.188   8.103  0.00  0.00    +0.116 A 
ATOM     36  C   UNL     1      -5.678 -10.266   8.066  0.00  0.00    +0.052 A 
BRANCH  34  37
ATOM      2  F   UNL     1      -8.217  -9.040   8.609  0.00  0.00    -0.164 F 
ATOM      3  F   UNL     1      -7.582  -8.470  10.604  0.00  0.00    -0.164 F 
ATOM      4  F   UNL     1      -6.732  -7.472   8.868  0.00  0.00    -0.164 F 
ATOM     37  C   UNL     1      -7.116  -8.694   9.339  0.00  0.00    +0.434 C 
ENDBRANCH  34  37
ENDBRANCH  24  19
BRANCH   9  14
ATOM      5  O   UNL     1      -8.883 -11.401  15.866  0.00  0.00    -0.273 OA
ATOM      6  O   UNL     1      -7.345 -10.459  20.145  0.00  0.00    -0.252 OA
ATOM      8  N   UNL     1      -6.317 -11.042  18.148  0.00  0.00    -0.273 N 
ATOM     10  N   UNL     1      -8.545 -10.806  18.133  0.00  0.00    -0.193 N 
ATOM     14  C   UNL     1      -4.751 -13.025  16.806  0.00  0.00    +0.077 C 
ATOM     15  C   UNL     1      -6.672 -11.368  16.794  0.00  0.00    +0.166 C 
ATOM     16  C   UNL     1      -6.226 -12.784  16.440  0.00  0.00    +0.054 C 
ATOM     17  C   UNL     1      -4.459 -12.620  18.261  0.00  0.00    +0.041 C 
ATOM     18  C   UNL     1      -4.940 -11.203  18.579  0.00  0.00    +0.112 C 
ATOM     20  C   UNL     1      -8.181 -11.213  16.853  0.00  0.00    +0.248 C 
ATOM     21  C   UNL     1      -7.412 -10.714  18.949  0.00  0.00    +0.316 C 
BRANCH  10  27
ATOM      1 CL   UNL     1     -14.111  -9.715  19.916  0.00  0.00    -0.084 Cl
ATOM     27  C   UNL     1      -9.884 -10.543  18.562  0.00  0.00    +0.046 A 
ATOM     29  C   UNL     1     -10.631  -9.530  17.954  0.00  0.00    +0.025 A 
ATOM     30  C   UNL     1     -10.453 -11.298  19.592  0.00  0.00    +0.025 A 
ATOM     31  C   UNL     1     -11.937  -9.275  18.373  0.00  0.00    +0.022 A 
ATOM     32  C   UNL     1     -11.758 -11.042  20.010  0.00  0.00    +0.022 A 
ATOM     33  C   UNL     1     -12.501 -10.030  19.400  0.00  0.00    +0.041 A 
ENDBRANCH  10  27
ENDBRANCH   9  14
TORSDOF 4
ENDMDL
MODEL 5
REMARK VINA RESULT:      -7.2      6.689      8.251
REMARK  Name = 7134558
REMARK  4 active torsions:
REMARK  status: ('A' for Active; 'I' for Inactive)
REMARK    1  A    between atoms: N_9  and  C_14
REMARK    2  A    between atoms: N_10  and  C_27
REMARK    3  A    between atoms: C_19  and  C_24
REMARK    4  A    between atoms: C_34  and  C_37
REMARK                            x       y       z     vdW  Elec       q    Type
REMARK                         _______ _______ _______ _____ _____    ______ ____
ROOT
ATOM      7  O   UNL     1      -3.630 -12.579  15.531  0.00  0.00    -0.276 OA
ATOM      9  N   UNL     1      -4.333 -10.785  14.250  0.00  0.00    -0.312 N 
ATOM     24  C   UNL     1      -4.003 -11.405  15.447  0.00  0.00    +0.216 C 
ATOM     38  H   UNL     1      -4.638  -9.817  14.263  0.00  0.00    +0.149 HD
ENDROOT
BRANCH  24  19
ATOM     11  N   UNL     1      -6.718 -11.015  17.899  0.00  0.00    -0.300 N 
ATOM     12  N   UNL     1      -8.123 -12.370  19.226  0.00  0.00    -0.210 NA
ATOM     13  N   UNL     1      -8.944 -10.319  18.262  0.00  0.00    -0.223 NA
ATOM     19  C   UNL     1      -4.151 -10.509  16.641  0.00  0.00    +0.078 C 
ATOM     22  C   UNL     1      -5.340  -9.567  16.462  0.00  0.00    +0.032 C 
ATOM     23  C   UNL     1      -4.272 -11.315  17.933  0.00  0.00    +0.032 C 
ATOM     25  C   UNL     1      -6.685 -10.270  16.634  0.00  0.00    +0.108 C 
ATOM     26  C   UNL     1      -5.638 -11.982  18.110  0.00  0.00    +0.108 C 
ATOM     28  C   UNL     1      -7.970 -11.242  18.482  0.00  0.00    +0.218 A 
ATOM     34  C   UNL     1      -9.342 -12.557  19.773  0.00  0.00    +0.149 A 
ATOM     35  C   UNL     1     -10.138 -10.570  18.838  0.00  0.00    +0.116 A 
ATOM     36  C   UNL     1     -10.398 -11.682  19.612  0.00  0.00    +0.052 A 
BRANCH  34  37
ATOM      2  F   UNL     1      -9.917 -14.877  19.866  0.00  0.00    -0.164 F 
ATOM      3  F   UNL     1      -8.395 -14.184  21.248  0.00  0.00    -0.164 F 
ATOM      4  F   UNL     1     -10.477 -13.637  21.562  0.00  0.00    -0.164 F 
ATOM     37  C   UNL     1      -9.528 -13.789  20.593  0.00  0.00    +0.434 C 
ENDBRANCH  34  37
ENDBRANCH  24  19
BRANCH   9  14
ATOM      5  O   UNL     1      -4.627  -8.126   9.904  0.00  0.00    -0.273 OA
ATOM      6  O   UNL     1      -8.115 -11.191   9.862  0.00  0.00    -0.252 OA
ATOM      8  N   UNL     1      -6.523 -10.572  11.434  0.00  0.00    -0.273 N 
ATOM     10  N   UNL     1      -6.510  -9.495   9.470  0.00  0.00    -0.193 N 
ATOM     14  C   UNL     1      -4.276 -11.453  12.970  0.00  0.00    +0.077 C 
ATOM     15  C   UNL     1      -5.409  -9.674  11.561  0.00  0.00    +0.166 C 
ATOM     16  C   UNL     1      -4.116 -10.442  11.821  0.00  0.00    +0.054 C 
ATOM     17  C   UNL     1      -5.509 -12.350  12.764  0.00  0.00    +0.041 C 
ATOM     18  C   UNL     1      -6.778 -11.541  12.486  0.00  0.00    +0.112 C 
ATOM     20  C   UNL     1      -5.438  -8.995  10.203  0.00  0.00    +0.248 C 
ATOM     21  C   UNL     1      -7.177 -10.481  10.204  0.00  0.00    +0.316 C 
BRANCH  10  27
ATOM      1 CL   UNL     1      -7.985  -7.777   3.972  0.00  0.00    -0.084 Cl
ATOM     27  C   UNL     1      -6.865  -9.081   8.147  0.00  0.00    +0.046 A 
ATOM     29  C   UNL     1      -6.329  -9.742   7.037  0.00  0.00    +0.025 A 
ATOM     30  C   UNL     1      -7.748  -8.015   7.957  0.00  0.00    +0.025 A 
ATOM     31  C   UNL     1      -6.677  -9.338   5.747  0.00  0.00    +0.022 A 
ATOM     32  C   UNL     1      -8.094  -7.612   6.668  0.00  0.00    +0.022 A 
ATOM     33  C   UNL     1      -7.558  -8.274   5.563  0.00  0.00    +0.041 A 
ENDBRANCH  10  27
ENDBRANCH   9  14
TORSDOF 4
ENDMDL
MODEL 6
REMARK VINA RESULT:      -7.1      6.812     10.709
REMARK  Name = 7134558
REMARK  4 active torsions:
REMARK  status: ('A' for Active; 'I' for Inactive)
REMARK    1  A    between atoms: N_9  and  C_14
REMARK    2  A    between atoms: N_10  and  C_27
REMARK    3  A    between atoms: C_19  and  C_24
REMARK    4  A    between atoms: C_34  and  C_37
REMARK                            x       y       z     vdW  Elec       q    Type
REMARK                         _______ _______ _______ _____ _____    ______ ____
ROOT
ATOM      7  O   UNL     1      -5.252 -12.182  10.301  0.00  0.00    -0.276 OA
ATOM      9  N   UNL     1      -4.623 -10.907  12.127  0.00  0.00    -0.312 N 
ATOM     24  C   UNL     1      -4.736 -11.161  10.768  0.00  0.00    +0.216 C 
ATOM     38  H   UNL     1      -4.180 -10.047  12.434  0.00  0.00    +0.149 HD
ENDROOT
BRANCH  24  19
ATOM     11  N   UNL     1      -6.316  -8.732   8.500  0.00  0.00    -0.300 N 
ATOM     12  N   UNL     1      -8.146  -7.242   8.486  0.00  0.00    -0.210 NA
ATOM     13  N   UNL     1      -7.504  -8.420   6.484  0.00  0.00    -0.223 NA
ATOM     19  C   UNL     1      -4.161 -10.073   9.909  0.00  0.00    +0.078 C 
ATOM     22  C   UNL     1      -4.454 -10.342   8.435  0.00  0.00    +0.032 C 
ATOM     23  C   UNL     1      -4.670  -8.698  10.334  0.00  0.00    +0.032 C 
ATOM     25  C   UNL     1      -5.911 -10.073   8.060  0.00  0.00    +0.108 C 
ATOM     26  C   UNL     1      -6.118  -8.428   9.920  0.00  0.00    +0.108 C 
ATOM     28  C   UNL     1      -7.356  -8.110   7.800  0.00  0.00    +0.218 A 
ATOM     34  C   UNL     1      -9.138  -6.661   7.781  0.00  0.00    +0.149 A 
ATOM     35  C   UNL     1      -8.516  -7.803   5.840  0.00  0.00    +0.116 A 
ATOM     36  C   UNL     1      -9.373  -6.905   6.443  0.00  0.00    +0.052 A 
BRANCH  34  37
ATOM      2  F   UNL     1     -11.106  -5.301   7.804  0.00  0.00    -0.164 F 
ATOM      3  F   UNL     1     -10.517  -6.211   9.682  0.00  0.00    -0.164 F 
ATOM      4  F   UNL     1      -9.361  -4.558   8.868  0.00  0.00    -0.164 F 
ATOM     37  C   UNL     1     -10.014  -5.704   8.518  0.00  0.00    +0.434 C 
ENDBRANCH  34  37
ENDBRANCH  24  19
BRANCH   9  14
ATOM      5  O   UNL     1      -9.253 -10.324  14.192  0.00  0.00    -0.273 OA
ATOM      6  O   UNL     1      -6.180 -10.132  17.667  0.00  0.00    -0.252 OA
ATOM      8  N   UNL     1      -6.005 -10.243  15.356  0.00  0.00    -0.273 N 
ATOM     10  N   UNL     1      -8.064 -10.161  16.233  0.00  0.00    -0.193 N 
ATOM     14  C   UNL     1      -5.098 -11.816  13.145  0.00  0.00    +0.077 C 
ATOM     15  C   UNL     1      -6.855 -10.322  14.201  0.00  0.00    +0.166 C 
ATOM     16  C   UNL     1      -6.597 -11.609  13.421  0.00  0.00    +0.054 C 
ATOM     17  C   UNL     1      -4.265 -11.684  14.431  0.00  0.00    +0.041 C 
ATOM     18  C   UNL     1      -4.569 -10.391  15.192  0.00  0.00    +0.112 C 
ATOM     20  C   UNL     1      -8.225 -10.285  14.856  0.00  0.00    +0.248 C 
ATOM     21  C   UNL     1      -6.704 -10.153  16.561  0.00  0.00    +0.316 C 
BRANCH  10  27
ATOM      1 CL   UNL     1     -12.507  -9.818  20.170  0.00  0.00    -0.084 Cl
ATOM     27  C   UNL     1      -9.133 -10.078  17.181  0.00  0.00    +0.046 A 
ATOM     29  C   UNL     1      -9.921  -8.926  17.252  0.00  0.00    +0.025 A 
ATOM     30  C   UNL     1      -9.394 -11.149  18.040  0.00  0.00    +0.025 A 
ATOM     31  C   UNL     1     -10.963  -8.846  18.176  0.00  0.00    +0.022 A 
ATOM     32  C   UNL     1     -10.437 -11.069  18.963  0.00  0.00    +0.022 A 
ATOM     33  C   UNL     1     -11.221  -9.917  19.031  0.00  0.00    +0.041 A 
ENDBRANCH  10  27
ENDBRANCH   9  14
TORSDOF 4
ENDMDL
MODEL 7
REMARK VINA RESULT:      -7.0     28.201     30.403
REMARK  Name = 7134558
REMARK  4 active torsions:
REMARK  status: ('A' for Active; 'I' for Inactive)
REMARK    1  A    between atoms: N_9  and  C_14
REMARK    2  A    between atoms: N_10  and  C_27
REMARK    3  A    between atoms: C_19  and  C_24
REMARK    4  A    between atoms: C_34  and  C_37
REMARK                            x       y       z     vdW  Elec       q    Type
REMARK                         _______ _______ _______ _____ _____    ______ ____
ROOT
ATOM      7  O   UNL     1       8.305   5.843   5.463  0.00  0.00    -0.276 OA
ATOM      9  N   UNL     1      10.481   5.358   4.845  0.00  0.00    -0.312 N 
ATOM     24  C   UNL     1       9.489   5.666   5.765  0.00  0.00    +0.216 C 
ATOM     38  H   UNL     1      11.434   5.234   5.169  0.00  0.00    +0.149 HD
ENDROOT
BRANCH  24  19
ATOM     11  N   UNL     1      10.370   8.576   7.838  0.00  0.00    -0.300 N 
ATOM     12  N   UNL     1       9.483  10.687   8.408  0.00  0.00    -0.210 NA
ATOM     13  N   UNL     1      11.859  10.381   8.147  0.00  0.00    -0.223 NA
ATOM     19  C   UNL     1       9.997   5.775   7.173  0.00  0.00    +0.078 C 
ATOM     22  C   UNL     1      11.379   6.424   7.197  0.00  0.00    +0.032 C 
ATOM     23  C   UNL     1       9.014   6.530   8.065  0.00  0.00    +0.032 C 
ATOM     25  C   UNL     1      11.333   7.929   6.938  0.00  0.00    +0.108 C 
ATOM     26  C   UNL     1       9.006   8.041   7.821  0.00  0.00    +0.108 C 
ATOM     28  C   UNL     1      10.578   9.927   8.142  0.00  0.00    +0.218 A 
ATOM     34  C   UNL     1       9.719  11.984   8.696  0.00  0.00    +0.149 A 
ATOM     35  C   UNL     1      12.022  11.688   8.444  0.00  0.00    +0.116 A 
ATOM     36  C   UNL     1      10.980  12.545   8.729  0.00  0.00    +0.052 A 
BRANCH  34  37
ATOM      2  F   UNL     1       8.847  14.085   9.437  0.00  0.00    -0.164 F 
ATOM      3  F   UNL     1       7.720  13.034   7.910  0.00  0.00    -0.164 F 
ATOM      4  F   UNL     1       7.726  12.295   9.955  0.00  0.00    -0.164 F 
ATOM     37  C   UNL     1       8.529  12.833   8.992  0.00  0.00    +0.434 C 
ENDBRANCH  34  37
ENDBRANCH  24  19
BRANCH   9  14
ATOM      5  O   UNL     1      14.047   3.424   1.749  0.00  0.00    -0.273 OA
ATOM      6  O   UNL     1      13.011   7.659   0.152  0.00  0.00    -0.252 OA
ATOM      8  N   UNL     1      12.402   6.446   2.034  0.00  0.00    -0.273 N 
ATOM     10  N   UNL     1      13.842   5.490   0.609  0.00  0.00    -0.193 N 
ATOM     14  C   UNL     1      10.230   5.213   3.429  0.00  0.00    +0.077 C 
ATOM     15  C   UNL     1      12.634   5.155   2.620  0.00  0.00    +0.166 C 
ATOM     16  C   UNL     1      11.329   4.374   2.752  0.00  0.00    +0.054 C 
ATOM     17  C   UNL     1      10.075   6.587   2.755  0.00  0.00    +0.041 C 
ATOM     18  C   UNL     1      11.408   7.325   2.624  0.00  0.00    +0.112 C 
ATOM     20  C   UNL     1      13.590   4.552   1.606  0.00  0.00    +0.248 C 
ATOM     21  C   UNL     1      13.104   6.654   0.845  0.00  0.00    +0.316 C 
BRANCH  10  27
ATOM      1 CL   UNL     1      17.447   4.642  -4.043  0.00  0.00    -0.084 Cl
ATOM     27  C   UNL     1      14.709   5.285  -0.510  0.00  0.00    +0.046 A 
ATOM     29  C   UNL     1      14.175   5.002  -1.771  0.00  0.00    +0.025 A 
ATOM     30  C   UNL     1      16.095   5.367  -0.349  0.00  0.00    +0.025 A 
ATOM     31  C   UNL     1      15.022   4.804  -2.862  0.00  0.00    +0.022 A 
ATOM     32  C   UNL     1      16.941   5.169  -1.441  0.00  0.00    +0.022 A 
ATOM     33  C   UNL     1      16.404   4.887  -2.697  0.00  0.00    +0.041 A 
ENDBRANCH  10  27
ENDBRANCH   9  14
TORSDOF 4
ENDMDL
MODEL 8
REMARK VINA RESULT:      -6.9      3.085      4.412
REMARK  Name = 7134558
REMARK  4 active torsions:
REMARK  status: ('A' for Active; 'I' for Inactive)
REMARK    1  A    between atoms: N_9  and  C_14
REMARK    2  A    between atoms: N_10  and  C_27
REMARK    3  A    between atoms: C_19  and  C_24
REMARK    4  A    between atoms: C_34  and  C_37
REMARK                            x       y       z     vdW  Elec       q    Type
REMARK                         _______ _______ _______ _____ _____    ______ ____
ROOT
ATOM      7  O   UNL     1     -15.748 -11.491  18.671  0.00  0.00    -0.276 OA
ATOM      9  N   UNL     1     -14.281  -9.855  17.944  0.00  0.00    -0.312 N 
ATOM     24  C   UNL     1     -14.822 -10.705  18.898  0.00  0.00    +0.216 C 
ATOM     38  H   UNL     1     -13.525  -9.232  18.210  0.00  0.00    +0.149 HD
ENDROOT
BRANCH  24  19
ATOM     11  N   UNL     1     -11.389 -11.351  20.053  0.00  0.00    -0.300 N 
ATOM     12  N   UNL     1      -9.173 -10.898  19.381  0.00  0.00    -0.210 NA
ATOM     13  N   UNL     1      -9.731 -12.984  20.450  0.00  0.00    -0.223 NA
ATOM     19  C   UNL     1     -14.179 -10.572  20.247  0.00  0.00    +0.078 C 
ATOM     22  C   UNL     1     -13.681 -11.929  20.740  0.00  0.00    +0.032 C 
ATOM     23  C   UNL     1     -13.053  -9.541  20.230  0.00  0.00    +0.032 C 
ATOM     25  C   UNL     1     -12.419 -12.397  20.018  0.00  0.00    +0.108 C 
ATOM     26  C   UNL     1     -11.782 -10.037  19.536  0.00  0.00    +0.108 C 
ATOM     28  C   UNL     1     -10.053 -11.758  19.958  0.00  0.00    +0.218 A 
ATOM     34  C   UNL     1      -7.894 -11.322  19.307  0.00  0.00    +0.149 A 
ATOM     35  C   UNL     1      -8.435 -13.344  20.343  0.00  0.00    +0.116 A 
ATOM     36  C   UNL     1      -7.463 -12.547  19.776  0.00  0.00    +0.052 A 
BRANCH  34  37
ATOM      2  F   UNL     1      -6.161 -10.971  17.696  0.00  0.00    -0.164 F 
ATOM      3  F   UNL     1      -7.495  -9.306  18.084  0.00  0.00    -0.164 F 
ATOM      4  F   UNL     1      -6.019  -9.884  19.573  0.00  0.00    -0.164 F 
ATOM     37  C   UNL     1      -6.914 -10.391  18.676  0.00  0.00    +0.434 C 
ENDBRANCH  34  37
ENDBRANCH  24  19
BRANCH   9  14
ATOM      5  O   UNL     1     -11.362  -7.841  14.275  0.00  0.00    -0.273 OA
ATOM      6  O   UNL     1     -15.331  -5.433  14.330  0.00  0.00    -0.252 OA
ATOM      8  N   UNL     1     -14.435  -7.106  15.665  0.00  0.00    -0.273 N 
ATOM     10  N   UNL     1     -13.188  -6.367  13.958  0.00  0.00    -0.193 N 
ATOM     14  C   UNL     1     -14.746  -9.800  16.578  0.00  0.00    +0.077 C 
ATOM     15  C   UNL     1     -13.256  -7.924  15.743  0.00  0.00    +0.166 C 
ATOM     16  C   UNL     1     -13.610  -9.403  15.618  0.00  0.00    +0.054 C 
ATOM     17  C   UNL     1     -15.951  -8.852  16.445  0.00  0.00    +0.041 C 
ATOM     18  C   UNL     1     -15.549  -7.380  16.556  0.00  0.00    +0.112 C 
ATOM     20  C   UNL     1     -12.468  -7.396  14.558  0.00  0.00    +0.248 C 
ATOM     21  C   UNL     1     -14.410  -6.187  14.614  0.00  0.00    +0.316 C 
BRANCH  10  27
ATOM      1 CL   UNL     1     -11.387  -3.250   9.225  0.00  0.00    -0.084 Cl
ATOM     27  C   UNL     1     -12.755  -5.617  12.819  0.00  0.00    +0.046 A 
ATOM     29  C   UNL     1     -12.380  -4.277  12.961  0.00  0.00    +0.025 A 
ATOM     30  C   UNL     1     -12.704  -6.219  11.559  0.00  0.00    +0.025 A 
ATOM     31  C   UNL     1     -11.957  -3.547  11.850  0.00  0.00    +0.022 A 
ATOM     32  C   UNL     1     -12.282  -5.488  10.449  0.00  0.00    +0.022 A 
ATOM     33  C   UNL     1     -11.908  -4.152  10.594  0.00  0.00    +0.041 A 
ENDBRANCH  10  27
ENDBRANCH   9  14
TORSDOF 4
ENDMDL
MODEL 9
REMARK VINA RESULT:      -6.9     32.074     34.950
REMARK  Name = 7134558
REMARK  4 active torsions:
REMARK  status: ('A' for Active; 'I' for Inactive)
REMARK    1  A    between atoms: N_9  and  C_14
REMARK    2  A    between atoms: N_10  and  C_27
REMARK    3  A    between atoms: C_19  and  C_24
REMARK    4  A    between atoms: C_34  and  C_37
REMARK                            x       y       z     vdW  Elec       q    Type
REMARK                         _______ _______ _______ _____ _____    ______ ____
ROOT
ATOM      7  O   UNL     1      22.541  -6.034  -1.391  0.00  0.00    -0.276 OA
ATOM      9  N   UNL     1      20.886  -6.784   0.042  0.00  0.00    -0.312 N 
ATOM     24  C   UNL     1      21.508  -5.827  -0.748  0.00  0.00    +0.216 C 
ATOM     38  H   UNL     1      20.042  -6.535   0.547  0.00  0.00    +0.149 HD
ENDROOT
BRANCH  24  19
ATOM     11  N   UNL     1      18.600  -4.582  -2.628  0.00  0.00    -0.300 N 
ATOM     12  N   UNL     1      16.429  -5.292  -3.221  0.00  0.00    -0.210 NA
ATOM     13  N   UNL     1      17.751  -3.974  -4.745  0.00  0.00    -0.223 NA
ATOM     19  C   UNL     1      20.805  -4.501  -0.740  0.00  0.00    +0.078 C 
ATOM     22  C   UNL     1      20.891  -3.840  -2.114  0.00  0.00    +0.032 C 
ATOM     23  C   UNL     1      19.355  -4.640  -0.282  0.00  0.00    +0.032 C 
ATOM     25  C   UNL     1      19.971  -4.492  -3.146  0.00  0.00    +0.108 C 
ATOM     26  C   UNL     1      18.437  -5.260  -1.339  0.00  0.00    +0.108 C 
ATOM     28  C   UNL     1      17.558  -4.617  -3.563  0.00  0.00    +0.218 A 
ATOM     34  C   UNL     1      15.446  -5.306  -4.144  0.00  0.00    +0.149 A 
ATOM     35  C   UNL     1      16.727  -4.029  -5.622  0.00  0.00    +0.116 A 
ATOM     36  C   UNL     1      15.540  -4.685  -5.374  0.00  0.00    +0.052 A 
BRANCH  34  37
ATOM      2  F   UNL     1      14.428  -7.260  -3.213  0.00  0.00    -0.164 F 
ATOM      3  F   UNL     1      13.407  -5.373  -2.896  0.00  0.00    -0.164 F 
ATOM      4  F   UNL     1      13.405  -6.288  -4.868  0.00  0.00    -0.164 F 
ATOM     37  C   UNL     1      14.199  -6.042  -3.786  0.00  0.00    +0.434 C 
ENDBRANCH  34  37
ENDBRANCH  24  19
BRANCH   9  14
ATOM      5  O   UNL     1      18.657 -10.689  -2.371  0.00  0.00    -0.273 OA
ATOM      6  O   UNL     1      18.511 -11.636   2.172  0.00  0.00    -0.252 OA
ATOM      8  N   UNL     1      19.178  -9.797   0.923  0.00  0.00    -0.273 N 
ATOM     10  N   UNL     1      18.362 -11.561  -0.190  0.00  0.00    -0.193 N 
ATOM     14  C   UNL     1      21.387  -8.130   0.196  0.00  0.00    +0.077 C 
ATOM     15  C   UNL     1      19.286  -9.395  -0.453  0.00  0.00    +0.166 C 
ATOM     16  C   UNL     1      20.735  -9.086  -0.818  0.00  0.00    +0.054 C 
ATOM     17  C   UNL     1      21.195  -8.625   1.640  0.00  0.00    +0.041 C 
ATOM     18  C   UNL     1      19.732  -8.942   1.958  0.00  0.00    +0.112 C 
ATOM     20  C   UNL     1      18.743 -10.630  -1.151  0.00  0.00    +0.248 C 
ATOM     21  C   UNL     1      18.640 -11.074   1.091  0.00  0.00    +0.316 C 
BRANCH  10  27
ATOM      1 CL   UNL     1      15.989 -16.888  -1.355  0.00  0.00    -0.084 Cl
ATOM     27  C   UNL     1      17.791 -12.843  -0.470  0.00  0.00    +0.046 A 
ATOM     29  C   UNL     1      16.479 -13.128  -0.080  0.00  0.00    +0.025 A 
ATOM     30  C   UNL     1      18.542 -13.817  -1.134  0.00  0.00    +0.025 A 
ATOM     31  C   UNL     1      15.923 -14.378  -0.354  0.00  0.00    +0.022 A 
ATOM     32  C   UNL     1      17.985 -15.066  -1.408  0.00  0.00    +0.022 A 
ATOM     33  C   UNL     1      16.676 -15.347  -1.018  0.00  0.00    +0.041 A 
ENDBRANCH  10  27
ENDBRANCH   9  14
TORSDOF 4
ENDMDL
MODEL 10
REMARK VINA RESULT:      -6.8     29.233     32.306
REMARK  Name = 7134558
REMARK  4 active torsions:
REMARK  status: ('A' for Active; 'I' for Inactive)
REMARK    1  A    between atoms: N_9  and  C_14
REMARK    2  A    between atoms: N_10  and  C_27
REMARK    3  A    between atoms: C_19  and  C_24
REMARK    4  A    between atoms: C_34  and  C_37
REMARK                            x       y       z     vdW  Elec       q    Type
REMARK                         _______ _______ _______ _____ _____    ______ ____
ROOT
ATOM      7  O   UNL     1      16.936  12.188  11.546  0.00  0.00    -0.276 OA
ATOM      9  N   UNL     1      15.532  12.536  13.352  0.00  0.00    -0.312 N 
ATOM     24  C   UNL     1      15.973  12.767  12.057  0.00  0.00    +0.216 C 
ATOM     38  H   UNL     1      14.736  13.058  13.703  0.00  0.00    +0.149 HD
ENDROOT
BRANCH  24  19
ATOM     11  N   UNL     1      13.593  12.512   9.262  0.00  0.00    -0.300 N 
ATOM     12  N   UNL     1      11.753  11.185   8.610  0.00  0.00    -0.210 NA
ATOM     13  N   UNL     1      13.308  12.023   6.971  0.00  0.00    -0.223 NA
ATOM     19  C   UNL     1      15.167  13.805  11.331  0.00  0.00    +0.078 C 
ATOM     22  C   UNL     1      15.566  13.859   9.857  0.00  0.00    +0.032 C 
ATOM     23  C   UNL     1      13.668  13.562  11.491  0.00  0.00    +0.032 C 
ATOM     25  C   UNL     1      15.037  12.671   9.055  0.00  0.00    +0.108 C 
ATOM     26  C   UNL     1      13.147  12.392  10.653  0.00  0.00    +0.108 C 
ATOM     28  C   UNL     1      12.860  11.886   8.247  0.00  0.00    +0.218 A 
ATOM     34  C   UNL     1      11.071  10.596   7.606  0.00  0.00    +0.149 A 
ATOM     35  C   UNL     1      12.578  11.407   6.017  0.00  0.00    +0.116 A 
ATOM     36  C   UNL     1      11.440  10.673   6.279  0.00  0.00    +0.052 A 
BRANCH  34  37
ATOM      2  F   UNL     1       9.262  10.263   9.137  0.00  0.00    -0.164 F 
ATOM      3  F   UNL     1       8.865   9.862   7.043  0.00  0.00    -0.164 F 
ATOM      4  F   UNL     1      10.113   8.499   8.191  0.00  0.00    -0.164 F 
ATOM     37  C   UNL     1       9.852   9.823   7.987  0.00  0.00    +0.434 C 
ENDBRANCH  34  37
ENDBRANCH  24  19
BRANCH   9  14
ATOM      5  O   UNL     1      12.808   8.811  15.530  0.00  0.00    -0.273 OA
ATOM      6  O   UNL     1      14.710  11.290  18.964  0.00  0.00    -0.252 OA
ATOM      8  N   UNL     1      14.622  11.523  16.657  0.00  0.00    -0.273 N 
ATOM     10  N   UNL     1      13.553   9.775  17.560  0.00  0.00    -0.193 N 
ATOM     14  C   UNL     1      16.158  11.587  14.244  0.00  0.00    +0.077 C 
ATOM     15  C   UNL     1      14.094  10.835  15.511  0.00  0.00    +0.166 C 
ATOM     16  C   UNL     1      15.214  10.415  14.563  0.00  0.00    +0.054 C 
ATOM     17  C   UNL     1      16.648  12.281  15.527  0.00  0.00    +0.041 C 
ATOM     18  C   UNL     1      15.496  12.666  16.457  0.00  0.00    +0.112 C 
ATOM     20  C   UNL     1      13.406   9.658  16.181  0.00  0.00    +0.248 C 
ATOM     21  C   UNL     1      14.315  10.906  17.870  0.00  0.00    +0.316 C 
BRANCH  10  27
ATOM      1 CL   UNL     1      11.353   5.964  21.560  0.00  0.00    -0.084 Cl
ATOM     27  C   UNL     1      13.023   8.858  18.523  0.00  0.00    +0.046 A 
ATOM     29  C   UNL     1      11.815   9.137  19.169  0.00  0.00    +0.025 A 
ATOM     30  C   UNL     1      13.711   7.679  18.823  0.00  0.00    +0.025 A 
ATOM     31  C   UNL     1      11.300   8.242  20.107  0.00  0.00    +0.022 A 
ATOM     32  C   UNL     1      13.195   6.785  19.760  0.00  0.00    +0.022 A 
ATOM     33  C   UNL     1      11.989   7.067  20.403  0.00  0.00    +0.041 A 
ENDBRANCH  10  27
ENDBRANCH   9  14
TORSDOF 4
ENDMDL
