MODEL 1
REMARK VINA RESULT:      -7.9      0.000      0.000
REMARK  Name = 11911975
REMARK  4 active torsions:
REMARK  status: ('A' for Active; 'I' for Inactive)
REMARK    1  A    between atoms: N_3  and  C_13
REMARK    2  A    between atoms: C_13  and  C_18
REMARK    3  A    between atoms: C_16  and  C_19
REMARK    4  A    between atoms: C_23  and  C_30
REMARK                            x       y       z     vdW  Elec       q    Type
REMARK                         _______ _______ _______ _____ _____    ______ ____
ROOT
ATOM      2  O   UNL     1      -6.502 -11.357  10.817  0.00  0.00    -0.267 OA
ATOM      3  N   UNL     1      -3.168 -10.949  14.538  0.00  0.00    -0.297 NA
ATOM      4  N   UNL     1      -4.306 -11.438  11.599  0.00  0.00    -0.311 N 
ATOM      6  C   UNL     1      -3.523 -13.131  13.357  0.00  0.00    +0.024 C 
ATOM      7  C   UNL     1      -1.934 -11.509  12.439  0.00  0.00    +0.050 C 
ATOM      8  C   UNL     1      -2.172 -12.999  12.666  0.00  0.00    +0.017 C 
ATOM      9  C   UNL     1      -3.508 -12.367  14.698  0.00  0.00    +0.090 C 
ATOM     10  C   UNL     1      -1.907 -10.778  13.800  0.00  0.00    +0.094 C 
ATOM     11  C   UNL     1      -4.615 -12.628  12.404  0.00  0.00    +0.130 C 
ATOM     12  C   UNL     1      -3.008 -10.923  11.542  0.00  0.00    +0.026 A 
ATOM     14  C   UNL     1      -2.721  -9.904  10.715  0.00  0.00    +0.022 A 
ATOM     15  C   UNL     1      -5.354 -10.911  10.817  0.00  0.00    +0.260 A 
ATOM     16  C   UNL     1      -5.006  -9.751   9.927  0.00  0.00    +0.053 A 
ATOM     17  C   UNL     1      -3.739  -9.308   9.897  0.00  0.00    +0.016 A 
ENDROOT
BRANCH  16  19
ATOM      1  S   UNL     1      -6.261  -9.675   7.519  0.00  0.00    -0.088 S 
ATOM     19  C   UNL     1      -6.005  -9.128   9.118  0.00  0.00    +0.026 A 
ATOM     22  C   UNL     1      -6.856  -8.090   9.440  0.00  0.00    +0.024 A 
ATOM     25  C   UNL     1      -7.735  -7.727   8.366  0.00  0.00    -0.010 A 
ATOM     26  C   UNL     1      -7.514  -8.523   7.238  0.00  0.00    +0.020 A 
ATOM     28  C   UNL     1      -8.738  -6.728   8.294  0.00  0.00    +0.009 A 
ATOM     29  C   UNL     1      -8.261  -8.351   6.057  0.00  0.00    +0.015 A 
ATOM     31  C   UNL     1      -9.480  -6.555   7.123  0.00  0.00    +0.001 A 
ATOM     32  C   UNL     1      -9.242  -7.360   6.017  0.00  0.00    +0.001 A 
ENDBRANCH  16  19
BRANCH   3  13
ATOM     13  C   UNL     1      -3.112 -10.275  15.833  0.00  0.00    +0.119 C 
BRANCH  13  18
ATOM     18  C   UNL     1      -4.451 -10.255  16.514  0.00  0.00    -0.032 A 
ATOM     20  C   UNL     1      -4.566 -10.717  17.819  0.00  0.00    +0.023 A 
ATOM     21  C   UNL     1      -5.563  -9.775  15.830  0.00  0.00    +0.005 A 
ATOM     23  C   UNL     1      -5.809 -10.698  18.451  0.00  0.00    +0.052 A 
ATOM     24  C   UNL     1      -6.806  -9.757  16.461  0.00  0.00    +0.002 A 
ATOM     27  C   UNL     1      -6.929 -10.217  17.772  0.00  0.00    +0.019 A 
BRANCH  23  30
ATOM      5  N   UNL     1      -6.038 -11.553  20.885  0.00  0.00    -0.191 NA
ATOM     30  C   UNL     1      -5.935 -11.170  19.794  0.00  0.00    +0.099 C 
ENDBRANCH  23  30
ENDBRANCH  13  18
ENDBRANCH   3  13
TORSDOF 4
ENDMDL
MODEL 2
REMARK VINA RESULT:      -7.8      1.307      1.784
REMARK  Name = 11911975
REMARK  4 active torsions:
REMARK  status: ('A' for Active; 'I' for Inactive)
REMARK    1  A    between atoms: N_3  and  C_13
REMARK    2  A    between atoms: C_13  and  C_18
REMARK    3  A    between atoms: C_16  and  C_19
REMARK    4  A    between atoms: C_23  and  C_30
REMARK                            x       y       z     vdW  Elec       q    Type
REMARK                         _______ _______ _______ _____ _____    ______ ____
ROOT
ATOM      2  O   UNL     1      -6.092 -11.573  11.012  0.00  0.00    -0.267 OA
ATOM      3  N   UNL     1      -3.138 -11.045  15.028  0.00  0.00    -0.297 NA
ATOM      4  N   UNL     1      -3.979 -11.592  12.000  0.00  0.00    -0.311 N 
ATOM      6  C   UNL     1      -3.327 -13.247  13.845  0.00  0.00    +0.024 C 
ATOM      7  C   UNL     1      -1.697 -11.596  13.063  0.00  0.00    +0.050 C 
ATOM      8  C   UNL     1      -1.921 -13.089  13.285  0.00  0.00    +0.017 C 
ATOM      9  C   UNL     1      -3.459 -12.470  15.172  0.00  0.00    +0.090 C 
ATOM     10  C   UNL     1      -1.817 -10.850  14.411  0.00  0.00    +0.094 C 
ATOM     11  C   UNL     1      -4.336 -12.781  12.787  0.00  0.00    +0.130 C 
ATOM     12  C   UNL     1      -2.694 -11.046  12.060  0.00  0.00    +0.026 A 
ATOM     14  C   UNL     1      -2.354 -10.029  11.252  0.00  0.00    +0.022 A 
ATOM     15  C   UNL     1      -4.959 -11.099  11.115  0.00  0.00    +0.260 A 
ATOM     16  C   UNL     1      -4.556  -9.939  10.248  0.00  0.00    +0.053 A 
ATOM     17  C   UNL     1      -3.303  -9.466  10.333  0.00  0.00    +0.016 A 
ENDROOT
BRANCH  16  19
ATOM      1  S   UNL     1      -5.589  -9.931   7.736  0.00  0.00    -0.088 S 
ATOM     19  C   UNL     1      -5.488  -9.350   9.340  0.00  0.00    +0.026 A 
ATOM     22  C   UNL     1      -6.380  -8.321   9.563  0.00  0.00    +0.024 A 
ATOM     25  C   UNL     1      -7.165  -7.993   8.407  0.00  0.00    -0.010 A 
ATOM     26  C   UNL     1      -6.830  -8.807   7.320  0.00  0.00    +0.020 A 
ATOM     28  C   UNL     1      -8.172  -7.014   8.225  0.00  0.00    +0.009 A 
ATOM     29  C   UNL     1      -7.470  -8.670   6.073  0.00  0.00    +0.015 A 
ATOM     31  C   UNL     1      -8.808  -6.877   6.989  0.00  0.00    +0.001 A 
ATOM     32  C   UNL     1      -8.459  -7.697   5.925  0.00  0.00    +0.001 A 
ENDBRANCH  16  19
BRANCH   3  13
ATOM     13  C   UNL     1      -3.223 -10.357  16.313  0.00  0.00    +0.119 C 
BRANCH  13  18
ATOM     18  C   UNL     1      -4.608 -10.415  16.892  0.00  0.00    -0.032 A 
ATOM     20  C   UNL     1      -5.684  -9.942  16.150  0.00  0.00    +0.023 A 
ATOM     21  C   UNL     1      -4.799 -10.940  18.165  0.00  0.00    +0.005 A 
ATOM     23  C   UNL     1      -6.969  -9.997  16.688  0.00  0.00    +0.052 A 
ATOM     24  C   UNL     1      -6.084 -10.994  18.703  0.00  0.00    +0.002 A 
ATOM     27  C   UNL     1      -7.170 -10.523  17.964  0.00  0.00    +0.019 A 
BRANCH  23  30
ATOM      5  N   UNL     1      -8.986  -9.123  15.316  0.00  0.00    -0.191 NA
ATOM     30  C   UNL     1      -8.081  -9.514  15.931  0.00  0.00    +0.099 C 
ENDBRANCH  23  30
ENDBRANCH  13  18
ENDBRANCH   3  13
TORSDOF 4
ENDMDL
MODEL 3
REMARK VINA RESULT:      -7.2     18.997     21.891
REMARK  Name = 11911975
REMARK  4 active torsions:
REMARK  status: ('A' for Active; 'I' for Inactive)
REMARK    1  A    between atoms: N_3  and  C_13
REMARK    2  A    between atoms: C_13  and  C_18
REMARK    3  A    between atoms: C_16  and  C_19
REMARK    4  A    between atoms: C_23  and  C_30
REMARK                            x       y       z     vdW  Elec       q    Type
REMARK                         _______ _______ _______ _____ _____    ______ ____
ROOT
ATOM      2  O   UNL     1      -6.660   9.775   5.322  0.00  0.00    -0.267 OA
ATOM      3  N   UNL     1      -1.891  10.427   3.920  0.00  0.00    -0.297 NA
ATOM      4  N   UNL     1      -4.387   9.311   5.563  0.00  0.00    -0.311 N 
ATOM      6  C   UNL     1      -2.668  11.099   6.207  0.00  0.00    +0.024 C 
ATOM      7  C   UNL     1      -1.935   8.796   5.812  0.00  0.00    +0.050 C 
ATOM      8  C   UNL     1      -1.909   9.935   6.828  0.00  0.00    +0.017 C 
ATOM      9  C   UNL     1      -1.992  11.526   4.886  0.00  0.00    +0.090 C 
ATOM     10  C   UNL     1      -1.236   9.250   4.510  0.00  0.00    +0.094 C 
ATOM     11  C   UNL     1      -4.133  10.687   6.012  0.00  0.00    +0.130 C 
ATOM     12  C   UNL     1      -3.361   8.362   5.526  0.00  0.00    +0.026 A 
ATOM     14  C   UNL     1      -3.633   7.083   5.221  0.00  0.00    +0.022 A 
ATOM     15  C   UNL     1      -5.724   8.975   5.271  0.00  0.00    +0.260 A 
ATOM     16  C   UNL     1      -5.990   7.542   4.901  0.00  0.00    +0.053 A 
ATOM     17  C   UNL     1      -4.971   6.669   4.900  0.00  0.00    +0.016 A 
ENDROOT
BRANCH  16  19
ATOM      1  S   UNL     1      -8.200   6.160   5.665  0.00  0.00    -0.088 S 
ATOM     19  C   UNL     1      -7.308   7.110   4.560  0.00  0.00    +0.026 A 
ATOM     22  C   UNL     1      -8.026   7.353   3.406  0.00  0.00    +0.024 A 
ATOM     25  C   UNL     1      -9.331   6.755   3.417  0.00  0.00    -0.010 A 
ATOM     26  C   UNL     1      -9.560   6.061   4.609  0.00  0.00    +0.020 A 
ATOM     28  C   UNL     1     -10.358   6.768   2.441  0.00  0.00    +0.009 A 
ATOM     29  C   UNL     1     -10.776   5.391   4.849  0.00  0.00    +0.015 A 
ATOM     31  C   UNL     1     -11.564   6.103   2.677  0.00  0.00    +0.001 A 
ATOM     32  C   UNL     1     -11.769   5.423   3.869  0.00  0.00    +0.001 A 
ENDBRANCH  16  19
BRANCH   3  13
ATOM     13  C   UNL     1      -1.200  10.857   2.707  0.00  0.00    +0.119 C 
BRANCH  13  18
ATOM     18  C   UNL     1      -1.845  10.306   1.467  0.00  0.00    -0.032 A 
ATOM     20  C   UNL     1      -3.199  10.520   1.242  0.00  0.00    +0.023 A 
ATOM     21  C   UNL     1      -1.079   9.586   0.557  0.00  0.00    +0.005 A 
ATOM     23  C   UNL     1      -3.797  10.008   0.091  0.00  0.00    +0.052 A 
ATOM     24  C   UNL     1      -1.676   9.073  -0.594  0.00  0.00    +0.002 A 
ATOM     27  C   UNL     1      -3.035   9.285  -0.828  0.00  0.00    +0.019 A 
BRANCH  23  30
ATOM      5  N   UNL     1      -6.320  10.401  -0.344  0.00  0.00    -0.191 NA
ATOM     30  C   UNL     1      -5.189  10.225  -0.149  0.00  0.00    +0.099 C 
ENDBRANCH  23  30
ENDBRANCH  13  18
ENDBRANCH   3  13
TORSDOF 4
ENDMDL
MODEL 4
REMARK VINA RESULT:      -7.2     18.979     22.805
REMARK  Name = 11911975
REMARK  4 active torsions:
REMARK  status: ('A' for Active; 'I' for Inactive)
REMARK    1  A    between atoms: N_3  and  C_13
REMARK    2  A    between atoms: C_13  and  C_18
REMARK    3  A    between atoms: C_16  and  C_19
REMARK    4  A    between atoms: C_23  and  C_30
REMARK                            x       y       z     vdW  Elec       q    Type
REMARK                         _______ _______ _______ _____ _____    ______ ____
ROOT
ATOM      2  O   UNL     1      -6.145  10.098   3.506  0.00  0.00    -0.267 OA
ATOM      3  N   UNL     1      -1.460   9.965   1.727  0.00  0.00    -0.297 NA
ATOM      4  N   UNL     1      -3.839  10.019   3.851  0.00  0.00    -0.311 N 
ATOM      6  C   UNL     1      -2.262  11.897   3.108  0.00  0.00    +0.024 C 
ATOM      7  C   UNL     1      -1.351   9.916   4.223  0.00  0.00    +0.050 C 
ATOM      8  C   UNL     1      -1.405  11.440   4.281  0.00  0.00    +0.017 C 
ATOM      9  C   UNL     1      -1.638  11.420   1.780  0.00  0.00    +0.090 C 
ATOM     10  C   UNL     1      -0.706   9.473   2.890  0.00  0.00    +0.094 C 
ATOM     11  C   UNL     1      -3.691  11.377   3.308  0.00  0.00    +0.130 C 
ATOM     12  C   UNL     1      -2.741   9.323   4.364  0.00  0.00    +0.026 A 
ATOM     14  C   UNL     1      -2.913   8.130   4.957  0.00  0.00    +0.022 A 
ATOM     15  C   UNL     1      -5.149   9.502   3.919  0.00  0.00    +0.260 A 
ATOM     16  C   UNL     1      -5.302   8.150   4.559  0.00  0.00    +0.053 A 
ATOM     17  C   UNL     1      -4.217   7.535   5.052  0.00  0.00    +0.016 A 
ENDROOT
BRANCH  16  19
ATOM      1  S   UNL     1      -7.833   8.288   5.537  0.00  0.00    -0.088 S 
ATOM     19  C   UNL     1      -6.586   7.529   4.650  0.00  0.00    +0.026 A 
ATOM     22  C   UNL     1      -7.010   6.336   4.098  0.00  0.00    +0.024 A 
ATOM     25  C   UNL     1      -8.378   6.029   4.403  0.00  0.00    -0.010 A 
ATOM     26  C   UNL     1      -8.957   7.025   5.194  0.00  0.00    +0.020 A 
ATOM     28  C   UNL     1      -9.176   4.919   4.033  0.00  0.00    +0.009 A 
ATOM     29  C   UNL     1     -10.298   6.942   5.620  0.00  0.00    +0.015 A 
ATOM     31  C   UNL     1     -10.506   4.834   4.455  0.00  0.00    +0.001 A 
ATOM     32  C   UNL     1     -11.059   5.836   5.239  0.00  0.00    +0.001 A 
ENDBRANCH  16  19
BRANCH   3  13
ATOM     13  C   UNL     1      -0.819   9.560   0.479  0.00  0.00    +0.119 C 
BRANCH  13  18
ATOM     18  C   UNL     1      -1.689   9.836  -0.714  0.00  0.00    -0.032 A 
ATOM     20  C   UNL     1      -3.044   9.534  -0.663  0.00  0.00    +0.023 A 
ATOM     21  C   UNL     1      -1.128  10.392  -1.859  0.00  0.00    +0.005 A 
ATOM     23  C   UNL     1      -3.850   9.791  -1.771  0.00  0.00    +0.052 A 
ATOM     24  C   UNL     1      -1.934  10.649  -2.967  0.00  0.00    +0.002 A 
ATOM     27  C   UNL     1      -3.297  10.349  -2.923  0.00  0.00    +0.019 A 
BRANCH  23  30
ATOM      5  N   UNL     1      -6.380   9.234  -1.689  0.00  0.00    -0.191 NA
ATOM     30  C   UNL     1      -5.246   9.484  -1.726  0.00  0.00    +0.099 C 
ENDBRANCH  23  30
ENDBRANCH  13  18
ENDBRANCH   3  13
TORSDOF 4
ENDMDL
MODEL 5
REMARK VINA RESULT:      -7.0      4.128      7.542
REMARK  Name = 11911975
REMARK  4 active torsions:
REMARK  status: ('A' for Active; 'I' for Inactive)
REMARK    1  A    between atoms: N_3  and  C_13
REMARK    2  A    between atoms: C_13  and  C_18
REMARK    3  A    between atoms: C_16  and  C_19
REMARK    4  A    between atoms: C_23  and  C_30
REMARK                            x       y       z     vdW  Elec       q    Type
REMARK                         _______ _______ _______ _____ _____    ______ ____
ROOT
ATOM      2  O   UNL     1      -6.765 -12.864  15.085  0.00  0.00    -0.267 OA
ATOM      3  N   UNL     1      -9.995 -11.340  18.603  0.00  0.00    -0.297 NA
ATOM      4  N   UNL     1      -7.275 -12.392  17.312  0.00  0.00    -0.311 N 
ATOM      6  C   UNL     1      -9.068 -13.669  18.624  0.00  0.00    +0.024 C 
ATOM      7  C   UNL     1      -7.819 -11.866  19.713  0.00  0.00    +0.050 C 
ATOM      8  C   UNL     1      -8.207 -13.337  19.835  0.00  0.00    +0.017 C 
ATOM      9  C   UNL     1     -10.322 -12.771  18.603  0.00  0.00    +0.090 C 
ATOM     10  C   UNL     1      -9.095 -10.994  19.714  0.00  0.00    +0.094 C 
ATOM     11  C   UNL     1      -8.215 -13.520  17.357  0.00  0.00    +0.130 C 
ATOM     12  C   UNL     1      -7.012 -11.626  18.451  0.00  0.00    +0.026 A 
ATOM     14  C   UNL     1      -6.067 -10.671  18.420  0.00  0.00    +0.022 A 
ATOM     15  C   UNL     1      -6.583 -12.190  16.100  0.00  0.00    +0.260 A 
ATOM     16  C   UNL     1      -5.556 -11.092  16.091  0.00  0.00    +0.053 A 
ATOM     17  C   UNL     1      -5.330 -10.400  17.218  0.00  0.00    +0.016 A 
ENDROOT
BRANCH  16  19
ATOM      1  S   UNL     1      -3.129 -11.015  14.872  0.00  0.00    -0.088 S 
ATOM     19  C   UNL     1      -4.823 -10.791  14.902  0.00  0.00    +0.026 A 
ATOM     22  C   UNL     1      -5.293 -10.318  13.693  0.00  0.00    +0.024 A 
ATOM     25  C   UNL     1      -4.256 -10.132  12.719  0.00  0.00    -0.010 A 
ATOM     26  C   UNL     1      -3.005 -10.479  13.237  0.00  0.00    +0.020 A 
ATOM     28  C   UNL     1      -4.322  -9.670  11.381  0.00  0.00    +0.009 A 
ATOM     29  C   UNL     1      -1.832 -10.380  12.462  0.00  0.00    +0.015 A 
ATOM     31  C   UNL     1      -3.160  -9.570  10.611  0.00  0.00    +0.001 A 
ATOM     32  C   UNL     1      -1.930  -9.922  11.148  0.00  0.00    +0.001 A 
ENDBRANCH  16  19
BRANCH   3  13
ATOM     13  C   UNL     1     -11.207 -10.526  18.637  0.00  0.00    +0.119 C 
BRANCH  13  18
ATOM     18  C   UNL     1     -11.103  -9.326  17.740  0.00  0.00    -0.032 A 
ATOM     20  C   UNL     1     -12.256  -8.768  17.201  0.00  0.00    +0.023 A 
ATOM     21  C   UNL     1      -9.853  -8.786  17.457  0.00  0.00    +0.005 A 
ATOM     23  C   UNL     1     -12.158  -7.654  16.368  0.00  0.00    +0.052 A 
ATOM     24  C   UNL     1      -9.756  -7.672  16.624  0.00  0.00    +0.002 A 
ATOM     27  C   UNL     1     -10.909  -7.104  16.080  0.00  0.00    +0.019 A 
BRANCH  23  30
ATOM      5  N   UNL     1     -14.299  -6.600  15.358  0.00  0.00    -0.191 NA
ATOM     30  C   UNL     1     -13.339  -7.073  15.811  0.00  0.00    +0.099 C 
ENDBRANCH  23  30
ENDBRANCH  13  18
ENDBRANCH   3  13
TORSDOF 4
ENDMDL
MODEL 6
REMARK VINA RESULT:      -7.0     23.395     25.288
REMARK  Name = 11911975
REMARK  4 active torsions:
REMARK  status: ('A' for Active; 'I' for Inactive)
REMARK    1  A    between atoms: N_3  and  C_13
REMARK    2  A    between atoms: C_13  and  C_18
REMARK    3  A    between atoms: C_16  and  C_19
REMARK    4  A    between atoms: C_23  and  C_30
REMARK                            x       y       z     vdW  Elec       q    Type
REMARK                         _______ _______ _______ _____ _____    ______ ____
ROOT
ATOM      2  O   UNL     1      10.161   3.941   3.249  0.00  0.00    -0.267 OA
ATOM      3  N   UNL     1       9.360   8.055   5.999  0.00  0.00    -0.297 NA
ATOM      4  N   UNL     1      10.936   5.622   4.668  0.00  0.00    -0.311 N 
ATOM      6  C   UNL     1      10.089   5.909   7.070  0.00  0.00    +0.024 C 
ATOM      7  C   UNL     1      11.776   7.447   6.185  0.00  0.00    +0.050 C 
ATOM      8  C   UNL     1      11.473   6.486   7.331  0.00  0.00    +0.017 C 
ATOM      9  C   UNL     1       9.044   7.043   7.013  0.00  0.00    +0.090 C 
ATOM     10  C   UNL     1      10.723   8.579   6.168  0.00  0.00    +0.094 C 
ATOM     11  C   UNL     1      10.134   5.085   5.776  0.00  0.00    +0.130 C 
ATOM     12  C   UNL     1      11.789   6.713   4.857  0.00  0.00    +0.026 A 
ATOM     14  C   UNL     1      12.596   7.120   3.864  0.00  0.00    +0.022 A 
ATOM     15  C   UNL     1      10.877   4.924   3.445  0.00  0.00    +0.260 A 
ATOM     16  C   UNL     1      11.769   5.426   2.344  0.00  0.00    +0.053 A 
ATOM     17  C   UNL     1      12.582   6.465   2.586  0.00  0.00    +0.016 A 
ENDROOT
BRANCH  16  19
ATOM      1  S   UNL     1      12.952   3.641   0.672  0.00  0.00    -0.088 S 
ATOM     19  C   UNL     1      11.760   4.803   1.058  0.00  0.00    +0.026 A 
ATOM     22  C   UNL     1      10.885   5.000   0.008  0.00  0.00    +0.024 A 
ATOM     25  C   UNL     1      11.188   4.191  -1.138  0.00  0.00    -0.010 A 
ATOM     26  C   UNL     1      12.311   3.389  -0.910  0.00  0.00    +0.020 A 
ATOM     28  C   UNL     1      10.544   4.099  -2.396  0.00  0.00    +0.009 A 
ATOM     29  C   UNL     1      12.798   2.507  -1.894  0.00  0.00    +0.015 A 
ATOM     31  C   UNL     1      11.027   3.226  -3.374  0.00  0.00    +0.001 A 
ATOM     32  C   UNL     1      12.142   2.439  -3.123  0.00  0.00    +0.001 A 
ENDBRANCH  16  19
BRANCH   3  13
ATOM     13  C   UNL     1       8.378   9.136   6.014  0.00  0.00    +0.119 C 
BRANCH  13  18
ATOM     18  C   UNL     1       7.743   9.338   4.667  0.00  0.00    -0.032 A 
ATOM     20  C   UNL     1       6.569  10.075   4.563  0.00  0.00    +0.023 A 
ATOM     21  C   UNL     1       8.336   8.784   3.539  0.00  0.00    +0.005 A 
ATOM     23  C   UNL     1       5.981  10.261   3.313  0.00  0.00    +0.052 A 
ATOM     24  C   UNL     1       7.748   8.970   2.288  0.00  0.00    +0.002 A 
ATOM     27  C   UNL     1       6.570   9.710   2.175  0.00  0.00    +0.019 A 
BRANCH  23  30
ATOM      5  N   UNL     1       3.795  11.635   3.103  0.00  0.00    -0.191 NA
ATOM     30  C   UNL     1       4.775  11.019   3.197  0.00  0.00    +0.099 C 
ENDBRANCH  23  30
ENDBRANCH  13  18
ENDBRANCH   3  13
TORSDOF 4
ENDMDL
MODEL 7
REMARK VINA RESULT:      -7.0     19.956     22.250
REMARK  Name = 11911975
REMARK  4 active torsions:
REMARK  status: ('A' for Active; 'I' for Inactive)
REMARK    1  A    between atoms: N_3  and  C_13
REMARK    2  A    between atoms: C_13  and  C_18
REMARK    3  A    between atoms: C_16  and  C_19
REMARK    4  A    between atoms: C_23  and  C_30
REMARK                            x       y       z     vdW  Elec       q    Type
REMARK                         _______ _______ _______ _____ _____    ______ ____
ROOT
ATOM      2  O   UNL     1     -14.933   8.957  20.594  0.00  0.00    -0.267 OA
ATOM      3  N   UNL     1     -11.741   9.306  16.743  0.00  0.00    -0.297 NA
ATOM      4  N   UNL     1     -12.760   9.125  19.760  0.00  0.00    -0.311 N 
ATOM      6  C   UNL     1     -11.941  11.154  18.425  0.00  0.00    +0.024 C 
ATOM      7  C   UNL     1     -10.415   9.289  18.860  0.00  0.00    +0.050 C 
ATOM      8  C   UNL     1     -10.579  10.799  19.005  0.00  0.00    +0.017 C 
ATOM      9  C   UNL     1     -12.009  10.735  16.941  0.00  0.00    +0.090 C 
ATOM     10  C   UNL     1     -10.470   8.906  17.364  0.00  0.00    +0.094 C 
ATOM     11  C   UNL     1     -13.030  10.487  19.276  0.00  0.00    +0.130 C 
ATOM     12  C   UNL     1     -11.491   8.553  19.637  0.00  0.00    +0.026 A 
ATOM     14  C   UNL     1     -11.234   7.354  20.184  0.00  0.00    +0.022 A 
ATOM     15  C   UNL     1     -13.810   8.474  20.438  0.00  0.00    +0.260 A 
ATOM     16  C   UNL     1     -13.498   7.118  21.010  0.00  0.00    +0.053 A 
ATOM     17  C   UNL     1     -12.257   6.625  20.879  0.00  0.00    +0.016 A 
ENDROOT
BRANCH  16  19
ATOM      1  S   UNL     1     -15.835   5.747  20.813  0.00  0.00    -0.088 S 
ATOM     19  C   UNL     1     -14.505   6.366  21.690  0.00  0.00    +0.026 A 
ATOM     22  C   UNL     1     -14.580   6.034  23.027  0.00  0.00    +0.024 A 
ATOM     25  C   UNL     1     -15.745   5.260  23.351  0.00  0.00    -0.010 A 
ATOM     26  C   UNL     1     -16.531   5.028  22.218  0.00  0.00    +0.020 A 
ATOM     28  C   UNL     1     -16.183   4.731  24.590  0.00  0.00    +0.009 A 
ATOM     29  C   UNL     1     -17.727   4.288  22.291  0.00  0.00    +0.015 A 
ATOM     31  C   UNL     1     -17.370   3.998  24.664  0.00  0.00    +0.001 A 
ATOM     32  C   UNL     1     -18.133   3.780  23.525  0.00  0.00    +0.001 A 
ENDBRANCH  16  19
BRANCH   3  13
ATOM     13  C   UNL     1     -11.763   8.961  15.324  0.00  0.00    +0.119 C 
BRANCH  13  18
ATOM     18  C   UNL     1     -13.026   8.246  14.938  0.00  0.00    -0.032 A 
ATOM     20  C   UNL     1     -14.086   8.188  15.836  0.00  0.00    +0.023 A 
ATOM     21  C   UNL     1     -13.123   7.648  13.687  0.00  0.00    +0.005 A 
ATOM     23  C   UNL     1     -15.258   7.524  15.477  0.00  0.00    +0.052 A 
ATOM     24  C   UNL     1     -14.295   6.984  13.328  0.00  0.00    +0.002 A 
ATOM     27  C   UNL     1     -15.364   6.922  14.223  0.00  0.00    +0.019 A 
BRANCH  23  30
ATOM      5  N   UNL     1     -17.243   7.411  17.139  0.00  0.00    -0.191 NA
ATOM     30  C   UNL     1     -16.353   7.461  16.394  0.00  0.00    +0.099 C 
ENDBRANCH  23  30
ENDBRANCH  13  18
ENDBRANCH   3  13
TORSDOF 4
ENDMDL
MODEL 8
REMARK VINA RESULT:      -6.9     27.998     30.494
REMARK  Name = 11911975
REMARK  4 active torsions:
REMARK  status: ('A' for Active; 'I' for Inactive)
REMARK    1  A    between atoms: N_3  and  C_13
REMARK    2  A    between atoms: C_13  and  C_18
REMARK    3  A    between atoms: C_16  and  C_19
REMARK    4  A    between atoms: C_23  and  C_30
REMARK                            x       y       z     vdW  Elec       q    Type
REMARK                         _______ _______ _______ _____ _____    ______ ____
ROOT
ATOM      2  O   UNL     1      17.148   9.667  20.536  0.00  0.00    -0.267 OA
ATOM      3  N   UNL     1      12.163   9.905  21.008  0.00  0.00    -0.297 NA
ATOM      4  N   UNL     1      15.004   9.292  19.695  0.00  0.00    -0.311 N 
ATOM      6  C   UNL     1      13.352  11.191  19.215  0.00  0.00    +0.024 C 
ATOM      7  C   UNL     1      12.691   8.871  18.795  0.00  0.00    +0.050 C 
ATOM      8  C   UNL     1      12.808  10.249  18.150  0.00  0.00    +0.017 C 
ATOM      9  C   UNL     1      12.395  11.231  20.425  0.00  0.00    +0.090 C 
ATOM     10  C   UNL     1      11.714   8.942  19.991  0.00  0.00    +0.094 C 
ATOM     11  C   UNL     1      14.768  10.739  19.597  0.00  0.00    +0.130 C 
ATOM     12  C   UNL     1      14.051   8.373  19.249  0.00  0.00    +0.026 A 
ATOM     14  C   UNL     1      14.329   7.059  19.243  0.00  0.00    +0.022 A 
ATOM     15  C   UNL     1      16.271   8.886  20.163  0.00  0.00    +0.260 A 
ATOM     16  C   UNL     1      16.538   7.407  20.174  0.00  0.00    +0.053 A 
ATOM     17  C   UNL     1      15.594   6.570  19.716  0.00  0.00    +0.016 A 
ENDROOT
BRANCH  16  19
ATOM      1  S   UNL     1      18.620   5.713  19.751  0.00  0.00    -0.088 S 
ATOM     19  C   UNL     1      17.781   6.895  20.657  0.00  0.00    +0.026 A 
ATOM     22  C   UNL     1      18.460   7.222  21.813  0.00  0.00    +0.024 A 
ATOM     25  C   UNL     1      19.689   6.498  21.970  0.00  0.00    -0.010 A 
ATOM     26  C   UNL     1      19.903   5.625  20.899  0.00  0.00    +0.020 A 
ATOM     28  C   UNL     1      20.659   6.544  23.002  0.00  0.00    +0.009 A 
ATOM     29  C   UNL     1      21.049   4.808  20.834  0.00  0.00    +0.015 A 
ATOM     31  C   UNL     1      21.795   5.733  22.939  0.00  0.00    +0.001 A 
ATOM     32  C   UNL     1      21.986   4.875  21.865  0.00  0.00    +0.001 A 
ENDBRANCH  16  19
BRANCH   3  13
ATOM     13  C   UNL     1      11.213   9.978  22.115  0.00  0.00    +0.119 C 
BRANCH  13  18
ATOM     18  C   UNL     1      11.730  10.822  23.245  0.00  0.00    -0.032 A 
ATOM     20  C   UNL     1      13.095  11.060  23.356  0.00  0.00    +0.023 A 
ATOM     21  C   UNL     1      10.838  11.355  24.168  0.00  0.00    +0.005 A 
ATOM     23  C   UNL     1      13.575  11.843  24.405  0.00  0.00    +0.052 A 
ATOM     24  C   UNL     1      11.318  12.138  25.217  0.00  0.00    +0.002 A 
ATOM     27  C   UNL     1      12.687  12.383  25.336  0.00  0.00    +0.019 A 
BRANCH  23  30
ATOM      5  N   UNL     1      16.116  12.298  24.625  0.00  0.00    -0.191 NA
ATOM     30  C   UNL     1      14.977  12.094  24.527  0.00  0.00    +0.099 C 
ENDBRANCH  23  30
ENDBRANCH  13  18
ENDBRANCH   3  13
TORSDOF 4
ENDMDL
MODEL 9
REMARK VINA RESULT:      -6.8     31.266     33.206
REMARK  Name = 11911975
REMARK  4 active torsions:
REMARK  status: ('A' for Active; 'I' for Inactive)
REMARK    1  A    between atoms: N_3  and  C_13
REMARK    2  A    between atoms: C_13  and  C_18
REMARK    3  A    between atoms: C_16  and  C_19
REMARK    4  A    between atoms: C_23  and  C_30
REMARK                            x       y       z     vdW  Elec       q    Type
REMARK                         _______ _______ _______ _____ _____    ______ ____
ROOT
ATOM      2  O   UNL     1      -4.060   9.301  35.839  0.00  0.00    -0.267 OA
ATOM      3  N   UNL     1      -3.575  14.129  34.580  0.00  0.00    -0.297 NA
ATOM      4  N   UNL     1      -4.578  11.552  36.169  0.00  0.00    -0.311 N 
ATOM      6  C   UNL     1      -5.790  12.967  34.410  0.00  0.00    +0.024 C 
ATOM      7  C   UNL     1      -5.123  13.982  36.536  0.00  0.00    +0.050 C 
ATOM      8  C   UNL     1      -6.312  13.745  35.610  0.00  0.00    +0.017 C 
ATOM      9  C   UNL     1      -4.690  13.778  33.692  0.00  0.00    +0.090 C 
ATOM     10  C   UNL     1      -4.049  14.810  35.794  0.00  0.00    +0.094 C 
ATOM     11  C   UNL     1      -5.295  11.595  34.887  0.00  0.00    +0.130 C 
ATOM     12  C   UNL     1      -4.541  12.664  37.014  0.00  0.00    +0.026 A 
ATOM     14  C   UNL     1      -3.977  12.572  38.229  0.00  0.00    +0.022 A 
ATOM     15  C   UNL     1      -4.022  10.312  36.543  0.00  0.00    +0.260 A 
ATOM     16  C   UNL     1      -3.369  10.251  37.896  0.00  0.00    +0.053 A 
ATOM     17  C   UNL     1      -3.380  11.344  38.675  0.00  0.00    +0.016 A 
ENDROOT
BRANCH  16  19
ATOM      1  S   UNL     1      -1.180   8.644  37.815  0.00  0.00    -0.088 S 
ATOM     19  C   UNL     1      -2.751   9.047  38.354  0.00  0.00    +0.026 A 
ATOM     22  C   UNL     1      -3.250   8.094  39.219  0.00  0.00    +0.024 A 
ATOM     25  C   UNL     1      -2.338   7.010  39.451  0.00  0.00    -0.010 A 
ATOM     26  C   UNL     1      -1.150   7.185  38.735  0.00  0.00    +0.020 A 
ATOM     28  C   UNL     1      -2.469   5.854  40.258  0.00  0.00    +0.009 A 
ATOM     29  C   UNL     1      -0.102   6.246  38.805  0.00  0.00    +0.015 A 
ATOM     31  C   UNL     1      -1.431   4.921  40.329  0.00  0.00    +0.001 A 
ATOM     32  C   UNL     1      -0.261   5.118  39.610  0.00  0.00    +0.001 A 
ENDBRANCH  16  19
BRANCH   3  13
ATOM     13  C   UNL     1      -2.583  14.939  33.878  0.00  0.00    +0.119 C 
BRANCH  13  18
ATOM     18  C   UNL     1      -1.324  14.169  33.600  0.00  0.00    -0.032 A 
ATOM     20  C   UNL     1      -0.577  14.457  32.464  0.00  0.00    +0.023 A 
ATOM     21  C   UNL     1      -0.918  13.174  34.483  0.00  0.00    +0.005 A 
ATOM     23  C   UNL     1       0.592  13.742  32.207  0.00  0.00    +0.052 A 
ATOM     24  C   UNL     1       0.251  12.459  34.226  0.00  0.00    +0.002 A 
ATOM     27  C   UNL     1       1.007  12.743  33.088  0.00  0.00    +0.019 A 
BRANCH  23  30
ATOM      5  N   UNL     1       1.994  14.269  30.094  0.00  0.00    -0.191 NA
ATOM     30  C   UNL     1       1.366  14.033  31.041  0.00  0.00    +0.099 C 
ENDBRANCH  23  30
ENDBRANCH  13  18
ENDBRANCH   3  13
TORSDOF 4
ENDMDL
MODEL 10
REMARK VINA RESULT:      -6.8     23.465     25.485
REMARK  Name = 11911975
REMARK  4 active torsions:
REMARK  status: ('A' for Active; 'I' for Inactive)
REMARK    1  A    between atoms: N_3  and  C_13
REMARK    2  A    between atoms: C_13  and  C_18
REMARK    3  A    between atoms: C_16  and  C_19
REMARK    4  A    between atoms: C_23  and  C_30
REMARK                            x       y       z     vdW  Elec       q    Type
REMARK                         _______ _______ _______ _____ _____    ______ ____
ROOT
ATOM      2  O   UNL     1      10.183   3.962   3.102  0.00  0.00    -0.267 OA
ATOM      3  N   UNL     1       9.398   8.068   5.869  0.00  0.00    -0.297 NA
ATOM      4  N   UNL     1      10.966   5.640   4.521  0.00  0.00    -0.311 N 
ATOM      6  C   UNL     1      10.135   5.918   6.929  0.00  0.00    +0.024 C 
ATOM      7  C   UNL     1      11.816   7.460   6.039  0.00  0.00    +0.050 C 
ATOM      8  C   UNL     1      11.520   6.495   7.184  0.00  0.00    +0.017 C 
ATOM      9  C   UNL     1       9.089   7.052   6.883  0.00  0.00    +0.090 C 
ATOM     10  C   UNL     1      10.763   8.591   6.032  0.00  0.00    +0.094 C 
ATOM     11  C   UNL     1      10.172   5.098   5.632  0.00  0.00    +0.130 C 
ATOM     12  C   UNL     1      11.820   6.730   4.708  0.00  0.00    +0.026 A 
ATOM     14  C   UNL     1      12.622   7.140   3.711  0.00  0.00    +0.022 A 
ATOM     15  C   UNL     1      10.900   4.945   3.296  0.00  0.00    +0.260 A 
ATOM     16  C   UNL     1      11.786   5.451   2.191  0.00  0.00    +0.053 A 
ATOM     17  C   UNL     1      12.600   6.489   2.431  0.00  0.00    +0.016 A 
ENDROOT
BRANCH  16  19
ATOM      1  S   UNL     1      12.871   3.574   0.554  0.00  0.00    -0.088 S 
ATOM     19  C   UNL     1      11.768   4.832   0.903  0.00  0.00    +0.026 A 
ATOM     22  C   UNL     1      10.950   5.103  -0.175  0.00  0.00    +0.024 A 
ATOM     25  C   UNL     1      11.223   4.272  -1.313  0.00  0.00    -0.010 A 
ATOM     26  C   UNL     1      12.266   3.378  -1.050  0.00  0.00    +0.020 A 
ATOM     28  C   UNL     1      10.617   4.236  -2.593  0.00  0.00    +0.009 A 
ATOM     29  C   UNL     1      12.711   2.460  -2.020  0.00  0.00    +0.015 A 
ATOM     31  C   UNL     1      11.058   3.325  -3.557  0.00  0.00    +0.001 A 
ATOM     32  C   UNL     1      12.094   2.448  -3.271  0.00  0.00    +0.001 A 
ENDBRANCH  16  19
BRANCH   3  13
ATOM     13  C   UNL     1       8.416   9.148   5.894  0.00  0.00    +0.119 C 
BRANCH  13  18
ATOM     18  C   UNL     1       7.797   9.376   4.545  0.00  0.00    -0.032 A 
ATOM     20  C   UNL     1       8.467   8.958   3.401  0.00  0.00    +0.023 A 
ATOM     21  C   UNL     1       6.560  10.004   4.453  0.00  0.00    +0.005 A 
ATOM     23  C   UNL     1       7.892   9.170   2.149  0.00  0.00    +0.052 A 
ATOM     24  C   UNL     1       5.985  10.216   3.201  0.00  0.00    +0.002 A 
ATOM     27  C   UNL     1       6.650   9.798   2.048  0.00  0.00    +0.019 A 
BRANCH  23  30
ATOM      5  N   UNL     1       9.127   8.394   0.007  0.00  0.00    -0.191 NA
ATOM     30  C   UNL     1       8.573   8.742   0.968  0.00  0.00    +0.099 C 
ENDBRANCH  23  30
ENDBRANCH  13  18
ENDBRANCH   3  13
TORSDOF 4
ENDMDL
