MODEL 1
REMARK VINA RESULT:      -7.1      0.000      0.000
REMARK  Name = 45783640
REMARK  7 active torsions:
REMARK  status: ('A' for Active; 'I' for Inactive)
REMARK    1  A    between atoms: O_3  and  C_27
REMARK    2  A    between atoms: O_3  and  C_28
REMARK    3  A    between atoms: N_5  and  C_10
REMARK    4  A    between atoms: N_9  and  C_25
REMARK    5  A    between atoms: C_11  and  C_19
REMARK    6  A    between atoms: C_20  and  C_21
REMARK    7  A    between atoms: C_26  and  C_27
REMARK                            x       y       z     vdW  Elec       q    Type
REMARK                         _______ _______ _______ _____ _____    ______ ____
ROOT
ATOM      2  O   UNL     1      15.547   6.208  18.290  0.00  0.00    -0.336 OA
ATOM      6  N   UNL     1      16.260   7.515  19.962  0.00  0.00    -0.190 NA
ATOM      7  N   UNL     1      16.773   5.673  18.707  0.00  0.00    -0.056 NA
ATOM     19  C   UNL     1      15.320   7.289  19.080  0.00  0.00    +0.245 A 
ATOM     20  C   UNL     1      17.131   6.499  19.695  0.00  0.00    +0.204 A 
ENDROOT
BRANCH  20  21
ATOM      8  N   UNL     1      20.474   5.211  20.691  0.00  0.00    -0.239 NA
ATOM     21  C   UNL     1      18.349   6.337  20.433  0.00  0.00    +0.041 A 
ATOM     22  C   UNL     1      18.608   7.100  21.566  0.00  0.00    +0.016 A 
ATOM     23  C   UNL     1      19.306   5.414  20.041  0.00  0.00    +0.124 A 
ATOM     24  C   UNL     1      19.798   6.920  22.262  0.00  0.00    +0.044 A 
ATOM     25  C   UNL     1      20.690   5.971  21.787  0.00  0.00    +0.125 A 
BRANCH  25   9
ATOM      4  O   UNL     1      21.906   3.497  22.991  0.00  0.00    -0.273 OA
ATOM      9  N   UNL     1      21.885   5.799  22.495  0.00  0.00    -0.268 N 
ATOM     26  C   UNL     1      22.404   4.617  23.035  0.00  0.00    +0.244 C 
ATOM     29  H   UNL     1      22.425   6.651  22.621  0.00  0.00    +0.156 HD
BRANCH  26  27
ATOM     27  C   UNL     1      23.723   4.846  23.740  0.00  0.00    +0.255 C 
BRANCH  27   3
ATOM      3  O   UNL     1      24.746   4.942  22.770  0.00  0.00    -0.374 OA
ATOM     28  C   UNL     1      25.610   6.047  23.020  0.00  0.00    +0.194 C 
ENDBRANCH  27   3
ENDBRANCH  26  27
ENDBRANCH  25   9
ENDBRANCH  20  21
BRANCH  19  11
ATOM      5  N   UNL     1      13.656   8.915  19.963  0.00  0.00    -0.288 NA
ATOM     11  C   UNL     1      14.038   8.053  18.826  0.00  0.00    +0.146 C 
ATOM     12  C   UNL     1      12.918  10.044  19.396  0.00  0.00    +0.085 C 
ATOM     13  C   UNL     1      14.145   9.012  17.626  0.00  0.00    +0.030 C 
ATOM     14  C   UNL     1      13.746  10.376  18.171  0.00  0.00    +0.017 C 
BRANCH   5  10
ATOM      1  O   UNL     1      10.342   7.242  21.923  0.00  0.00    -0.380 OA
ATOM     10  C   UNL     1      12.885   8.213  20.985  0.00  0.00    +0.062 C 
ATOM     15  C   UNL     1      11.820   9.139  21.579  0.00  0.00    +0.047 C 
ATOM     16  C   UNL     1      12.224   6.955  20.412  0.00  0.00    +0.047 C 
ATOM     17  C   UNL     1      10.936   8.373  22.557  0.00  0.00    +0.161 C 
ATOM     18  C   UNL     1      11.318   6.310  21.455  0.00  0.00    +0.161 C 
ENDBRANCH   5  10
ENDBRANCH  19  11
TORSDOF 6
ENDMDL
MODEL 2
REMARK VINA RESULT:      -6.6      2.394      2.570
REMARK  Name = 45783640
REMARK  7 active torsions:
REMARK  status: ('A' for Active; 'I' for Inactive)
REMARK    1  A    between atoms: O_3  and  C_27
REMARK    2  A    between atoms: O_3  and  C_28
REMARK    3  A    between atoms: N_5  and  C_10
REMARK    4  A    between atoms: N_9  and  C_25
REMARK    5  A    between atoms: C_11  and  C_19
REMARK    6  A    between atoms: C_20  and  C_21
REMARK    7  A    between atoms: C_26  and  C_27
REMARK                            x       y       z     vdW  Elec       q    Type
REMARK                         _______ _______ _______ _____ _____    ______ ____
ROOT
ATOM      2  O   UNL     1      16.209   6.076  18.679  0.00  0.00    -0.336 OA
ATOM      6  N   UNL     1      16.088   7.608  20.308  0.00  0.00    -0.190 NA
ATOM      7  N   UNL     1      17.424   6.003  19.373  0.00  0.00    -0.056 NA
ATOM     19  C   UNL     1      15.482   7.045  19.293  0.00  0.00    +0.245 A 
ATOM     20  C   UNL     1      17.276   6.936  20.318  0.00  0.00    +0.204 A 
ENDROOT
BRANCH  20  21
ATOM      8  N   UNL     1      20.010   6.406  22.782  0.00  0.00    -0.239 NA
ATOM     21  C   UNL     1      18.294   7.223  21.286  0.00  0.00    +0.041 A 
ATOM     22  C   UNL     1      18.568   8.530  21.673  0.00  0.00    +0.016 A 
ATOM     23  C   UNL     1      19.037   6.206  21.864  0.00  0.00    +0.124 A 
ATOM     24  C   UNL     1      19.562   8.777  22.614  0.00  0.00    +0.044 A 
ATOM     25  C   UNL     1      20.248   7.690  23.133  0.00  0.00    +0.125 A 
BRANCH  25   9
ATOM      4  O   UNL     1      20.149   7.634  26.140  0.00  0.00    -0.273 OA
ATOM      9  N   UNL     1      21.245   7.950  24.080  0.00  0.00    -0.268 N 
ATOM     26  C   UNL     1      21.142   7.908  25.474  0.00  0.00    +0.244 C 
ATOM     29  H   UNL     1      22.148   8.197  23.681  0.00  0.00    +0.156 HD
BRANCH  26  27
ATOM     27  C   UNL     1      22.448   8.263  26.152  0.00  0.00    +0.255 C 
BRANCH  27   3
ATOM      3  O   UNL     1      22.542   7.544  27.363  0.00  0.00    -0.374 OA
ATOM     28  C   UNL     1      22.763   8.406  28.476  0.00  0.00    +0.194 C 
ENDBRANCH  27   3
ENDBRANCH  26  27
ENDBRANCH  25   9
ENDBRANCH  20  21
BRANCH  19  11
ATOM      5  N   UNL     1      13.424   8.439  19.402  0.00  0.00    -0.288 NA
ATOM     11  C   UNL     1      14.107   7.321  18.723  0.00  0.00    +0.146 C 
ATOM     12  C   UNL     1      12.537   9.047  18.410  0.00  0.00    +0.085 C 
ATOM     13  C   UNL     1      14.150   7.731  17.239  0.00  0.00    +0.030 C 
ATOM     14  C   UNL     1      13.415   9.062  17.174  0.00  0.00    +0.017 C 
BRANCH   5  10
ATOM      1  O   UNL     1      10.222   7.278  21.856  0.00  0.00    -0.380 OA
ATOM     10  C   UNL     1      12.703   8.030  20.605  0.00  0.00    +0.062 C 
ATOM     15  C   UNL     1      11.613   9.050  20.946  0.00  0.00    +0.047 C 
ATOM     16  C   UNL     1      12.083   6.640  20.430  0.00  0.00    +0.047 C 
ATOM     17  C   UNL     1      10.782   8.563  22.127  0.00  0.00    +0.161 C 
ATOM     18  C   UNL     1      11.225   6.286  21.640  0.00  0.00    +0.161 C 
ENDBRANCH   5  10
ENDBRANCH  19  11
TORSDOF 6
ENDMDL
MODEL 3
REMARK VINA RESULT:      -6.6     28.533     31.058
REMARK  Name = 45783640
REMARK  7 active torsions:
REMARK  status: ('A' for Active; 'I' for Inactive)
REMARK    1  A    between atoms: O_3  and  C_27
REMARK    2  A    between atoms: O_3  and  C_28
REMARK    3  A    between atoms: N_5  and  C_10
REMARK    4  A    between atoms: N_9  and  C_25
REMARK    5  A    between atoms: C_11  and  C_19
REMARK    6  A    between atoms: C_20  and  C_21
REMARK    7  A    between atoms: C_26  and  C_27
REMARK                            x       y       z     vdW  Elec       q    Type
REMARK                         _______ _______ _______ _____ _____    ______ ____
ROOT
ATOM      2  O   UNL     1     -13.069   9.575  19.012  0.00  0.00    -0.336 OA
ATOM      6  N   UNL     1     -11.947   7.788  19.761  0.00  0.00    -0.190 NA
ATOM      7  N   UNL     1     -13.882   8.986  19.990  0.00  0.00    -0.056 NA
ATOM     19  C   UNL     1     -11.951   8.808  18.939  0.00  0.00    +0.245 A 
ATOM     20  C   UNL     1     -13.152   7.939  20.384  0.00  0.00    +0.204 A 
ENDROOT
BRANCH  20  21
ATOM      8  N   UNL     1     -15.214   6.460  23.101  0.00  0.00    -0.239 NA
ATOM     21  C   UNL     1     -13.596   7.025  21.395  0.00  0.00    +0.041 A 
ATOM     22  C   UNL     1     -12.892   5.857  21.665  0.00  0.00    +0.016 A 
ATOM     23  C   UNL     1     -14.740   7.278  22.135  0.00  0.00    +0.124 A 
ATOM     24  C   UNL     1     -13.347   4.990  22.653  0.00  0.00    +0.044 A 
ATOM     25  C   UNL     1     -14.503   5.334  23.336  0.00  0.00    +0.125 A 
BRANCH  25   9
ATOM      4  O   UNL     1     -16.245   2.890  23.134  0.00  0.00    -0.273 OA
ATOM      9  N   UNL     1     -14.952   4.454  24.327  0.00  0.00    -0.268 N 
ATOM     26  C   UNL     1     -15.765   3.327  24.175  0.00  0.00    +0.244 C 
ATOM     29  H   UNL     1     -14.635   4.684  25.266  0.00  0.00    +0.156 HD
BRANCH  26  27
ATOM     27  C   UNL     1     -16.036   2.638  25.495  0.00  0.00    +0.255 C 
BRANCH  27   3
ATOM      3  O   UNL     1     -16.098   3.615  26.513  0.00  0.00    -0.374 OA
ATOM     28  C   UNL     1     -16.059   3.030  27.812  0.00  0.00    +0.194 C 
ENDBRANCH  27   3
ENDBRANCH  26  27
ENDBRANCH  25   9
ENDBRANCH  20  21
BRANCH  19  11
ATOM      5  N   UNL     1     -11.483   9.696  16.663  0.00  0.00    -0.288 NA
ATOM     11  C   UNL     1     -10.899   9.240  17.940  0.00  0.00    +0.146 C 
ATOM     12  C   UNL     1     -10.554  10.685  16.114  0.00  0.00    +0.085 C 
ATOM     13  C   UNL     1     -10.063  10.434  18.437  0.00  0.00    +0.030 C 
ATOM     14  C   UNL     1     -10.187  11.488  17.347  0.00  0.00    +0.017 C 
BRANCH   5  10
ATOM      1  O   UNL     1     -12.075   7.720  13.007  0.00  0.00    -0.380 OA
ATOM     10  C   UNL     1     -11.741   8.607  15.725  0.00  0.00    +0.062 C 
ATOM     15  C   UNL     1     -13.013   8.887  14.920  0.00  0.00    +0.047 C 
ATOM     16  C   UNL     1     -10.555   8.401  14.777  0.00  0.00    +0.047 C 
ATOM     17  C   UNL     1     -13.217   7.813  13.858  0.00  0.00    +0.161 C 
ATOM     18  C   UNL     1     -10.895   7.354  13.722  0.00  0.00    +0.161 C 
ENDBRANCH   5  10
ENDBRANCH  19  11
TORSDOF 6
ENDMDL
MODEL 4
REMARK VINA RESULT:      -6.6     30.076     32.633
REMARK  Name = 45783640
REMARK  7 active torsions:
REMARK  status: ('A' for Active; 'I' for Inactive)
REMARK    1  A    between atoms: O_3  and  C_27
REMARK    2  A    between atoms: O_3  and  C_28
REMARK    3  A    between atoms: N_5  and  C_10
REMARK    4  A    between atoms: N_9  and  C_25
REMARK    5  A    between atoms: C_11  and  C_19
REMARK    6  A    between atoms: C_20  and  C_21
REMARK    7  A    between atoms: C_26  and  C_27
REMARK                            x       y       z     vdW  Elec       q    Type
REMARK                         _______ _______ _______ _____ _____    ______ ____
ROOT
ATOM      2  O   UNL     1     -14.394  -5.639  14.146  0.00  0.00    -0.336 OA
ATOM      6  N   UNL     1     -12.164  -5.571  14.346  0.00  0.00    -0.190 NA
ATOM      7  N   UNL     1     -14.060  -6.599  15.111  0.00  0.00    -0.056 NA
ATOM     19  C   UNL     1     -13.221  -5.082  13.747  0.00  0.00    +0.245 A 
ATOM     20  C   UNL     1     -12.729  -6.499  15.173  0.00  0.00    +0.204 A 
ENDROOT
BRANCH  20  21
ATOM      8  N   UNL     1     -11.781  -9.220  17.523  0.00  0.00    -0.239 NA
ATOM     21  C   UNL     1     -11.934  -7.309  16.049  0.00  0.00    +0.041 A 
ATOM     22  C   UNL     1     -10.596  -7.011  16.284  0.00  0.00    +0.016 A 
ATOM     23  C   UNL     1     -12.474  -8.414  16.686  0.00  0.00    +0.124 A 
ATOM     24  C   UNL     1      -9.850  -7.815  17.139  0.00  0.00    +0.044 A 
ATOM     25  C   UNL     1     -10.484  -8.898  17.728  0.00  0.00    +0.125 A 
BRANCH  25   9
ATOM      4  O   UNL     1      -8.738 -11.277  17.141  0.00  0.00    -0.273 OA
ATOM      9  N   UNL     1      -9.724  -9.701  18.586  0.00  0.00    -0.268 N 
ATOM     26  C   UNL     1      -8.926 -10.801  18.256  0.00  0.00    +0.244 C 
ATOM     29  H   UNL     1      -9.774  -9.432  19.566  0.00  0.00    +0.156 HD
BRANCH  26  27
ATOM     27  C   UNL     1      -8.267 -11.412  19.474  0.00  0.00    +0.255 C 
BRANCH  27   3
ATOM      3  O   UNL     1      -7.273 -10.527  19.945  0.00  0.00    -0.374 OA
ATOM     28  C   UNL     1      -6.008 -10.780  19.340  0.00  0.00    +0.194 C 
ENDBRANCH  27   3
ENDBRANCH  26  27
ENDBRANCH  25   9
ENDBRANCH  20  21
BRANCH  19  11
ATOM      5  N   UNL     1     -13.396  -4.545  11.324  0.00  0.00    -0.288 NA
ATOM     11  C   UNL     1     -13.312  -3.999  12.693  0.00  0.00    +0.146 C 
ATOM     12  C   UNL     1     -14.154  -3.572  10.536  0.00  0.00    +0.085 C 
ATOM     13  C   UNL     1     -14.572  -3.127  12.845  0.00  0.00    +0.030 C 
ATOM     14  C   UNL     1     -15.268  -3.195  11.493  0.00  0.00    +0.017 C 
BRANCH   5  10
ATOM      1  O   UNL     1     -10.499  -5.333   8.389  0.00  0.00    -0.380 OA
ATOM     10  C   UNL     1     -12.090  -4.830  10.736  0.00  0.00    +0.062 C 
ATOM     15  C   UNL     1     -12.120  -6.169   9.995  0.00  0.00    +0.047 C 
ATOM     16  C   UNL     1     -11.660  -3.712   9.780  0.00  0.00    +0.047 C 
ATOM     17  C   UNL     1     -10.796  -6.409   9.278  0.00  0.00    +0.161 C 
ATOM     18  C   UNL     1     -10.361  -4.088   9.075  0.00  0.00    +0.161 C 
ENDBRANCH   5  10
ENDBRANCH  19  11
TORSDOF 6
ENDMDL
MODEL 5
REMARK VINA RESULT:      -6.3      2.129      2.668
REMARK  Name = 45783640
REMARK  7 active torsions:
REMARK  status: ('A' for Active; 'I' for Inactive)
REMARK    1  A    between atoms: O_3  and  C_27
REMARK    2  A    between atoms: O_3  and  C_28
REMARK    3  A    between atoms: N_5  and  C_10
REMARK    4  A    between atoms: N_9  and  C_25
REMARK    5  A    between atoms: C_11  and  C_19
REMARK    6  A    between atoms: C_20  and  C_21
REMARK    7  A    between atoms: C_26  and  C_27
REMARK                            x       y       z     vdW  Elec       q    Type
REMARK                         _______ _______ _______ _____ _____    ______ ____
ROOT
ATOM      2  O   UNL     1      13.850   7.340  19.198  0.00  0.00    -0.336 OA
ATOM      6  N   UNL     1      15.590   8.597  19.836  0.00  0.00    -0.190 NA
ATOM      7  N   UNL     1      14.925   6.458  19.373  0.00  0.00    -0.056 NA
ATOM     19  C   UNL     1      14.328   8.577  19.490  0.00  0.00    +0.245 A 
ATOM     20  C   UNL     1      15.914   7.274  19.749  0.00  0.00    +0.204 A 
ENDROOT
BRANCH  20  21
ATOM      8  N   UNL     1      19.276   7.039  21.320  0.00  0.00    -0.239 NA
ATOM     21  C   UNL     1      17.235   6.802  20.044  0.00  0.00    +0.041 A 
ATOM     22  C   UNL     1      17.765   5.697  19.388  0.00  0.00    +0.016 A 
ATOM     23  C   UNL     1      18.024   7.432  20.993  0.00  0.00    +0.124 A 
ATOM     24  C   UNL     1      19.049   5.262  19.696  0.00  0.00    +0.044 A 
ATOM     25  C   UNL     1      19.757   5.961  20.660  0.00  0.00    +0.125 A 
BRANCH  25   9
ATOM      4  O   UNL     1      22.440   7.109  19.928  0.00  0.00    -0.273 OA
ATOM      9  N   UNL     1      21.049   5.515  20.962  0.00  0.00    -0.268 N 
ATOM     26  C   UNL     1      22.269   6.092  20.593  0.00  0.00    +0.244 C 
ATOM     29  H   UNL     1      21.080   4.664  21.519  0.00  0.00    +0.156 HD
BRANCH  26  27
ATOM     27  C   UNL     1      23.451   5.302  21.109  0.00  0.00    +0.255 C 
BRANCH  27   3
ATOM      3  O   UNL     1      24.639   5.896  20.631  0.00  0.00    -0.374 OA
ATOM     28  C   UNL     1      25.355   5.024  19.760  0.00  0.00    +0.194 C 
ENDBRANCH  27   3
ENDBRANCH  26  27
ENDBRANCH  25   9
ENDBRANCH  20  21
BRANCH  19  11
ATOM      5  N   UNL     1      13.600  10.790  20.365  0.00  0.00    -0.288 NA
ATOM     11  C   UNL     1      13.345   9.724  19.376  0.00  0.00    +0.146 C 
ATOM     12  C   UNL     1      13.139  12.038  19.755  0.00  0.00    +0.085 C 
ATOM     13  C   UNL     1      13.414  10.431  18.010  0.00  0.00    +0.030 C 
ATOM     14  C   UNL     1      13.650  11.900  18.335  0.00  0.00    +0.017 C 
BRANCH   5  10
ATOM      1  O   UNL     1      10.927  11.224  23.572  0.00  0.00    -0.380 OA
ATOM     10  C   UNL     1      12.965  10.543  21.657  0.00  0.00    +0.062 C 
ATOM     15  C   UNL     1      13.052  11.790  22.540  0.00  0.00    +0.047 C 
ATOM     16  C   UNL     1      11.501  10.127  21.481  0.00  0.00    +0.047 C 
ATOM     17  C   UNL     1      12.284  11.575  23.839  0.00  0.00    +0.161 C 
ATOM     18  C   UNL     1      10.819  10.003  22.839  0.00  0.00    +0.161 C 
ENDBRANCH   5  10
ENDBRANCH  19  11
TORSDOF 6
ENDMDL
MODEL 6
REMARK VINA RESULT:      -6.3      1.791      2.373
REMARK  Name = 45783640
REMARK  7 active torsions:
REMARK  status: ('A' for Active; 'I' for Inactive)
REMARK    1  A    between atoms: O_3  and  C_27
REMARK    2  A    between atoms: O_3  and  C_28
REMARK    3  A    between atoms: N_5  and  C_10
REMARK    4  A    between atoms: N_9  and  C_25
REMARK    5  A    between atoms: C_11  and  C_19
REMARK    6  A    between atoms: C_20  and  C_21
REMARK    7  A    between atoms: C_26  and  C_27
REMARK                            x       y       z     vdW  Elec       q    Type
REMARK                         _______ _______ _______ _____ _____    ______ ____
ROOT
ATOM      2  O   UNL     1      15.474   6.291  18.773  0.00  0.00    -0.336 OA
ATOM      6  N   UNL     1      16.337   7.050  20.695  0.00  0.00    -0.190 NA
ATOM      7  N   UNL     1      16.786   5.802  18.831  0.00  0.00    -0.056 NA
ATOM     19  C   UNL     1      15.292   7.015  19.907  0.00  0.00    +0.245 A 
ATOM     20  C   UNL     1      17.228   6.293  19.992  0.00  0.00    +0.204 A 
ENDROOT
BRANCH  20  21
ATOM      8  N   UNL     1      20.591   4.748  20.356  0.00  0.00    -0.239 NA
ATOM     21  C   UNL     1      18.554   6.045  20.480  0.00  0.00    +0.041 A 
ATOM     22  C   UNL     1      19.096   6.813  21.504  0.00  0.00    +0.016 A 
ATOM     23  C   UNL     1      19.335   5.034  19.944  0.00  0.00    +0.124 A 
ATOM     24  C   UNL     1      20.385   6.549  21.956  0.00  0.00    +0.044 A 
ATOM     25  C   UNL     1      21.084   5.515  21.354  0.00  0.00    +0.125 A 
BRANCH  25   9
ATOM      4  O   UNL     1      22.080   3.497  23.351  0.00  0.00    -0.273 OA
ATOM      9  N   UNL     1      22.380   5.258  21.817  0.00  0.00    -0.268 N 
ATOM     26  C   UNL     1      22.787   4.301  22.752  0.00  0.00    +0.244 C 
ATOM     29  H   UNL     1      23.097   5.853  21.409  0.00  0.00    +0.156 HD
BRANCH  26  27
ATOM     27  C   UNL     1      24.280   4.342  22.993  0.00  0.00    +0.255 C 
BRANCH  27   3
ATOM      3  O   UNL     1      24.933   4.591  21.766  0.00  0.00    -0.374 OA
ATOM     28  C   UNL     1      26.038   3.713  21.566  0.00  0.00    +0.194 C 
ENDBRANCH  27   3
ENDBRANCH  26  27
ENDBRANCH  25   9
ENDBRANCH  20  21
BRANCH  19  11
ATOM      5  N   UNL     1      13.893   9.049  19.591  0.00  0.00    -0.288 NA
ATOM     11  C   UNL     1      13.933   7.659  20.086  0.00  0.00    +0.146 C 
ATOM     12  C   UNL     1      12.516   9.296  19.162  0.00  0.00    +0.085 C 
ATOM     13  C   UNL     1      12.824   6.933  19.302  0.00  0.00    +0.030 C 
ATOM     14  C   UNL     1      12.178   8.008  18.439  0.00  0.00    +0.017 C 
BRANCH   5  10
ATOM      1  O   UNL     1      13.689  11.992  22.578  0.00  0.00    -0.380 OA
ATOM     10  C   UNL     1      14.343  10.026  20.580  0.00  0.00    +0.062 C 
ATOM     15  C   UNL     1      13.830  11.423  20.221  0.00  0.00    +0.047 C 
ATOM     16  C   UNL     1      13.875   9.642  21.988  0.00  0.00    +0.047 C 
ATOM     17  C   UNL     1      14.195  12.420  21.314  0.00  0.00    +0.161 C 
ATOM     18  C   UNL     1      14.238  10.738  22.984  0.00  0.00    +0.161 C 
ENDBRANCH   5  10
ENDBRANCH  19  11
TORSDOF 6
ENDMDL
MODEL 7
REMARK VINA RESULT:      -6.2     26.592     31.012
REMARK  Name = 45783640
REMARK  7 active torsions:
REMARK  status: ('A' for Active; 'I' for Inactive)
REMARK    1  A    between atoms: O_3  and  C_27
REMARK    2  A    between atoms: O_3  and  C_28
REMARK    3  A    between atoms: N_5  and  C_10
REMARK    4  A    between atoms: N_9  and  C_25
REMARK    5  A    between atoms: C_11  and  C_19
REMARK    6  A    between atoms: C_20  and  C_21
REMARK    7  A    between atoms: C_26  and  C_27
REMARK                            x       y       z     vdW  Elec       q    Type
REMARK                         _______ _______ _______ _____ _____    ______ ____
ROOT
ATOM      2  O   UNL     1      -4.614 -10.803  17.373  0.00  0.00    -0.336 OA
ATOM      6  N   UNL     1      -5.631 -10.211  15.468  0.00  0.00    -0.190 NA
ATOM      7  N   UNL     1      -5.894 -10.361  17.735  0.00  0.00    -0.056 NA
ATOM     19  C   UNL     1      -4.542 -10.681  16.023  0.00  0.00    +0.245 A 
ATOM     20  C   UNL     1      -6.431 -10.029  16.558  0.00  0.00    +0.204 A 
ENDROOT
BRANCH  20  21
ATOM      8  N   UNL     1      -9.661  -9.009  15.023  0.00  0.00    -0.239 NA
ATOM     21  C   UNL     1      -7.764  -9.514  16.435  0.00  0.00    +0.041 A 
ATOM     22  C   UNL     1      -8.451  -9.031  17.543  0.00  0.00    +0.016 A 
ATOM     23  C   UNL     1      -8.407  -9.481  15.208  0.00  0.00    +0.124 A 
ATOM     24  C   UNL     1      -9.742  -8.537  17.393  0.00  0.00    +0.044 A 
ATOM     25  C   UNL     1     -10.297  -8.548  16.123  0.00  0.00    +0.125 A 
BRANCH  25   9
ATOM      4  O   UNL     1     -11.284  -5.718  15.864  0.00  0.00    -0.273 OA
ATOM      9  N   UNL     1     -11.597  -8.049  15.984  0.00  0.00    -0.268 N 
ATOM     26  C   UNL     1     -12.000  -6.714  15.866  0.00  0.00    +0.244 C 
ATOM     29  H   UNL     1     -12.322  -8.763  15.968  0.00  0.00    +0.156 HD
BRANCH  26  27
ATOM     27  C   UNL     1     -13.502  -6.583  15.742  0.00  0.00    +0.255 C 
BRANCH  27   3
ATOM      3  O   UNL     1     -13.871  -6.835  14.402  0.00  0.00    -0.374 OA
ATOM     28  C   UNL     1     -14.883  -5.939  13.953  0.00  0.00    +0.194 C 
ENDBRANCH  27   3
ENDBRANCH  26  27
ENDBRANCH  25   9
ENDBRANCH  20  21
BRANCH  19  11
ATOM      5  N   UNL     1      -2.999 -10.420  14.088  0.00  0.00    -0.288 NA
ATOM     11  C   UNL     1      -3.239 -11.101  15.376  0.00  0.00    +0.146 C 
ATOM     12  C   UNL     1      -1.547 -10.327  13.933  0.00  0.00    +0.085 C 
ATOM     13  C   UNL     1      -2.010 -10.755  16.237  0.00  0.00    +0.030 C 
ATOM     14  C   UNL     1      -1.109  -9.930  15.329  0.00  0.00    +0.017 C 
BRANCH   5  10
ATOM      1  O   UNL     1      -3.479 -11.985  10.222  0.00  0.00    -0.380 OA
ATOM     10  C   UNL     1      -3.630 -11.092  12.955  0.00  0.00    +0.062 C 
ATOM     15  C   UNL     1      -3.755 -10.132  11.769  0.00  0.00    +0.047 C 
ATOM     16  C   UNL     1      -2.838 -12.336  12.540  0.00  0.00    +0.047 C 
ATOM     17  C   UNL     1      -4.300 -10.864  10.548  0.00  0.00    +0.161 C 
ATOM     18  C   UNL     1      -3.434 -12.947  11.276  0.00  0.00    +0.161 C 
ENDBRANCH   5  10
ENDBRANCH  19  11
TORSDOF 6
ENDMDL
MODEL 8
REMARK VINA RESULT:      -6.2      2.570      3.500
REMARK  Name = 45783640
REMARK  7 active torsions:
REMARK  status: ('A' for Active; 'I' for Inactive)
REMARK    1  A    between atoms: O_3  and  C_27
REMARK    2  A    between atoms: O_3  and  C_28
REMARK    3  A    between atoms: N_5  and  C_10
REMARK    4  A    between atoms: N_9  and  C_25
REMARK    5  A    between atoms: C_11  and  C_19
REMARK    6  A    between atoms: C_20  and  C_21
REMARK    7  A    between atoms: C_26  and  C_27
REMARK                            x       y       z     vdW  Elec       q    Type
REMARK                         _______ _______ _______ _____ _____    ______ ____
ROOT
ATOM      2  O   UNL     1      14.193   6.726  20.032  0.00  0.00    -0.336 OA
ATOM      6  N   UNL     1      15.545   7.669  21.548  0.00  0.00    -0.190 NA
ATOM      7  N   UNL     1      15.490   6.295  19.720  0.00  0.00    -0.056 NA
ATOM     19  C   UNL     1      14.316   7.531  21.119  0.00  0.00    +0.245 A 
ATOM     20  C   UNL     1      16.229   6.893  20.658  0.00  0.00    +0.204 A 
ENDROOT
BRANCH  20  21
ATOM      8  N   UNL     1      19.761   7.456  21.676  0.00  0.00    -0.239 NA
ATOM     21  C   UNL     1      17.652   6.737  20.735  0.00  0.00    +0.041 A 
ATOM     22  C   UNL     1      18.309   5.766  19.988  0.00  0.00    +0.016 A 
ATOM     23  C   UNL     1      18.417   7.550  21.557  0.00  0.00    +0.124 A 
ATOM     24  C   UNL     1      19.690   5.638  20.082  0.00  0.00    +0.044 A 
ATOM     25  C   UNL     1      20.364   6.500  20.934  0.00  0.00    +0.125 A 
BRANCH  25   9
ATOM      4  O   UNL     1      22.569   8.111  19.669  0.00  0.00    -0.273 OA
ATOM      9  N   UNL     1      21.754   6.363  21.022  0.00  0.00    -0.268 N 
ATOM     26  C   UNL     1      22.738   7.146  20.409  0.00  0.00    +0.244 C 
ATOM     29  H   UNL     1      22.063   5.593  21.609  0.00  0.00    +0.156 HD
BRANCH  26  27
ATOM     27  C   UNL     1      24.134   6.671  20.745  0.00  0.00    +0.255 C 
BRANCH  27   3
ATOM      3  O   UNL     1      25.046   7.717  20.484  0.00  0.00    -0.374 OA
ATOM     28  C   UNL     1      25.991   7.359  19.480  0.00  0.00    +0.194 C 
ENDBRANCH  27   3
ENDBRANCH  26  27
ENDBRANCH  25   9
ENDBRANCH  20  21
BRANCH  19  11
ATOM      5  N   UNL     1      12.575   9.292  20.872  0.00  0.00    -0.288 NA
ATOM     11  C   UNL     1      13.036   8.133  21.661  0.00  0.00    +0.146 C 
ATOM     12  C   UNL     1      11.118   9.325  20.998  0.00  0.00    +0.085 C 
ATOM     13  C   UNL     1      11.856   7.144  21.631  0.00  0.00    +0.030 C 
ATOM     14  C   UNL     1      10.758   7.860  20.857  0.00  0.00    +0.017 C 
BRANCH   5  10
ATOM      1  O   UNL     1      12.993  13.040  22.718  0.00  0.00    -0.380 OA
ATOM     10  C   UNL     1      13.191  10.551  21.283  0.00  0.00    +0.062 C 
ATOM     15  C   UNL     1      12.377  11.738  20.761  0.00  0.00    +0.047 C 
ATOM     16  C   UNL     1      13.315  10.632  22.808  0.00  0.00    +0.047 C 
ATOM     17  C   UNL     1      12.948  13.048  21.291  0.00  0.00    +0.161 C 
ATOM     18  C   UNL     1      13.835  12.004  23.226  0.00  0.00    +0.161 C 
ENDBRANCH   5  10
ENDBRANCH  19  11
TORSDOF 6
ENDMDL
MODEL 9
REMARK VINA RESULT:      -6.2     28.236     32.074
REMARK  Name = 45783640
REMARK  7 active torsions:
REMARK  status: ('A' for Active; 'I' for Inactive)
REMARK    1  A    between atoms: O_3  and  C_27
REMARK    2  A    between atoms: O_3  and  C_28
REMARK    3  A    between atoms: N_5  and  C_10
REMARK    4  A    between atoms: N_9  and  C_25
REMARK    5  A    between atoms: C_11  and  C_19
REMARK    6  A    between atoms: C_20  and  C_21
REMARK    7  A    between atoms: C_26  and  C_27
REMARK                            x       y       z     vdW  Elec       q    Type
REMARK                         _______ _______ _______ _____ _____    ______ ____
ROOT
ATOM      2  O   UNL     1      -9.299 -11.846  17.387  0.00  0.00    -0.336 OA
ATOM      6  N   UNL     1      -8.317  -9.870  17.007  0.00  0.00    -0.190 NA
ATOM      7  N   UNL     1     -10.289 -11.017  16.842  0.00  0.00    -0.056 NA
ATOM     19  C   UNL     1      -8.171 -11.093  17.451  0.00  0.00    +0.245 A 
ATOM     20  C   UNL     1      -9.633  -9.870  16.646  0.00  0.00    +0.204 A 
ENDROOT
BRANCH  20  21
ATOM      8  N   UNL     1     -11.285  -7.622  14.188  0.00  0.00    -0.239 NA
ATOM     21  C   UNL     1     -10.262  -8.707  16.092  0.00  0.00    +0.041 A 
ATOM     22  C   UNL     1     -10.465  -7.566  16.860  0.00  0.00    +0.016 A 
ATOM     23  C   UNL     1     -10.687  -8.684  14.773  0.00  0.00    +0.124 A 
ATOM     24  C   UNL     1     -11.077  -6.453  16.295  0.00  0.00    +0.044 A 
ATOM     25  C   UNL     1     -11.465  -6.531  14.966  0.00  0.00    +0.125 A 
BRANCH  25   9
ATOM      4  O   UNL     1     -14.038  -6.273  13.429  0.00  0.00    -0.273 OA
ATOM      9  N   UNL     1     -12.080  -5.405  14.407  0.00  0.00    -0.268 N 
ATOM     26  C   UNL     1     -13.284  -5.343  13.699  0.00  0.00    +0.244 C 
ATOM     29  H   UNL     1     -11.570  -4.536  14.546  0.00  0.00    +0.156 HD
BRANCH  26  27
ATOM     27  C   UNL     1     -13.607  -3.936  13.248  0.00  0.00    +0.255 C 
BRANCH  27   3
ATOM      3  O   UNL     1     -12.424  -3.325  12.778  0.00  0.00    -0.374 OA
ATOM     28  C   UNL     1     -12.252  -3.512  11.376  0.00  0.00    +0.194 C 
ENDBRANCH  27   3
ENDBRANCH  26  27
ENDBRANCH  25   9
ENDBRANCH  20  21
BRANCH  19  11
ATOM      5  N   UNL     1      -5.711 -10.976  17.806  0.00  0.00    -0.288 NA
ATOM     11  C   UNL     1      -6.939 -11.770  18.011  0.00  0.00    +0.146 C 
ATOM     12  C   UNL     1      -4.813 -11.309  18.913  0.00  0.00    +0.085 C 
ATOM     13  C   UNL     1      -7.018 -11.983  19.534  0.00  0.00    +0.030 C 
ATOM     14  C   UNL     1      -5.764 -11.326  20.093  0.00  0.00    +0.017 C 
BRANCH   5  10
ATOM      1  O   UNL     1      -2.902 -12.282  14.973  0.00  0.00    -0.380 OA
ATOM     10  C   UNL     1      -5.088 -11.203  16.505  0.00  0.00    +0.062 C 
ATOM     15  C   UNL     1      -3.714 -10.530  16.449  0.00  0.00    +0.047 C 
ATOM     16  C   UNL     1      -4.950 -12.701  16.213  0.00  0.00    +0.047 C 
ATOM     17  C   UNL     1      -3.010 -10.868  15.139  0.00  0.00    +0.161 C 
ATOM     18  C   UNL     1      -4.178 -12.919  14.916  0.00  0.00    +0.161 C 
ENDBRANCH   5  10
ENDBRANCH  19  11
TORSDOF 6
ENDMDL
MODEL 10
REMARK VINA RESULT:      -5.8     27.287     31.308
REMARK  Name = 45783640
REMARK  7 active torsions:
REMARK  status: ('A' for Active; 'I' for Inactive)
REMARK    1  A    between atoms: O_3  and  C_27
REMARK    2  A    between atoms: O_3  and  C_28
REMARK    3  A    between atoms: N_5  and  C_10
REMARK    4  A    between atoms: N_9  and  C_25
REMARK    5  A    between atoms: C_11  and  C_19
REMARK    6  A    between atoms: C_20  and  C_21
REMARK    7  A    between atoms: C_26  and  C_27
REMARK                            x       y       z     vdW  Elec       q    Type
REMARK                         _______ _______ _______ _____ _____    ______ ____
ROOT
ATOM      2  O   UNL     1     -10.105 -10.994  20.091  0.00  0.00    -0.336 OA
ATOM      6  N   UNL     1      -9.654  -9.785  18.260  0.00  0.00    -0.190 NA
ATOM      7  N   UNL     1      -8.753 -11.221  19.796  0.00  0.00    -0.056 NA
ATOM     19  C   UNL     1     -10.559 -10.139  19.138  0.00  0.00    +0.245 A 
ATOM     20  C   UNL     1      -8.564 -10.475  18.704  0.00  0.00    +0.204 A 
ENDROOT
BRANCH  20  21
ATOM      8  N   UNL     1      -4.965 -11.026  17.945  0.00  0.00    -0.239 NA
ATOM     21  C   UNL     1      -7.299 -10.396  18.033  0.00  0.00    +0.041 A 
ATOM     22  C   UNL     1      -7.150  -9.654  16.867  0.00  0.00    +0.016 A 
ATOM     23  C   UNL     1      -6.186 -11.058  18.527  0.00  0.00    +0.124 A 
ATOM     24  C   UNL     1      -5.911  -9.596  16.239  0.00  0.00    +0.044 A 
ATOM     25  C   UNL     1      -4.860 -10.294  16.813  0.00  0.00    +0.125 A 
BRANCH  25   9
ATOM      4  O   UNL     1      -3.323 -12.402  15.314  0.00  0.00    -0.273 OA
ATOM      9  N   UNL     1      -3.617 -10.229  16.173  0.00  0.00    -0.268 N 
ATOM     26  C   UNL     1      -2.947 -11.247  15.487  0.00  0.00    +0.244 C 
ATOM     29  H   UNL     1      -3.165  -9.319  16.226  0.00  0.00    +0.156 HD
BRANCH  26  27
ATOM     27  C   UNL     1      -1.615 -10.782  14.939  0.00  0.00    +0.255 C 
BRANCH  27   3
ATOM      3  O   UNL     1      -1.847  -9.972  13.805  0.00  0.00    -0.374 OA
ATOM     28  C   UNL     1      -1.916 -10.743  12.609  0.00  0.00    +0.194 C 
ENDBRANCH  27   3
ENDBRANCH  26  27
ENDBRANCH  25   9
ENDBRANCH  20  21
BRANCH  19  11
ATOM      5  N   UNL     1     -12.906 -10.623  18.470  0.00  0.00    -0.288 NA
ATOM     11  C   UNL     1     -12.013  -9.730  19.236  0.00  0.00    +0.146 C 
ATOM     12  C   UNL     1     -14.198 -10.605  19.158  0.00  0.00    +0.085 C 
ATOM     13  C   UNL     1     -12.550  -9.783  20.678  0.00  0.00    +0.030 C 
ATOM     14  C   UNL     1     -13.778 -10.679  20.613  0.00  0.00    +0.017 C 
BRANCH   5  10
ATOM      1  O   UNL     1     -11.813  -9.182  14.682  0.00  0.00    -0.380 OA
ATOM     10  C   UNL     1     -13.028 -10.248  17.064  0.00  0.00    +0.062 C 
ATOM     15  C   UNL     1     -12.745  -8.754  16.884  0.00  0.00    +0.047 C 
ATOM     16  C   UNL     1     -12.077 -11.071  16.189  0.00  0.00    +0.047 C 
ATOM     17  C   UNL     1     -12.752  -8.387  15.405  0.00  0.00    +0.161 C 
ATOM     18  C   UNL     1     -12.120 -10.575  14.747  0.00  0.00    +0.161 C 
ENDBRANCH   5  10
ENDBRANCH  19  11
TORSDOF 6
ENDMDL
