MODEL 1
REMARK VINA RESULT:      -6.6      0.000      0.000
REMARK  Name = 38028161
REMARK  9 active torsions:
REMARK  status: ('A' for Active; 'I' for Inactive)
REMARK    1  A    between atoms: N_4  and  C_15
REMARK    2  A    between atoms: C_8  and  C_12
REMARK    3  A    between atoms: C_9  and  C_15
REMARK    4  A    between atoms: C_11  and  C_16
REMARK    5  A    between atoms: C_12  and  C_17
REMARK    6  A    between atoms: C_12  and  C_18
REMARK    7  A    between atoms: C_13  and  C_19
REMARK    8  A    between atoms: C_16  and  C_20
REMARK    9  A    between atoms: C_23  and  C_26
REMARK                            x       y       z     vdW  Elec       q    Type
REMARK                         _______ _______ _______ _____ _____    ______ ____
ROOT
ATOM      8  C   UNL     1      15.570   8.861  20.944  0.00  0.00    +0.000 C 
ATOM      9  C   UNL     1      15.389   7.397  20.470  0.00  0.00    +0.032 C 
ATOM     10  C   UNL     1      14.878   9.075  22.298  0.00  0.00    +0.012 C 
ATOM     11  C   UNL     1      13.370   8.764  22.238  0.00  0.00    +0.023 C 
ATOM     13  C   UNL     1      13.094   7.449  21.537  0.00  0.00    -0.073 C 
ATOM     14  C   UNL     1      14.013   6.847  20.762  0.00  0.00    -0.022 C 
ATOM     19  C   UNL     1      11.752   6.819  21.785  0.00  0.00    +0.039 C 
ENDROOT
BRANCH   8  12
ATOM     12  C   UNL     1      17.049   9.245  21.051  0.00  0.00    -0.013 C 
ATOM     17  C   UNL     1      17.212  10.500  21.905  0.00  0.00    +0.007 C 
ATOM     18  C   UNL     1      17.859   8.089  21.628  0.00  0.00    +0.007 C 
ENDBRANCH   8  12
BRANCH   9  15
ATOM     15  C   UNL     1      15.687   7.260  18.973  0.00  0.00    +0.112 C 
BRANCH  15   4
ATOM      3  O   UNL     1      14.825   9.792  17.930  0.00  0.00    -0.270 OA
ATOM      4  N   UNL     1      14.513   7.509  18.197  0.00  0.00    -0.311 N 
ATOM     23  C   UNL     1      14.167   8.776  17.728  0.00  0.00    +0.247 C 
ATOM     30  H   UNL     1      13.957   6.705  17.920  0.00  0.00    +0.149 HD
BRANCH  23  26
ATOM      6  N   UNL     1      11.680   9.679  15.047  0.00  0.00    -0.243 NA
ATOM      7  N   UNL     1      10.568   8.333  16.707  0.00  0.00    -0.243 NA
ATOM     26  C   UNL     1      12.900   8.871  16.958  0.00  0.00    +0.073 A 
ATOM     27  C   UNL     1      12.813   9.572  15.772  0.00  0.00    +0.127 A 
ATOM     28  C   UNL     1      11.735   8.266  17.381  0.00  0.00    +0.127 A 
ATOM     29  C   UNL     1      10.611   9.045  15.565  0.00  0.00    +0.221 A 
ENDBRANCH  23  26
ENDBRANCH  15   4
ENDBRANCH   9  15
BRANCH  11  16
ATOM     16  C   UNL     1      12.596   9.910  21.578  0.00  0.00    +0.103 C 
BRANCH  16  20
ATOM      1  O   UNL     1      10.530   9.935  22.741  0.00  0.00    -0.276 OA
ATOM      2  O   UNL     1      13.000  13.522  25.085  0.00  0.00    -0.377 OA
ATOM      5  N   UNL     1      12.007  11.661  23.215  0.00  0.00    -0.297 N 
ATOM     20  C   UNL     1      11.613  10.497  22.559  0.00  0.00    +0.216 C 
ATOM     21  C   UNL     1      11.115  12.293  24.186  0.00  0.00    +0.136 C 
ATOM     22  C   UNL     1      13.229  12.424  22.933  0.00  0.00    +0.136 C 
ATOM     24  C   UNL     1      11.888  12.692  25.435  0.00  0.00    +0.179 C 
ATOM     25  C   UNL     1      13.913  12.823  24.234  0.00  0.00    +0.179 C 
ENDBRANCH  16  20
ENDBRANCH  11  16
TORSDOF 6
ENDMDL
MODEL 2
REMARK VINA RESULT:      -6.5     27.452     30.886
REMARK  Name = 38028161
REMARK  9 active torsions:
REMARK  status: ('A' for Active; 'I' for Inactive)
REMARK    1  A    between atoms: N_4  and  C_15
REMARK    2  A    between atoms: C_8  and  C_12
REMARK    3  A    between atoms: C_9  and  C_15
REMARK    4  A    between atoms: C_11  and  C_16
REMARK    5  A    between atoms: C_12  and  C_17
REMARK    6  A    between atoms: C_12  and  C_18
REMARK    7  A    between atoms: C_13  and  C_19
REMARK    8  A    between atoms: C_16  and  C_20
REMARK    9  A    between atoms: C_23  and  C_26
REMARK                            x       y       z     vdW  Elec       q    Type
REMARK                         _______ _______ _______ _____ _____    ______ ____
ROOT
ATOM      8  C   UNL     1     -15.527   5.911  31.467  0.00  0.00    +0.000 C 
ATOM      9  C   UNL     1     -15.287   7.111  32.417  0.00  0.00    +0.032 C 
ATOM     10  C   UNL     1     -16.068   4.707  32.252  0.00  0.00    +0.012 C 
ATOM     11  C   UNL     1     -15.107   4.260  33.369  0.00  0.00    +0.023 C 
ATOM     13  C   UNL     1     -14.612   5.435  34.188  0.00  0.00    -0.073 C 
ATOM     14  C   UNL     1     -14.713   6.702  33.753  0.00  0.00    -0.022 C 
ATOM     19  C   UNL     1     -14.038   5.122  35.543  0.00  0.00    +0.039 C 
ENDROOT
BRANCH   8  12
ATOM     12  C   UNL     1     -16.494   6.267  30.333  0.00  0.00    -0.013 C 
ATOM     17  C   UNL     1     -16.576   5.124  29.326  0.00  0.00    +0.007 C 
ATOM     18  C   UNL     1     -17.874   6.595  30.894  0.00  0.00    +0.007 C 
ENDBRANCH   8  12
BRANCH   9  15
ATOM     15  C   UNL     1     -14.374   8.157  31.766  0.00  0.00    +0.112 C 
BRANCH  15   4
ATOM      3  O   UNL     1     -11.788   9.187  31.065  0.00  0.00    -0.270 OA
ATOM      4  N   UNL     1     -13.344   8.563  32.669  0.00  0.00    -0.311 N 
ATOM     23  C   UNL     1     -12.110   9.055  32.242  0.00  0.00    +0.247 C 
ATOM     30  H   UNL     1     -13.563   8.558  33.661  0.00  0.00    +0.149 HD
BRANCH  23  26
ATOM      6  N   UNL     1     -10.606   9.671  35.640  0.00  0.00    -0.243 NA
ATOM      7  N   UNL     1      -8.939  10.136  33.963  0.00  0.00    -0.243 NA
ATOM     26  C   UNL     1     -11.137   9.408  33.306  0.00  0.00    +0.073 A 
ATOM     27  C   UNL     1     -11.464   9.357  34.646  0.00  0.00    +0.127 A 
ATOM     28  C   UNL     1      -9.847   9.808  33.022  0.00  0.00    +0.127 A 
ATOM     29  C   UNL     1      -9.378  10.047  35.233  0.00  0.00    +0.221 A 
ENDBRANCH  23  26
ENDBRANCH  15   4
ENDBRANCH   9  15
BRANCH  11  16
ATOM     16  C   UNL     1     -13.934   3.455  32.800  0.00  0.00    +0.103 C 
BRANCH  16  20
ATOM      1  O   UNL     1     -14.434   1.405  33.880  0.00  0.00    -0.276 OA
ATOM      2  O   UNL     1     -15.343   0.255  29.157  0.00  0.00    -0.377 OA
ATOM      5  N   UNL     1     -14.380   1.369  31.560  0.00  0.00    -0.297 N 
ATOM     20  C   UNL     1     -14.270   1.986  32.805  0.00  0.00    +0.216 C 
ATOM     21  C   UNL     1     -14.708  -0.054  31.474  0.00  0.00    +0.136 C 
ATOM     22  C   UNL     1     -14.070   1.995  30.270  0.00  0.00    +0.136 C 
ATOM     24  C   UNL     1     -15.769  -0.290  30.409  0.00  0.00    +0.179 C 
ATOM     25  C   UNL     1     -15.155   1.670  29.251  0.00  0.00    +0.179 C 
ENDBRANCH  16  20
ENDBRANCH  11  16
TORSDOF 6
ENDMDL
MODEL 3
REMARK VINA RESULT:      -6.5      2.829      5.646
REMARK  Name = 38028161
REMARK  9 active torsions:
REMARK  status: ('A' for Active; 'I' for Inactive)
REMARK    1  A    between atoms: N_4  and  C_15
REMARK    2  A    between atoms: C_8  and  C_12
REMARK    3  A    between atoms: C_9  and  C_15
REMARK    4  A    between atoms: C_11  and  C_16
REMARK    5  A    between atoms: C_12  and  C_17
REMARK    6  A    between atoms: C_12  and  C_18
REMARK    7  A    between atoms: C_13  and  C_19
REMARK    8  A    between atoms: C_16  and  C_20
REMARK    9  A    between atoms: C_23  and  C_26
REMARK                            x       y       z     vdW  Elec       q    Type
REMARK                         _______ _______ _______ _____ _____    ______ ____
ROOT
ATOM      8  C   UNL     1      13.153   8.693  19.065  0.00  0.00    +0.000 C 
ATOM      9  C   UNL     1      14.634   8.434  19.440  0.00  0.00    +0.032 C 
ATOM     10  C   UNL     1      12.913  10.192  18.834  0.00  0.00    +0.012 C 
ATOM     11  C   UNL     1      13.257  11.036  20.076  0.00  0.00    +0.023 C 
ATOM     13  C   UNL     1      14.597  10.648  20.667  0.00  0.00    -0.073 C 
ATOM     14  C   UNL     1      15.203   9.488  20.361  0.00  0.00    -0.022 C 
ATOM     19  C   UNL     1      15.248  11.647  21.584  0.00  0.00    +0.039 C 
ENDROOT
BRANCH   8  12
ATOM     12  C   UNL     1      12.735   7.904  17.821  0.00  0.00    -0.013 C 
ATOM     17  C   UNL     1      11.472   8.504  17.209  0.00  0.00    +0.007 C 
ATOM     18  C   UNL     1      13.869   7.876  16.802  0.00  0.00    +0.007 C 
ENDBRANCH   8  12
BRANCH   9  15
ATOM     15  C   UNL     1      14.808   7.051  20.077  0.00  0.00    +0.112 C 
BRANCH  15   4
ATOM      3  O   UNL     1      16.809   5.637  18.581  0.00  0.00    -0.270 OA
ATOM      4  N   UNL     1      16.168   6.836  20.461  0.00  0.00    -0.311 N 
ATOM     23  C   UNL     1      17.078   6.134  19.670  0.00  0.00    +0.247 C 
ATOM     30  H   UNL     1      16.489   7.285  21.313  0.00  0.00    +0.149 HD
BRANCH  23  26
ATOM      6  N   UNL     1      20.519   4.755  20.337  0.00  0.00    -0.243 NA
ATOM      7  N   UNL     1      20.216   6.744  21.663  0.00  0.00    -0.243 NA
ATOM     26  C   UNL     1      18.447   5.975  20.224  0.00  0.00    +0.073 A 
ATOM     27  C   UNL     1      19.271   4.931  19.855  0.00  0.00    +0.127 A 
ATOM     28  C   UNL     1      18.978   6.859  21.140  0.00  0.00    +0.127 A 
ATOM     29  C   UNL     1      20.922   5.684  21.224  0.00  0.00    +0.221 A 
ENDBRANCH  23  26
ENDBRANCH  15   4
ENDBRANCH   9  15
BRANCH  11  16
ATOM     16  C   UNL     1      12.147  10.946  21.129  0.00  0.00    +0.103 C 
BRANCH  16  20
ATOM      1  O   UNL     1      11.536  13.206  20.753  0.00  0.00    -0.276 OA
ATOM      2  O   UNL     1      10.796  12.803  25.627  0.00  0.00    -0.377 OA
ATOM      5  N   UNL     1      11.689  12.527  22.968  0.00  0.00    -0.297 N 
ATOM     20  C   UNL     1      11.765  12.330  21.590  0.00  0.00    +0.216 C 
ATOM     21  C   UNL     1      11.321  13.838  23.500  0.00  0.00    +0.136 C 
ATOM     22  C   UNL     1      12.075  11.548  23.990  0.00  0.00    +0.136 C 
ATOM     24  C   UNL     1      10.299  13.688  24.619  0.00  0.00    +0.179 C 
ATOM     25  C   UNL     1      11.025  11.496  25.093  0.00  0.00    +0.179 C 
ENDBRANCH  16  20
ENDBRANCH  11  16
TORSDOF 6
ENDMDL
MODEL 4
REMARK VINA RESULT:      -6.5      1.816      2.152
REMARK  Name = 38028161
REMARK  9 active torsions:
REMARK  status: ('A' for Active; 'I' for Inactive)
REMARK    1  A    between atoms: N_4  and  C_15
REMARK    2  A    between atoms: C_8  and  C_12
REMARK    3  A    between atoms: C_9  and  C_15
REMARK    4  A    between atoms: C_11  and  C_16
REMARK    5  A    between atoms: C_12  and  C_17
REMARK    6  A    between atoms: C_12  and  C_18
REMARK    7  A    between atoms: C_13  and  C_19
REMARK    8  A    between atoms: C_16  and  C_20
REMARK    9  A    between atoms: C_23  and  C_26
REMARK                            x       y       z     vdW  Elec       q    Type
REMARK                         _______ _______ _______ _____ _____    ______ ____
ROOT
ATOM      8  C   UNL     1      15.002   8.664  20.749  0.00  0.00    +0.000 C 
ATOM      9  C   UNL     1      14.627   7.180  20.512  0.00  0.00    +0.032 C 
ATOM     10  C   UNL     1      14.350   9.183  22.039  0.00  0.00    +0.012 C 
ATOM     11  C   UNL     1      12.815   9.067  22.004  0.00  0.00    +0.023 C 
ATOM     13  C   UNL     1      12.364   7.705  21.517  0.00  0.00    -0.073 C 
ATOM     14  C   UNL     1      13.191   6.869  20.865  0.00  0.00    -0.022 C 
ATOM     19  C   UNL     1      10.951   7.305  21.840  0.00  0.00    +0.039 C 
ENDROOT
BRANCH   8  12
ATOM     12  C   UNL     1      16.519   8.863  20.818  0.00  0.00    -0.013 C 
ATOM     17  C   UNL     1      16.855  10.128  21.603  0.00  0.00    +0.007 C 
ATOM     18  C   UNL     1      17.188   7.644  21.445  0.00  0.00    +0.007 C 
ENDBRANCH   8  12
BRANCH   9  15
ATOM     15  C   UNL     1      14.897   6.766  19.061  0.00  0.00    +0.112 C 
BRANCH  15   4
ATOM      3  O   UNL     1      12.643   7.393  17.399  0.00  0.00    -0.270 OA
ATOM      4  N   UNL     1      14.771   7.885  18.182  0.00  0.00    -0.311 N 
ATOM     23  C   UNL     1      13.635   8.116  17.406  0.00  0.00    +0.247 C 
ATOM     30  H   UNL     1      15.518   8.572  18.191  0.00  0.00    +0.149 HD
BRANCH  23  26
ATOM      6  N   UNL     1      12.779  10.554  14.665  0.00  0.00    -0.243 NA
ATOM      7  N   UNL     1      14.663  11.411  15.898  0.00  0.00    -0.243 NA
ATOM     26  C   UNL     1      13.672   9.309  16.522  0.00  0.00    +0.073 A 
ATOM     27  C   UNL     1      12.775   9.484  15.487  0.00  0.00    +0.127 A 
ATOM     28  C   UNL     1      14.602  10.315  16.682  0.00  0.00    +0.127 A 
ATOM     29  C   UNL     1      13.736  11.466  14.923  0.00  0.00    +0.221 A 
ENDBRANCH  23  26
ENDBRANCH  15   4
ENDBRANCH   9  15
BRANCH  11  16
ATOM     16  C   UNL     1      12.197  10.184  21.156  0.00  0.00    +0.103 C 
BRANCH  16  20
ATOM      1  O   UNL     1      10.752  10.650  22.977  0.00  0.00    -0.276 OA
ATOM      2  O   UNL     1      12.097  15.212  21.619  0.00  0.00    -0.377 OA
ATOM      5  N   UNL     1      11.454  12.470  21.718  0.00  0.00    -0.297 N 
ATOM     20  C   UNL     1      11.399  11.114  22.035  0.00  0.00    +0.216 C 
ATOM     21  C   UNL     1      10.714  13.440  22.522  0.00  0.00    +0.136 C 
ATOM     22  C   UNL     1      12.108  13.040  20.535  0.00  0.00    +0.136 C 
ATOM     24  C   UNL     1      11.586  14.649  22.830  0.00  0.00    +0.179 C 
ATOM     25  C   UNL     1      12.920  14.270  20.923  0.00  0.00    +0.179 C 
ENDBRANCH  16  20
ENDBRANCH  11  16
TORSDOF 6
ENDMDL
MODEL 5
REMARK VINA RESULT:      -6.5      3.206      6.971
REMARK  Name = 38028161
REMARK  9 active torsions:
REMARK  status: ('A' for Active; 'I' for Inactive)
REMARK    1  A    between atoms: N_4  and  C_15
REMARK    2  A    between atoms: C_8  and  C_12
REMARK    3  A    between atoms: C_9  and  C_15
REMARK    4  A    between atoms: C_11  and  C_16
REMARK    5  A    between atoms: C_12  and  C_17
REMARK    6  A    between atoms: C_12  and  C_18
REMARK    7  A    between atoms: C_13  and  C_19
REMARK    8  A    between atoms: C_16  and  C_20
REMARK    9  A    between atoms: C_23  and  C_26
REMARK                            x       y       z     vdW  Elec       q    Type
REMARK                         _______ _______ _______ _____ _____    ______ ____
ROOT
ATOM      8  C   UNL     1      12.418   8.455  20.969  0.00  0.00    +0.000 C 
ATOM      9  C   UNL     1      13.516   7.364  21.035  0.00  0.00    +0.032 C 
ATOM     10  C   UNL     1      11.612   8.327  19.669  0.00  0.00    +0.012 C 
ATOM     11  C   UNL     1      12.501   8.453  18.417  0.00  0.00    +0.023 C 
ATOM     13  C   UNL     1      13.751   7.602  18.526  0.00  0.00    -0.073 C 
ATOM     14  C   UNL     1      14.181   7.113  19.702  0.00  0.00    -0.022 C 
ATOM     19  C   UNL     1      14.469   7.288  17.243  0.00  0.00    +0.039 C 
ENDROOT
BRANCH   8  12
ATOM     12  C   UNL     1      11.474   8.385  22.174  0.00  0.00    -0.013 C 
ATOM     17  C   UNL     1      10.856   9.753  22.446  0.00  0.00    +0.007 C 
ATOM     18  C   UNL     1      10.390   7.338  21.940  0.00  0.00    +0.007 C 
ENDBRANCH   8  12
BRANCH   9  15
ATOM     15  C   UNL     1      14.582   7.715  22.080  0.00  0.00    +0.112 C 
BRANCH  15   4
ATOM      3  O   UNL     1      17.114   8.949  21.524  0.00  0.00    -0.270 OA
ATOM      4  N   UNL     1      15.813   7.047  21.794  0.00  0.00    -0.311 N 
ATOM     23  C   UNL     1      17.003   7.726  21.534  0.00  0.00    +0.247 C 
ATOM     30  H   UNL     1      15.820   6.033  21.861  0.00  0.00    +0.149 HD
BRANCH  23  26
ATOM      6  N   UNL     1      19.250   5.189  19.889  0.00  0.00    -0.243 NA
ATOM      7  N   UNL     1      20.452   6.222  21.703  0.00  0.00    -0.243 NA
ATOM     26  C   UNL     1      18.189   6.886  21.228  0.00  0.00    +0.073 A 
ATOM     27  C   UNL     1      18.191   5.969  20.195  0.00  0.00    +0.127 A 
ATOM     28  C   UNL     1      19.358   6.970  21.954  0.00  0.00    +0.127 A 
ATOM     29  C   UNL     1      20.331   5.365  20.672  0.00  0.00    +0.221 A 
ENDBRANCH  23  26
ENDBRANCH  15   4
ENDBRANCH   9  15
BRANCH  11  16
ATOM     16  C   UNL     1      12.857   9.917  18.138  0.00  0.00    +0.103 C 
BRANCH  16  20
ATOM      1  O   UNL     1      12.307   9.580  15.856  0.00  0.00    -0.276 OA
ATOM      2  O   UNL     1      15.776  13.088  15.506  0.00  0.00    -0.377 OA
ATOM      5  N   UNL     1      14.147  10.926  16.292  0.00  0.00    -0.297 N 
ATOM     20  C   UNL     1      13.072  10.119  16.659  0.00  0.00    +0.216 C 
ATOM     21  C   UNL     1      14.425  11.178  14.879  0.00  0.00    +0.136 C 
ATOM     22  C   UNL     1      15.149  11.478  17.211  0.00  0.00    +0.136 C 
ATOM     24  C   UNL     1      14.716  12.655  14.650  0.00  0.00    +0.179 C 
ATOM     25  C   UNL     1      15.415  12.942  16.883  0.00  0.00    +0.179 C 
ENDBRANCH  16  20
ENDBRANCH  11  16
TORSDOF 6
ENDMDL
MODEL 6
REMARK VINA RESULT:      -6.4      2.583      5.312
REMARK  Name = 38028161
REMARK  9 active torsions:
REMARK  status: ('A' for Active; 'I' for Inactive)
REMARK    1  A    between atoms: N_4  and  C_15
REMARK    2  A    between atoms: C_8  and  C_12
REMARK    3  A    between atoms: C_9  and  C_15
REMARK    4  A    between atoms: C_11  and  C_16
REMARK    5  A    between atoms: C_12  and  C_17
REMARK    6  A    between atoms: C_12  and  C_18
REMARK    7  A    between atoms: C_13  and  C_19
REMARK    8  A    between atoms: C_16  and  C_20
REMARK    9  A    between atoms: C_23  and  C_26
REMARK                            x       y       z     vdW  Elec       q    Type
REMARK                         _______ _______ _______ _____ _____    ______ ____
ROOT
ATOM      8  C   UNL     1      12.209   8.570  20.698  0.00  0.00    +0.000 C 
ATOM      9  C   UNL     1      12.764   8.187  19.303  0.00  0.00    +0.032 C 
ATOM     10  C   UNL     1      11.695  10.017  20.692  0.00  0.00    +0.012 C 
ATOM     11  C   UNL     1      12.795  11.025  20.311  0.00  0.00    +0.023 C 
ATOM     13  C   UNL     1      13.571  10.576  19.089  0.00  0.00    -0.073 C 
ATOM     14  C   UNL     1      13.534   9.308  18.645  0.00  0.00    -0.022 C 
ATOM     19  C   UNL     1      14.354  11.633  18.359  0.00  0.00    +0.039 C 
ENDROOT
BRANCH   8  12
ATOM     12  C   UNL     1      11.090   7.624  21.145  0.00  0.00    -0.013 C 
ATOM     17  C   UNL     1      11.662   6.257  21.509  0.00  0.00    +0.007 C 
ATOM     18  C   UNL     1      10.325   8.222  22.322  0.00  0.00    +0.007 C 
ENDBRANCH   8  12
BRANCH   9  15
ATOM     15  C   UNL     1      13.649   6.938  19.385  0.00  0.00    +0.112 C 
BRANCH  15   4
ATOM      3  O   UNL     1      16.228   5.897  18.674  0.00  0.00    -0.270 OA
ATOM      4  N   UNL     1      14.894   7.238  20.018  0.00  0.00    -0.311 N 
ATOM     23  C   UNL     1      16.107   6.686  19.607  0.00  0.00    +0.247 C 
ATOM     30  H   UNL     1      14.888   7.944  20.748  0.00  0.00    +0.149 HD
BRANCH  23  26
ATOM      6  N   UNL     1      19.574   6.651  21.080  0.00  0.00    -0.243 NA
ATOM      7  N   UNL     1      18.415   8.604  21.884  0.00  0.00    -0.243 NA
ATOM     26  C   UNL     1      17.309   7.078  20.388  0.00  0.00    +0.073 A 
ATOM     27  C   UNL     1      18.465   6.325  20.384  0.00  0.00    +0.127 A 
ATOM     28  C   UNL     1      17.342   8.219  21.164  0.00  0.00    +0.127 A 
ATOM     29  C   UNL     1      19.482   7.786  21.799  0.00  0.00    +0.221 A 
ENDBRANCH  23  26
ENDBRANCH  15   4
ENDBRANCH   9  15
BRANCH  11  16
ATOM     16  C   UNL     1      13.736  11.288  21.491  0.00  0.00    +0.103 C 
BRANCH  16  20
ATOM      1  O   UNL     1      13.728  13.654  21.635  0.00  0.00    -0.276 OA
ATOM      2  O   UNL     1      10.582  12.455  25.258  0.00  0.00    -0.377 OA
ATOM      5  N   UNL     1      12.644  12.508  23.338  0.00  0.00    -0.297 N 
ATOM     20  C   UNL     1      13.375  12.593  22.155  0.00  0.00    +0.216 C 
ATOM     21  C   UNL     1      12.249  13.726  24.043  0.00  0.00    +0.136 C 
ATOM     22  C   UNL     1      12.317  11.266  24.048  0.00  0.00    +0.136 C 
ATOM     24  C   UNL     1      10.793  13.637  24.480  0.00  0.00    +0.179 C 
ATOM     25  C   UNL     1      10.859  11.280  24.491  0.00  0.00    +0.179 C 
ENDBRANCH  16  20
ENDBRANCH  11  16
TORSDOF 6
ENDMDL
MODEL 7
REMARK VINA RESULT:      -6.3      2.781      5.624
REMARK  Name = 38028161
REMARK  9 active torsions:
REMARK  status: ('A' for Active; 'I' for Inactive)
REMARK    1  A    between atoms: N_4  and  C_15
REMARK    2  A    between atoms: C_8  and  C_12
REMARK    3  A    between atoms: C_9  and  C_15
REMARK    4  A    between atoms: C_11  and  C_16
REMARK    5  A    between atoms: C_12  and  C_17
REMARK    6  A    between atoms: C_12  and  C_18
REMARK    7  A    between atoms: C_13  and  C_19
REMARK    8  A    between atoms: C_16  and  C_20
REMARK    9  A    between atoms: C_23  and  C_26
REMARK                            x       y       z     vdW  Elec       q    Type
REMARK                         _______ _______ _______ _____ _____    ______ ____
ROOT
ATOM      8  C   UNL     1      13.003  10.035  20.596  0.00  0.00    +0.000 C 
ATOM      9  C   UNL     1      12.069   8.935  20.031  0.00  0.00    +0.032 C 
ATOM     10  C   UNL     1      12.989  11.270  19.683  0.00  0.00    +0.012 C 
ATOM     11  C   UNL     1      13.438  10.939  18.247  0.00  0.00    +0.023 C 
ATOM     13  C   UNL     1      12.752   9.696  17.716  0.00  0.00    -0.073 C 
ATOM     14  C   UNL     1      12.134   8.820  18.526  0.00  0.00    -0.022 C 
ATOM     19  C   UNL     1      12.753   9.509  16.224  0.00  0.00    +0.039 C 
ENDROOT
BRANCH   8  12
ATOM     12  C   UNL     1      12.610  10.439  22.020  0.00  0.00    -0.013 C 
ATOM     17  C   UNL     1      13.413  11.656  22.469  0.00  0.00    +0.007 C 
ATOM     18  C   UNL     1      11.112  10.719  22.100  0.00  0.00    +0.007 C 
ENDBRANCH   8  12
BRANCH   9  15
ATOM     15  C   UNL     1      12.377   7.572  20.662  0.00  0.00    +0.112 C 
BRANCH  15   4
ATOM      3  O   UNL     1      14.732   7.565  22.304  0.00  0.00    -0.270 OA
ATOM      4  N   UNL     1      13.679   7.120  20.285  0.00  0.00    -0.311 N 
ATOM     23  C   UNL     1      14.773   7.152  21.149  0.00  0.00    +0.247 C 
ATOM     30  H   UNL     1      13.776   6.690  19.370  0.00  0.00    +0.149 HD
BRANCH  23  26
ATOM      6  N   UNL     1      17.334   5.752  18.768  0.00  0.00    -0.243 NA
ATOM      7  N   UNL     1      18.417   6.240  20.864  0.00  0.00    -0.243 NA
ATOM     26  C   UNL     1      16.065   6.671  20.595  0.00  0.00    +0.073 A 
ATOM     27  C   UNL     1      16.178   6.197  19.303  0.00  0.00    +0.127 A 
ATOM     28  C   UNL     1      17.229   6.670  21.335  0.00  0.00    +0.127 A 
ATOM     29  C   UNL     1      18.399   5.801  19.591  0.00  0.00    +0.221 A 
ENDBRANCH  23  26
ENDBRANCH  15   4
ENDBRANCH   9  15
BRANCH  11  16
ATOM     16  C   UNL     1      14.961  10.803  18.163  0.00  0.00    +0.103 C 
BRANCH  16  20
ATOM      1  O   UNL     1      15.402  13.128  18.298  0.00  0.00    -0.276 OA
ATOM      2  O   UNL     1      17.491  11.505  22.477  0.00  0.00    -0.377 OA
ATOM      5  N   UNL     1      16.447  11.781  19.873  0.00  0.00    -0.297 N 
ATOM     20  C   UNL     1      15.620  12.012  18.776  0.00  0.00    +0.216 C 
ATOM     21  C   UNL     1      17.121  12.900  20.531  0.00  0.00    +0.136 C 
ATOM     22  C   UNL     1      16.827  10.461  20.389  0.00  0.00    +0.136 C 
ATOM     24  C   UNL     1      17.000  12.776  22.044  0.00  0.00    +0.179 C 
ATOM     25  C   UNL     1      16.725  10.439  21.909  0.00  0.00    +0.179 C 
ENDBRANCH  16  20
ENDBRANCH  11  16
TORSDOF 6
ENDMDL
MODEL 8
REMARK VINA RESULT:      -6.3     25.997     29.020
REMARK  Name = 38028161
REMARK  9 active torsions:
REMARK  status: ('A' for Active; 'I' for Inactive)
REMARK    1  A    between atoms: N_4  and  C_15
REMARK    2  A    between atoms: C_8  and  C_12
REMARK    3  A    between atoms: C_9  and  C_15
REMARK    4  A    between atoms: C_11  and  C_16
REMARK    5  A    between atoms: C_12  and  C_17
REMARK    6  A    between atoms: C_12  and  C_18
REMARK    7  A    between atoms: C_13  and  C_19
REMARK    8  A    between atoms: C_16  and  C_20
REMARK    9  A    between atoms: C_23  and  C_26
REMARK                            x       y       z     vdW  Elec       q    Type
REMARK                         _______ _______ _______ _____ _____    ______ ____
ROOT
ATOM      8  C   UNL     1      -5.113 -12.251  16.099  0.00  0.00    +0.000 C 
ATOM      9  C   UNL     1      -4.262 -11.674  17.258  0.00  0.00    +0.032 C 
ATOM     10  C   UNL     1      -4.207 -12.727  14.954  0.00  0.00    +0.012 C 
ATOM     11  C   UNL     1      -3.328 -11.593  14.395  0.00  0.00    +0.023 C 
ATOM     13  C   UNL     1      -2.661 -10.801  15.503  0.00  0.00    -0.073 C 
ATOM     14  C   UNL     1      -3.083 -10.860  16.777  0.00  0.00    -0.022 C 
ATOM     19  C   UNL     1      -1.465  -9.974  15.117  0.00  0.00    +0.039 C 
ENDROOT
BRANCH   8  12
ATOM     12  C   UNL     1      -6.005 -13.404  16.568  0.00  0.00    -0.013 C 
ATOM     17  C   UNL     1      -7.384 -13.308  15.920  0.00  0.00    +0.007 C 
ATOM     18  C   UNL     1      -5.352 -14.746  16.252  0.00  0.00    +0.007 C 
ENDBRANCH   8  12
BRANCH   9  15
ATOM     15  C   UNL     1      -5.118 -10.824  18.203  0.00  0.00    +0.112 C 
BRANCH  15   4
ATOM      3  O   UNL     1      -7.910 -10.693  18.860  0.00  0.00    -0.270 OA
ATOM      4  N   UNL     1      -6.134 -10.126  17.478  0.00  0.00    -0.311 N 
ATOM     23  C   UNL     1      -7.473 -10.115  17.869  0.00  0.00    +0.247 C 
ATOM     30  H   UNL     1      -5.839  -9.558  16.690  0.00  0.00    +0.149 HD
BRANCH  23  26
ATOM      6  N   UNL     1     -10.086  -7.662  16.711  0.00  0.00    -0.243 NA
ATOM      7  N   UNL     1      -9.361  -8.964  14.819  0.00  0.00    -0.243 NA
ATOM     26  C   UNL     1      -8.409  -9.366  16.993  0.00  0.00    +0.073 A 
ATOM     27  C   UNL     1      -9.224  -8.363  17.478  0.00  0.00    +0.127 A 
ATOM     28  C   UNL     1      -8.521  -9.625  15.642  0.00  0.00    +0.127 A 
ATOM     29  C   UNL     1     -10.103  -8.009  15.410  0.00  0.00    +0.221 A 
ENDBRANCH  23  26
ENDBRANCH  15   4
ENDBRANCH   9  15
BRANCH  11  16
ATOM     16  C   UNL     1      -4.133 -10.673  13.473  0.00  0.00    +0.103 C 
BRANCH  16  20
ATOM      1  O   UNL     1      -2.407 -11.190  11.933  0.00  0.00    -0.276 OA
ATOM      2  O   UNL     1      -5.652  -8.876   9.004  0.00  0.00    -0.377 OA
ATOM      5  N   UNL     1      -4.095  -9.793  11.167  0.00  0.00    -0.297 N 
ATOM     20  C   UNL     1      -3.461 -10.579  12.127  0.00  0.00    +0.216 C 
ATOM     21  C   UNL     1      -3.512  -9.652   9.834  0.00  0.00    +0.136 C 
ATOM     22  C   UNL     1      -5.277  -8.955  11.400  0.00  0.00    +0.136 C 
ATOM     24  C   UNL     1      -4.588  -9.801   8.766  0.00  0.00    +0.179 C 
ATOM     25  C   UNL     1      -6.278  -9.128  10.265  0.00  0.00    +0.179 C 
ENDBRANCH  16  20
ENDBRANCH  11  16
TORSDOF 6
ENDMDL
MODEL 9
REMARK VINA RESULT:      -6.2     26.266     29.256
REMARK  Name = 38028161
REMARK  9 active torsions:
REMARK  status: ('A' for Active; 'I' for Inactive)
REMARK    1  A    between atoms: N_4  and  C_15
REMARK    2  A    between atoms: C_8  and  C_12
REMARK    3  A    between atoms: C_9  and  C_15
REMARK    4  A    between atoms: C_11  and  C_16
REMARK    5  A    between atoms: C_12  and  C_17
REMARK    6  A    between atoms: C_12  and  C_18
REMARK    7  A    between atoms: C_13  and  C_19
REMARK    8  A    between atoms: C_16  and  C_20
REMARK    9  A    between atoms: C_23  and  C_26
REMARK                            x       y       z     vdW  Elec       q    Type
REMARK                         _______ _______ _______ _____ _____    ______ ____
ROOT
ATOM      8  C   UNL     1      -2.971 -12.290  13.093  0.00  0.00    +0.000 C 
ATOM      9  C   UNL     1      -1.887 -11.184  13.046  0.00  0.00    +0.032 C 
ATOM     10  C   UNL     1      -3.393 -12.686  11.670  0.00  0.00    +0.012 C 
ATOM     11  C   UNL     1      -3.949 -11.491  10.873  0.00  0.00    +0.023 C 
ATOM     13  C   UNL     1      -3.063 -10.268  11.001  0.00  0.00    -0.073 C 
ATOM     14  C   UNL     1      -2.138 -10.154  11.969  0.00  0.00    -0.022 C 
ATOM     19  C   UNL     1      -3.233  -9.197   9.959  0.00  0.00    +0.039 C 
ENDROOT
BRANCH   8  12
ATOM     12  C   UNL     1      -2.488 -13.528  13.853  0.00  0.00    -0.013 C 
ATOM     17  C   UNL     1      -3.593 -14.061  14.760  0.00  0.00    +0.007 C 
ATOM     18  C   UNL     1      -2.023 -14.605  12.878  0.00  0.00    +0.007 C 
ENDBRANCH   8  12
BRANCH   9  15
ATOM     15  C   UNL     1      -1.754 -10.482  14.403  0.00  0.00    +0.112 C 
BRANCH  15   4
ATOM      3  O   UNL     1      -2.545 -11.129  17.086  0.00  0.00    -0.270 OA
ATOM      4  N   UNL     1      -3.039 -10.266  14.990  0.00  0.00    -0.311 N 
ATOM     23  C   UNL     1      -3.340 -10.611  16.307  0.00  0.00    +0.247 C 
ATOM     30  H   UNL     1      -3.729  -9.769  14.434  0.00  0.00    +0.149 HD
BRANCH  23  26
ATOM      6  N   UNL     1      -6.409 -10.408  18.482  0.00  0.00    -0.243 NA
ATOM      7  N   UNL     1      -6.951  -9.538  16.301  0.00  0.00    -0.243 NA
ATOM     26  C   UNL     1      -4.730 -10.345  16.757  0.00  0.00    +0.073 A 
ATOM     27  C   UNL     1      -5.155 -10.636  18.038  0.00  0.00    +0.127 A 
ATOM     28  C   UNL     1      -5.681  -9.792  15.925  0.00  0.00    +0.127 A 
ATOM     29  C   UNL     1      -7.243  -9.866  17.574  0.00  0.00    +0.221 A 
ENDBRANCH  23  26
ENDBRANCH  15   4
ENDBRANCH   9  15
BRANCH  11  16
ATOM     16  C   UNL     1      -5.388 -11.170  11.290  0.00  0.00    +0.103 C 
BRANCH  16  20
ATOM      1  O   UNL     1      -6.468 -12.897  10.077  0.00  0.00    -0.276 OA
ATOM      2  O   UNL     1      -9.038  -8.934   8.610  0.00  0.00    -0.377 OA
ATOM      5  N   UNL     1      -7.063 -10.720   9.535  0.00  0.00    -0.297 N 
ATOM     20  C   UNL     1      -6.350 -11.681  10.248  0.00  0.00    +0.216 C 
ATOM     21  C   UNL     1      -8.021 -11.130   8.509  0.00  0.00    +0.136 C 
ATOM     22  C   UNL     1      -6.858  -9.270   9.623  0.00  0.00    +0.136 C 
ATOM     24  C   UNL     1      -9.313 -10.337   8.642  0.00  0.00    +0.179 C 
ATOM     25  C   UNL     1      -8.199  -8.551   9.704  0.00  0.00    +0.179 C 
ENDBRANCH  16  20
ENDBRANCH  11  16
TORSDOF 6
ENDMDL
MODEL 10
REMARK VINA RESULT:      -6.2      3.161      6.574
REMARK  Name = 38028161
REMARK  9 active torsions:
REMARK  status: ('A' for Active; 'I' for Inactive)
REMARK    1  A    between atoms: N_4  and  C_15
REMARK    2  A    between atoms: C_8  and  C_12
REMARK    3  A    between atoms: C_9  and  C_15
REMARK    4  A    between atoms: C_11  and  C_16
REMARK    5  A    between atoms: C_12  and  C_17
REMARK    6  A    between atoms: C_12  and  C_18
REMARK    7  A    between atoms: C_13  and  C_19
REMARK    8  A    between atoms: C_16  and  C_20
REMARK    9  A    between atoms: C_23  and  C_26
REMARK                            x       y       z     vdW  Elec       q    Type
REMARK                         _______ _______ _______ _____ _____    ______ ____
ROOT
ATOM      8  C   UNL     1      13.169   9.947  20.010  0.00  0.00    +0.000 C 
ATOM      9  C   UNL     1      12.042   8.903  19.810  0.00  0.00    +0.032 C 
ATOM     10  C   UNL     1      13.061  11.061  18.958  0.00  0.00    +0.012 C 
ATOM     11  C   UNL     1      13.151  10.516  17.520  0.00  0.00    +0.023 C 
ATOM     13  C   UNL     1      12.260   9.306  17.321  0.00  0.00    -0.073 C 
ATOM     14  C   UNL     1      11.762   8.607  18.355  0.00  0.00    -0.022 C 
ATOM     19  C   UNL     1      11.915   8.947  15.901  0.00  0.00    +0.039 C 
ENDROOT
BRANCH   8  12
ATOM     12  C   UNL     1      13.137  10.556  21.415  0.00  0.00    -0.013 C 
ATOM     17  C   UNL     1      14.475  11.212  21.742  0.00  0.00    +0.007 C 
ATOM     18  C   UNL     1      11.997  11.564  21.533  0.00  0.00    +0.007 C 
ENDBRANCH   8  12
BRANCH   9  15
ATOM     15  C   UNL     1      12.361   7.597  20.545  0.00  0.00    +0.112 C 
BRANCH  15   4
ATOM      3  O   UNL     1      14.683   7.583  22.233  0.00  0.00    -0.270 OA
ATOM      4  N   UNL     1      13.665   7.125  20.199  0.00  0.00    -0.311 N 
ATOM     23  C   UNL     1      14.743   7.155  21.084  0.00  0.00    +0.247 C 
ATOM     30  H   UNL     1      13.776   6.682  19.292  0.00  0.00    +0.149 HD
BRANCH  23  26
ATOM      6  N   UNL     1      18.369   6.150  20.902  0.00  0.00    -0.243 NA
ATOM      7  N   UNL     1      17.349   5.744  18.758  0.00  0.00    -0.243 NA
ATOM     26  C   UNL     1      16.039   6.652  20.561  0.00  0.00    +0.073 A 
ATOM     27  C   UNL     1      17.175   6.601  21.344  0.00  0.00    +0.127 A 
ATOM     28  C   UNL     1      16.187   6.207  19.264  0.00  0.00    +0.127 A 
ATOM     29  C   UNL     1      18.384   5.744  19.619  0.00  0.00    +0.221 A 
ENDBRANCH  23  26
ENDBRANCH  15   4
ENDBRANCH   9  15
BRANCH  11  16
ATOM     16  C   UNL     1      14.601  10.197  17.141  0.00  0.00    +0.103 C 
BRANCH  16  20
ATOM      1  O   UNL     1      14.669  10.549  14.798  0.00  0.00    -0.276 OA
ATOM      2  O   UNL     1      16.455  14.846  16.473  0.00  0.00    -0.377 OA
ATOM      5  N   UNL     1      15.705  12.153  16.118  0.00  0.00    -0.297 N 
ATOM     20  C   UNL     1      14.991  10.974  15.910  0.00  0.00    +0.216 C 
ATOM     21  C   UNL     1      16.119  12.970  14.979  0.00  0.00    +0.136 C 
ATOM     22  C   UNL     1      16.212  12.622  17.412  0.00  0.00    +0.136 C 
ATOM     24  C   UNL     1      15.836  14.441  15.250  0.00  0.00    +0.179 C 
ATOM     25  C   UNL     1      15.931  14.109  17.582  0.00  0.00    +0.179 C 
ENDBRANCH  16  20
ENDBRANCH  11  16
TORSDOF 6
ENDMDL
