MODEL 1
REMARK VINA RESULT:      -7.4      0.000      0.000
REMARK  Name = 51137123
REMARK  4 active torsions:
REMARK  status: ('A' for Active; 'I' for Inactive)
REMARK    1  A    between atoms: N_4  and  C_8
REMARK    2  A    between atoms: C_7  and  C_8
REMARK    3  A    between atoms: C_9  and  C_18
REMARK    4  A    between atoms: C_23  and  C_25
REMARK                            x       y       z     vdW  Elec       q    Type
REMARK                         _______ _______ _______ _____ _____    ______ ____
ROOT
ATOM      5  N   UNL     1      15.454   8.535  20.636  0.00  0.00    -0.342 N 
ATOM      6  N   UNL     1      14.618   7.346  18.955  0.00  0.00    -0.232 NA
ATOM     18  C   UNL     1      14.393   8.328  19.799  0.00  0.00    +0.113 A 
ATOM     19  C   UNL     1      16.428   7.625  20.310  0.00  0.00    +0.067 A 
ATOM     20  C   UNL     1      15.882   6.896  19.258  0.00  0.00    +0.089 A 
ATOM     21  C   UNL     1      17.701   7.387  20.829  0.00  0.00    +0.040 A 
ATOM     22  C   UNL     1      16.635   5.861  18.678  0.00  0.00    +0.030 A 
ATOM     23  C   UNL     1      18.438   6.354  20.239  0.00  0.00    +0.057 A 
ATOM     24  C   UNL     1      17.916   5.603  19.182  0.00  0.00    +0.014 A 
ATOM     26  H   UNL     1      15.515   9.232  21.366  0.00  0.00    +0.167 HD
ENDROOT
BRANCH  18   9
ATOM      4  N   UNL     1      11.431   9.811  21.363  0.00  0.00    -0.301 NA
ATOM      9  C   UNL     1      13.143   9.170  19.894  0.00  0.00    +0.070 C 
ATOM     10  C   UNL     1      12.890   9.709  21.309  0.00  0.00    +0.095 C 
ATOM     11  C   UNL     1      10.943   8.581  20.739  0.00  0.00    +0.085 C 
ATOM     12  C   UNL     1      11.841   8.442  19.517  0.00  0.00    +0.028 C 
BRANCH   4   8
ATOM      8  C   UNL     1      10.936   9.978  22.722  0.00  0.00    +0.088 C 
BRANCH   8   7
ATOM      7  C   UNL     1      11.392  11.312  23.308  0.00  0.00    +0.003 C 
ATOM     13  C   UNL     1      10.973  11.429  24.780  0.00  0.00    +0.005 C 
ATOM     14  C   UNL     1      10.834  12.483  22.487  0.00  0.00    +0.005 C 
ATOM     15  C   UNL     1      11.371  12.779  25.374  0.00  0.00    +0.000 C 
ATOM     16  C   UNL     1      11.232  13.831  23.085  0.00  0.00    +0.000 C 
ATOM     17  C   UNL     1      10.824  13.940  24.550  0.00  0.00    +0.000 C 
ENDBRANCH   8   7
ENDBRANCH   4   8
ENDBRANCH  18   9
BRANCH  23  25
ATOM      1  F   UNL     1      20.242   4.812  20.374  0.00  0.00    -0.166 F 
ATOM      2  F   UNL     1      20.760   6.922  20.313  0.00  0.00    -0.166 F 
ATOM      3  F   UNL     1      19.898   6.072  22.112  0.00  0.00    -0.166 F 
ATOM     25  C   UNL     1      19.808   6.048  20.751  0.00  0.00    +0.417 C 
ENDBRANCH  23  25
TORSDOF 4
ENDMDL
MODEL 2
REMARK VINA RESULT:      -7.2     14.108     16.709
REMARK  Name = 51137123
REMARK  4 active torsions:
REMARK  status: ('A' for Active; 'I' for Inactive)
REMARK    1  A    between atoms: N_4  and  C_8
REMARK    2  A    between atoms: C_7  and  C_8
REMARK    3  A    between atoms: C_9  and  C_18
REMARK    4  A    between atoms: C_23  and  C_25
REMARK                            x       y       z     vdW  Elec       q    Type
REMARK                         _______ _______ _______ _____ _____    ______ ____
ROOT
ATOM      5  N   UNL     1      12.979   6.561   6.637  0.00  0.00    -0.342 N 
ATOM      6  N   UNL     1      11.714   8.134   5.706  0.00  0.00    -0.232 NA
ATOM     18  C   UNL     1      12.910   7.589   5.738  0.00  0.00    +0.113 A 
ATOM     19  C   UNL     1      11.745   6.436   7.225  0.00  0.00    +0.067 A 
ATOM     20  C   UNL     1      10.975   7.428   6.626  0.00  0.00    +0.089 A 
ATOM     21  C   UNL     1      11.253   5.564   8.197  0.00  0.00    +0.040 A 
ATOM     22  C   UNL     1       9.631   7.577   7.010  0.00  0.00    +0.030 A 
ATOM     23  C   UNL     1       9.914   5.726   8.567  0.00  0.00    +0.057 A 
ATOM     24  C   UNL     1       9.115   6.714   7.985  0.00  0.00    +0.014 A 
ATOM     26  H   UNL     1      13.791   5.993   6.837  0.00  0.00    +0.167 HD
ENDROOT
BRANCH  18   9
ATOM      4  N   UNL     1      16.177   9.093   5.040  0.00  0.00    -0.301 NA
ATOM      9  C   UNL     1      14.110   7.992   4.914  0.00  0.00    +0.070 C 
ATOM     10  C   UNL     1      15.404   8.063   5.736  0.00  0.00    +0.095 C 
ATOM     11  C   UNL     1      15.210  10.150   4.739  0.00  0.00    +0.085 C 
ATOM     12  C   UNL     1      14.000   9.372   4.242  0.00  0.00    +0.028 C 
BRANCH   4   8
ATOM      8  C   UNL     1      17.299   9.576   5.831  0.00  0.00    +0.088 C 
BRANCH   8   7
ATOM      7  C   UNL     1      18.428   8.548   5.858  0.00  0.00    +0.003 C 
ATOM     13  C   UNL     1      19.561   9.012   6.784  0.00  0.00    +0.005 C 
ATOM     14  C   UNL     1      18.955   8.285   4.441  0.00  0.00    +0.005 C 
ATOM     15  C   UNL     1      20.727   8.026   6.787  0.00  0.00    +0.000 C 
ATOM     16  C   UNL     1      20.122   7.300   4.447  0.00  0.00    +0.000 C 
ATOM     17  C   UNL     1      21.241   7.759   5.375  0.00  0.00    +0.000 C 
ENDBRANCH   8   7
ENDBRANCH   4   8
ENDBRANCH  18   9
BRANCH  23  25
ATOM      1  F   UNL     1       8.983   3.605   9.103  0.00  0.00    -0.166 F 
ATOM      2  F   UNL     1      10.175   4.569  10.644  0.00  0.00    -0.166 F 
ATOM      3  F   UNL     1       8.195   5.322  10.180  0.00  0.00    -0.166 F 
ATOM     25  C   UNL     1       9.328   4.825   9.605  0.00  0.00    +0.417 C 
ENDBRANCH  23  25
TORSDOF 4
ENDMDL
MODEL 3
REMARK VINA RESULT:      -7.2     16.788     20.029
REMARK  Name = 51137123
REMARK  4 active torsions:
REMARK  status: ('A' for Active; 'I' for Inactive)
REMARK    1  A    between atoms: N_4  and  C_8
REMARK    2  A    between atoms: C_7  and  C_8
REMARK    3  A    between atoms: C_9  and  C_18
REMARK    4  A    between atoms: C_23  and  C_25
REMARK                            x       y       z     vdW  Elec       q    Type
REMARK                         _______ _______ _______ _____ _____    ______ ____
ROOT
ATOM      5  N   UNL     1      10.190   4.356   5.007  0.00  0.00    -0.342 N 
ATOM      6  N   UNL     1       9.651   6.461   4.540  0.00  0.00    -0.232 NA
ATOM     18  C   UNL     1      10.067   5.318   4.043  0.00  0.00    +0.113 A 
ATOM     19  C   UNL     1       9.830   4.917   6.207  0.00  0.00    +0.067 A 
ATOM     20  C   UNL     1       9.497   6.230   5.887  0.00  0.00    +0.089 A 
ATOM     21  C   UNL     1       9.767   4.403   7.502  0.00  0.00    +0.040 A 
ATOM     22  C   UNL     1       9.076   7.098   6.910  0.00  0.00    +0.030 A 
ATOM     23  C   UNL     1       9.346   5.280   8.507  0.00  0.00    +0.057 A 
ATOM     24  C   UNL     1       9.005   6.604   8.218  0.00  0.00    +0.014 A 
ATOM     26  H   UNL     1      10.493   3.402   4.866  0.00  0.00    +0.167 HD
ENDROOT
BRANCH  18   9
ATOM      4  N   UNL     1      12.166   4.554   1.139  0.00  0.00    -0.301 NA
ATOM      9  C   UNL     1      10.390   5.025   2.596  0.00  0.00    +0.070 C 
ATOM     10  C   UNL     1      11.623   4.126   2.429  0.00  0.00    +0.095 C 
ATOM     11  C   UNL     1      12.079   6.015   1.159  0.00  0.00    +0.085 C 
ATOM     12  C   UNL     1      10.693   6.264   1.737  0.00  0.00    +0.028 C 
BRANCH   4   8
ATOM      8  C   UNL     1      13.526   4.082   0.924  0.00  0.00    +0.088 C 
BRANCH   8   7
ATOM      7  C   UNL     1      13.732   3.657  -0.528  0.00  0.00    +0.003 C 
ATOM     13  C   UNL     1      14.306   4.815  -1.356  0.00  0.00    +0.005 C 
ATOM     14  C   UNL     1      12.416   3.152  -1.136  0.00  0.00    +0.005 C 
ATOM     15  C   UNL     1      14.471   4.431  -2.825  0.00  0.00    +0.000 C 
ATOM     16  C   UNL     1      12.584   2.771  -2.605  0.00  0.00    +0.000 C 
ATOM     17  C   UNL     1      13.163   3.920  -3.423  0.00  0.00    +0.000 C 
ENDBRANCH   8   7
ENDBRANCH   4   8
ENDBRANCH  18   9
BRANCH  23  25
ATOM      1  F   UNL     1      10.349   5.139  10.657  0.00  0.00    -0.166 F 
ATOM      2  F   UNL     1       8.181   5.275  10.595  0.00  0.00    -0.166 F 
ATOM      3  F   UNL     1       9.165   3.432  10.015  0.00  0.00    -0.166 F 
ATOM     25  C   UNL     1       9.260   4.790   9.916  0.00  0.00    +0.417 C 
ENDBRANCH  23  25
TORSDOF 4
ENDMDL
MODEL 4
REMARK VINA RESULT:      -7.2     16.368     19.560
REMARK  Name = 51137123
REMARK  4 active torsions:
REMARK  status: ('A' for Active; 'I' for Inactive)
REMARK    1  A    between atoms: N_4  and  C_8
REMARK    2  A    between atoms: C_7  and  C_8
REMARK    3  A    between atoms: C_9  and  C_18
REMARK    4  A    between atoms: C_23  and  C_25
REMARK                            x       y       z     vdW  Elec       q    Type
REMARK                         _______ _______ _______ _____ _____    ______ ____
ROOT
ATOM      5  N   UNL     1       9.799   5.512   4.398  0.00  0.00    -0.342 N 
ATOM      6  N   UNL     1       9.238   7.664   4.409  0.00  0.00    -0.232 NA
ATOM     18  C   UNL     1       9.583   6.641   3.658  0.00  0.00    +0.113 A 
ATOM     19  C   UNL     1       9.580   5.828   5.716  0.00  0.00    +0.067 A 
ATOM     20  C   UNL     1       9.231   7.175   5.695  0.00  0.00    +0.089 A 
ATOM     21  C   UNL     1       9.654   5.073   6.887  0.00  0.00    +0.040 A 
ATOM     22  C   UNL     1       8.936   7.825   6.905  0.00  0.00    +0.030 A 
ATOM     23  C   UNL     1       9.357   5.736   8.082  0.00  0.00    +0.057 A 
ATOM     24  C   UNL     1       9.004   7.088   8.094  0.00  0.00    +0.014 A 
ATOM     26  H   UNL     1      10.073   4.606   4.044  0.00  0.00    +0.167 HD
ENDROOT
BRANCH  18   9
ATOM      4  N   UNL     1      10.925   5.616   0.406  0.00  0.00    -0.301 NA
ATOM      9  C   UNL     1       9.741   6.636   2.155  0.00  0.00    +0.070 C 
ATOM     10  C   UNL     1      10.156   5.265   1.602  0.00  0.00    +0.095 C 
ATOM     11  C   UNL     1      11.763   6.744   0.814  0.00  0.00    +0.085 C 
ATOM     12  C   UNL     1      10.800   7.611   1.612  0.00  0.00    +0.028 C 
BRANCH   4   8
ATOM      8  C   UNL     1      11.707   4.497  -0.099  0.00  0.00    +0.088 C 
BRANCH   8   7
ATOM      7  C   UNL     1      13.175   4.637   0.296  0.00  0.00    +0.003 C 
ATOM     13  C   UNL     1      14.076   4.609  -0.947  0.00  0.00    +0.005 C 
ATOM     14  C   UNL     1      13.577   3.536   1.286  0.00  0.00    +0.005 C 
ATOM     15  C   UNL     1      15.554   4.694  -0.574  0.00  0.00    +0.000 C 
ATOM     16  C   UNL     1      15.057   3.622   1.655  0.00  0.00    +0.000 C 
ATOM     17  C   UNL     1      15.948   3.604   0.418  0.00  0.00    +0.000 C 
ENDBRANCH   8   7
ENDBRANCH   4   8
ENDBRANCH  18   9
BRANCH  23  25
ATOM      1  F   UNL     1       8.298   5.149  10.128  0.00  0.00    -0.166 F 
ATOM      2  F   UNL     1       9.556   3.634   9.206  0.00  0.00    -0.166 F 
ATOM      3  F   UNL     1      10.463   5.354  10.168  0.00  0.00    -0.166 F 
ATOM     25  C   UNL     1       9.420   4.982   9.371  0.00  0.00    +0.417 C 
ENDBRANCH  23  25
TORSDOF 4
ENDMDL
MODEL 5
REMARK VINA RESULT:      -7.1      3.843      6.159
REMARK  Name = 51137123
REMARK  4 active torsions:
REMARK  status: ('A' for Active; 'I' for Inactive)
REMARK    1  A    between atoms: N_4  and  C_8
REMARK    2  A    between atoms: C_7  and  C_8
REMARK    3  A    between atoms: C_9  and  C_18
REMARK    4  A    between atoms: C_23  and  C_25
REMARK                            x       y       z     vdW  Elec       q    Type
REMARK                         _______ _______ _______ _____ _____    ______ ____
ROOT
ATOM      5  N   UNL     1      20.274   4.883  20.169  0.00  0.00    -0.342 N 
ATOM      6  N   UNL     1      20.283   6.194  21.964  0.00  0.00    -0.232 NA
ATOM     18  C   UNL     1      19.724   5.966  20.796  0.00  0.00    +0.113 A 
ATOM     19  C   UNL     1      21.255   4.380  20.986  0.00  0.00    +0.067 A 
ATOM     20  C   UNL     1      21.239   5.215  22.099  0.00  0.00    +0.089 A 
ATOM     21  C   UNL     1      22.125   3.298  20.850  0.00  0.00    +0.040 A 
ATOM     22  C   UNL     1      22.141   4.972  23.149  0.00  0.00    +0.030 A 
ATOM     23  C   UNL     1      23.015   3.071  21.904  0.00  0.00    +0.057 A 
ATOM     24  C   UNL     1      23.025   3.892  23.035  0.00  0.00    +0.014 A 
ATOM     26  H   UNL     1      20.009   4.517  19.264  0.00  0.00    +0.167 HD
ENDROOT
BRANCH  18   9
ATOM      4  N   UNL     1      16.384   7.439  20.477  0.00  0.00    -0.301 NA
ATOM      9  C   UNL     1      18.606   6.758  20.159  0.00  0.00    +0.070 C 
ATOM     10  C   UNL     1      17.662   7.396  21.189  0.00  0.00    +0.095 C 
ATOM     11  C   UNL     1      16.283   6.143  19.805  0.00  0.00    +0.085 C 
ATOM     12  C   UNL     1      17.682   5.946  19.236  0.00  0.00    +0.028 C 
BRANCH   4   8
ATOM      8  C   UNL     1      15.260   7.691  21.367  0.00  0.00    +0.088 C 
BRANCH   8   7
ATOM      7  C   UNL     1      13.936   7.598  20.613  0.00  0.00    +0.003 C 
ATOM     13  C   UNL     1      13.775   8.785  19.653  0.00  0.00    +0.005 C 
ATOM     14  C   UNL     1      12.758   7.525  21.593  0.00  0.00    +0.005 C 
ATOM     15  C   UNL     1      12.433   8.743  18.924  0.00  0.00    +0.000 C 
ATOM     16  C   UNL     1      11.418   7.486  20.862  0.00  0.00    +0.000 C 
ATOM     17  C   UNL     1      11.265   8.661  19.902  0.00  0.00    +0.000 C 
ENDBRANCH   8   7
ENDBRANCH   4   8
ENDBRANCH  18   9
BRANCH  23  25
ATOM      1  F   UNL     1      23.725   1.117  20.751  0.00  0.00    -0.166 F 
ATOM      2  F   UNL     1      25.275   2.318  21.688  0.00  0.00    -0.166 F 
ATOM      3  F   UNL     1      23.951   1.115  22.913  0.00  0.00    -0.166 F 
ATOM     25  C   UNL     1      23.974   1.928  21.818  0.00  0.00    +0.417 C 
ENDBRANCH  23  25
TORSDOF 4
ENDMDL
MODEL 6
REMARK VINA RESULT:      -7.1     27.812     30.627
REMARK  Name = 51137123
REMARK  4 active torsions:
REMARK  status: ('A' for Active; 'I' for Inactive)
REMARK    1  A    between atoms: N_4  and  C_8
REMARK    2  A    between atoms: C_7  and  C_8
REMARK    3  A    between atoms: C_9  and  C_18
REMARK    4  A    between atoms: C_23  and  C_25
REMARK                            x       y       z     vdW  Elec       q    Type
REMARK                         _______ _______ _______ _____ _____    ______ ____
ROOT
ATOM      5  N   UNL     1     -15.665   4.428  25.041  0.00  0.00    -0.342 N 
ATOM      6  N   UNL     1     -16.327   2.754  23.737  0.00  0.00    -0.232 NA
ATOM     18  C   UNL     1     -15.883   3.990  23.764  0.00  0.00    +0.113 A 
ATOM     19  C   UNL     1     -15.992   3.405  25.896  0.00  0.00    +0.067 A 
ATOM     20  C   UNL     1     -16.401   2.372  25.057  0.00  0.00    +0.089 A 
ATOM     21  C   UNL     1     -15.964   3.298  27.286  0.00  0.00    +0.040 A 
ATOM     22  C   UNL     1     -16.812   1.153  25.623  0.00  0.00    +0.030 A 
ATOM     23  C   UNL     1     -16.376   2.078  27.832  0.00  0.00    +0.057 A 
ATOM     24  C   UNL     1     -16.792   1.023  27.017  0.00  0.00    +0.014 A 
ATOM     26  H   UNL     1     -15.326   5.341  25.312  0.00  0.00    +0.167 HD
ENDROOT
BRANCH  18   9
ATOM      4  N   UNL     1     -13.957   6.174  21.540  0.00  0.00    -0.301 NA
ATOM      9  C   UNL     1     -15.619   4.883  22.574  0.00  0.00    +0.070 C 
ATOM     10  C   UNL     1     -14.158   4.838  22.105  0.00  0.00    +0.095 C 
ATOM     11  C   UNL     1     -14.599   7.085  22.488  0.00  0.00    +0.085 C 
ATOM     12  C   UNL     1     -15.908   6.375  22.807  0.00  0.00    +0.028 C 
BRANCH   4   8
ATOM      8  C   UNL     1     -12.549   6.485  21.338  0.00  0.00    +0.088 C 
BRANCH   8   7
ATOM      7  C   UNL     1     -12.373   7.505  20.216  0.00  0.00    +0.003 C 
ATOM     13  C   UNL     1     -11.429   6.962  19.133  0.00  0.00    +0.005 C 
ATOM     14  C   UNL     1     -11.855   8.838  20.771  0.00  0.00    +0.005 C 
ATOM     15  C   UNL     1     -11.195   7.985  18.024  0.00  0.00    +0.000 C 
ATOM     16  C   UNL     1     -11.619   9.859  19.660  0.00  0.00    +0.000 C 
ATOM     17  C   UNL     1     -10.689   9.313  18.582  0.00  0.00    +0.000 C 
ENDBRANCH   8   7
ENDBRANCH   4   8
ENDBRANCH  18   9
BRANCH  23  25
ATOM      1  F   UNL     1     -17.407   2.548  29.922  0.00  0.00    -0.166 F 
ATOM      2  F   UNL     1     -16.467   0.600  29.710  0.00  0.00    -0.166 F 
ATOM      3  F   UNL     1     -15.240   2.376  29.916  0.00  0.00    -0.166 F 
ATOM     25  C   UNL     1     -16.370   1.902  29.316  0.00  0.00    +0.417 C 
ENDBRANCH  23  25
TORSDOF 4
ENDMDL
MODEL 7
REMARK VINA RESULT:      -7.0      4.529     10.371
REMARK  Name = 51137123
REMARK  4 active torsions:
REMARK  status: ('A' for Active; 'I' for Inactive)
REMARK    1  A    between atoms: N_4  and  C_8
REMARK    2  A    between atoms: C_7  and  C_8
REMARK    3  A    between atoms: C_9  and  C_18
REMARK    4  A    between atoms: C_23  and  C_25
REMARK                            x       y       z     vdW  Elec       q    Type
REMARK                         _______ _______ _______ _____ _____    ______ ____
ROOT
ATOM      5  N   UNL     1      17.562   6.983  21.527  0.00  0.00    -0.342 N 
ATOM      6  N   UNL     1      17.684   6.399  19.386  0.00  0.00    -0.232 NA
ATOM     18  C   UNL     1      18.365   6.583  20.495  0.00  0.00    +0.113 A 
ATOM     19  C   UNL     1      16.277   7.063  21.051  0.00  0.00    +0.067 A 
ATOM     20  C   UNL     1      16.381   6.693  19.713  0.00  0.00    +0.089 A 
ATOM     21  C   UNL     1      15.072   7.415  21.659  0.00  0.00    +0.040 A 
ATOM     22  C   UNL     1      15.223   6.669  18.918  0.00  0.00    +0.030 A 
ATOM     23  C   UNL     1      13.929   7.385  20.853  0.00  0.00    +0.057 A 
ATOM     24  C   UNL     1      14.001   7.019  19.506  0.00  0.00    +0.014 A 
ATOM     26  H   UNL     1      17.858   7.186  22.473  0.00  0.00    +0.167 HD
ENDROOT
BRANCH  18   9
ATOM      4  N   UNL     1      21.453   4.912  21.543  0.00  0.00    -0.301 NA
ATOM      9  C   UNL     1      19.852   6.396  20.685  0.00  0.00    +0.070 C 
ATOM     10  C   UNL     1      20.276   4.921  20.671  0.00  0.00    +0.095 C 
ATOM     11  C   UNL     1      21.088   5.761  22.677  0.00  0.00    +0.085 C 
ATOM     12  C   UNL     1      20.410   6.949  22.007  0.00  0.00    +0.028 C 
BRANCH   4   8
ATOM      8  C   UNL     1      21.828   3.567  21.954  0.00  0.00    +0.088 C 
BRANCH   8   7
ATOM      7  C   UNL     1      22.996   3.048  21.118  0.00  0.00    +0.003 C 
ATOM     13  C   UNL     1      23.909   2.148  21.962  0.00  0.00    +0.005 C 
ATOM     14  C   UNL     1      23.788   4.214  20.512  0.00  0.00    +0.005 C 
ATOM     15  C   UNL     1      25.114   1.658  21.162  0.00  0.00    +0.000 C 
ATOM     16  C   UNL     1      24.994   3.722  19.714  0.00  0.00    +0.000 C 
ATOM     17  C   UNL     1      25.893   2.820  20.553  0.00  0.00    +0.000 C 
ENDBRANCH   8   7
ENDBRANCH   4   8
ENDBRANCH  18   9
BRANCH  23  25
ATOM      1  F   UNL     1      11.751   8.278  20.523  0.00  0.00    -0.166 F 
ATOM      2  F   UNL     1      11.947   6.697  22.001  0.00  0.00    -0.166 F 
ATOM      3  F   UNL     1      12.696   8.684  22.438  0.00  0.00    -0.166 F 
ATOM     25  C   UNL     1      12.608   7.753  21.445  0.00  0.00    +0.417 C 
ENDBRANCH  23  25
TORSDOF 4
ENDMDL
MODEL 8
REMARK VINA RESULT:      -6.7     28.253     30.335
REMARK  Name = 51137123
REMARK  4 active torsions:
REMARK  status: ('A' for Active; 'I' for Inactive)
REMARK    1  A    between atoms: N_4  and  C_8
REMARK    2  A    between atoms: C_7  and  C_8
REMARK    3  A    between atoms: C_9  and  C_18
REMARK    4  A    between atoms: C_23  and  C_25
REMARK                            x       y       z     vdW  Elec       q    Type
REMARK                         _______ _______ _______ _____ _____    ______ ____
ROOT
ATOM      5  N   UNL     1      -8.925  -8.452  16.349  0.00  0.00    -0.342 N 
ATOM      6  N   UNL     1     -10.094  -9.520  17.909  0.00  0.00    -0.232 NA
ATOM     18  C   UNL     1     -10.137  -8.610  16.962  0.00  0.00    +0.113 A 
ATOM     19  C   UNL     1      -8.040  -9.319  16.941  0.00  0.00    +0.067 A 
ATOM     20  C   UNL     1      -8.796  -9.973  17.910  0.00  0.00    +0.089 A 
ATOM     21  C   UNL     1      -6.688  -9.579  16.717  0.00  0.00    +0.040 A 
ATOM     22  C   UNL     1      -8.180 -10.947  18.715  0.00  0.00    +0.030 A 
ATOM     23  C   UNL     1      -6.092 -10.551  17.527  0.00  0.00    +0.057 A 
ATOM     24  C   UNL     1      -6.823 -11.225  18.509  0.00  0.00    +0.014 A 
ATOM     26  H   UNL     1      -8.713  -7.813  15.595  0.00  0.00    +0.167 HD
ENDROOT
BRANCH  18   9
ATOM      4  N   UNL     1     -12.352  -6.780  14.688  0.00  0.00    -0.301 NA
ATOM      9  C   UNL     1     -11.339  -7.796  16.543  0.00  0.00    +0.070 C 
ATOM     10  C   UNL     1     -11.763  -8.058  15.091  0.00  0.00    +0.095 C 
ATOM     11  C   UNL     1     -11.444  -5.763  15.219  0.00  0.00    +0.085 C 
ATOM     12  C   UNL     1     -11.148  -6.271  16.623  0.00  0.00    +0.028 C 
BRANCH   4   8
ATOM      8  C   UNL     1     -12.518  -6.676  13.245  0.00  0.00    +0.088 C 
BRANCH   8   7
ATOM      7  C   UNL     1     -12.765  -5.228  12.829  0.00  0.00    +0.003 C 
ATOM     13  C   UNL     1     -14.255  -4.876  12.950  0.00  0.00    +0.005 C 
ATOM     14  C   UNL     1     -12.261  -4.981  11.401  0.00  0.00    +0.005 C 
ATOM     15  C   UNL     1     -14.536  -3.447  12.489  0.00  0.00    +0.000 C 
ATOM     16  C   UNL     1     -12.546  -3.553  10.941  0.00  0.00    +0.000 C 
ATOM     17  C   UNL     1     -14.024  -3.203  11.072  0.00  0.00    +0.000 C 
ENDBRANCH   8   7
ENDBRANCH   4   8
ENDBRANCH  18   9
BRANCH  23  25
ATOM      1  F   UNL     1      -4.026 -11.200  18.507  0.00  0.00    -0.166 F 
ATOM      2  F   UNL     1      -4.428 -11.928  16.499  0.00  0.00    -0.166 F 
ATOM      3  F   UNL     1      -3.923  -9.842  16.812  0.00  0.00    -0.166 F 
ATOM     25  C   UNL     1      -4.646 -10.873  17.337  0.00  0.00    +0.417 C 
ENDBRANCH  23  25
TORSDOF 4
ENDMDL
MODEL 9
REMARK VINA RESULT:      -6.7     27.786     30.427
REMARK  Name = 51137123
REMARK  4 active torsions:
REMARK  status: ('A' for Active; 'I' for Inactive)
REMARK    1  A    between atoms: N_4  and  C_8
REMARK    2  A    between atoms: C_7  and  C_8
REMARK    3  A    between atoms: C_9  and  C_18
REMARK    4  A    between atoms: C_23  and  C_25
REMARK                            x       y       z     vdW  Elec       q    Type
REMARK                         _______ _______ _______ _____ _____    ______ ____
ROOT
ATOM      5  N   UNL     1     -14.750   4.976  23.001  0.00  0.00    -0.342 N 
ATOM      6  N   UNL     1     -16.596   5.921  22.200  0.00  0.00    -0.232 NA
ATOM     18  C   UNL     1     -16.112   5.070  23.077  0.00  0.00    +0.113 A 
ATOM     19  C   UNL     1     -14.327   5.823  22.007  0.00  0.00    +0.067 A 
ATOM     20  C   UNL     1     -15.498   6.400  21.524  0.00  0.00    +0.089 A 
ATOM     21  C   UNL     1     -13.060   6.124  21.507  0.00  0.00    +0.040 A 
ATOM     22  C   UNL     1     -15.419   7.335  20.478  0.00  0.00    +0.030 A 
ATOM     23  C   UNL     1     -13.000   7.056  20.466  0.00  0.00    +0.057 A 
ATOM     24  C   UNL     1     -14.157   7.653  19.959  0.00  0.00    +0.014 A 
ATOM     26  H   UNL     1     -14.157   4.389  23.572  0.00  0.00    +0.167 HD
ENDROOT
BRANCH  18   9
ATOM      4  N   UNL     1     -17.022   3.716  26.358  0.00  0.00    -0.301 NA
ATOM      9  C   UNL     1     -16.900   4.259  24.080  0.00  0.00    +0.070 C 
ATOM     10  C   UNL     1     -16.905   4.883  25.482  0.00  0.00    +0.095 C 
ATOM     11  C   UNL     1     -16.109   2.724  25.788  0.00  0.00    +0.085 C 
ATOM     12  C   UNL     1     -16.389   2.824  24.295  0.00  0.00    +0.028 C 
BRANCH   4   8
ATOM      8  C   UNL     1     -16.707   4.028  27.745  0.00  0.00    +0.088 C 
BRANCH   8   7
ATOM      7  C   UNL     1     -15.914   2.894  28.391  0.00  0.00    +0.003 C 
ATOM     13  C   UNL     1     -16.861   1.869  29.033  0.00  0.00    +0.005 C 
ATOM     14  C   UNL     1     -14.925   3.446  29.426  0.00  0.00    +0.005 C 
ATOM     15  C   UNL     1     -16.090   0.751  29.733  0.00  0.00    +0.000 C 
ATOM     16  C   UNL     1     -14.158   2.326  30.126  0.00  0.00    +0.000 C 
ATOM     17  C   UNL     1     -15.101   1.305  30.754  0.00  0.00    +0.000 C 
ENDBRANCH   8   7
ENDBRANCH   4   8
ENDBRANCH  18   9
BRANCH  23  25
ATOM      1  F   UNL     1     -11.260   6.536  18.932  0.00  0.00    -0.166 F 
ATOM      2  F   UNL     1     -11.657   8.644  19.285  0.00  0.00    -0.166 F 
ATOM      3  F   UNL     1     -10.668   7.460  20.809  0.00  0.00    -0.166 F 
ATOM     25  C   UNL     1     -11.672   7.419  19.886  0.00  0.00    +0.417 C 
ENDBRANCH  23  25
TORSDOF 4
ENDMDL
MODEL 10
REMARK VINA RESULT:      -6.6     27.034     29.350
REMARK  Name = 51137123
REMARK  4 active torsions:
REMARK  status: ('A' for Active; 'I' for Inactive)
REMARK    1  A    between atoms: N_4  and  C_8
REMARK    2  A    between atoms: C_7  and  C_8
REMARK    3  A    between atoms: C_9  and  C_18
REMARK    4  A    between atoms: C_23  and  C_25
REMARK                            x       y       z     vdW  Elec       q    Type
REMARK                         _______ _______ _______ _____ _____    ______ ____
ROOT
ATOM      5  N   UNL     1      -4.580 -10.585  13.370  0.00  0.00    -0.342 N 
ATOM      6  N   UNL     1      -2.386 -10.324  13.127  0.00  0.00    -0.232 NA
ATOM     18  C   UNL     1      -3.547 -10.328  12.512  0.00  0.00    +0.113 A 
ATOM     19  C   UNL     1      -4.048 -10.760  14.624  0.00  0.00    +0.067 A 
ATOM     20  C   UNL     1      -2.678 -10.591  14.444  0.00  0.00    +0.089 A 
ATOM     21  C   UNL     1      -4.632 -11.041  15.859  0.00  0.00    +0.040 A 
ATOM     22  C   UNL     1      -1.823 -10.708  15.553  0.00  0.00    +0.030 A 
ATOM     23  C   UNL     1      -3.766 -11.153  16.952  0.00  0.00    +0.057 A 
ATOM     24  C   UNL     1      -2.386 -10.990  16.804  0.00  0.00    +0.014 A 
ATOM     26  H   UNL     1      -5.560 -10.640  13.129  0.00  0.00    +0.167 HD
ENDROOT
BRANCH  18   9
ATOM      4  N   UNL     1      -5.487  -9.968   9.424  0.00  0.00    -0.301 NA
ATOM      9  C   UNL     1      -3.792 -10.086  11.040  0.00  0.00    +0.070 C 
ATOM     10  C   UNL     1      -5.163  -9.457  10.758  0.00  0.00    +0.095 C 
ATOM     11  C   UNL     1      -5.105 -11.380   9.459  0.00  0.00    +0.085 C 
ATOM     12  C   UNL     1      -3.755 -11.349  10.162  0.00  0.00    +0.028 C 
BRANCH   4   8
ATOM      8  C   UNL     1      -6.890  -9.781   9.084  0.00  0.00    +0.088 C 
BRANCH   8   7
ATOM      7  C   UNL     1      -7.052  -8.701   8.018  0.00  0.00    +0.003 C 
ATOM     13  C   UNL     1      -8.227  -7.773   8.361  0.00  0.00    +0.005 C 
ATOM     14  C   UNL     1      -7.243  -9.332   6.632  0.00  0.00    +0.005 C 
ATOM     15  C   UNL     1      -8.443  -6.715   7.281  0.00  0.00    +0.000 C 
ATOM     16  C   UNL     1      -7.461  -8.271   5.555  0.00  0.00    +0.000 C 
ATOM     17  C   UNL     1      -8.621  -7.345   5.903  0.00  0.00    +0.000 C 
ENDBRANCH   8   7
ENDBRANCH   4   8
ENDBRANCH  18   9
BRANCH  23  25
ATOM      1  F   UNL     1      -5.187 -12.515  18.286  0.00  0.00    -0.166 F 
ATOM      2  F   UNL     1      -3.380 -11.764  19.232  0.00  0.00    -0.166 F 
ATOM      3  F   UNL     1      -5.035 -10.418  18.842  0.00  0.00    -0.166 F 
ATOM     25  C   UNL     1      -4.330 -11.455  18.303  0.00  0.00    +0.417 C 
ENDBRANCH  23  25
TORSDOF 4
ENDMDL
