MODEL 1
REMARK VINA RESULT:      -7.0      0.000      0.000
REMARK  Name = 25338986
REMARK  10 active torsions:
REMARK  status: ('A' for Active; 'I' for Inactive)
REMARK    1  A    between atoms: O_1  and  C_15
REMARK    2  A    between atoms: O_1  and  C_22
REMARK    3  A    between atoms: O_4  and  C_19
REMARK    4  A    between atoms: O_4  and  C_26
REMARK    5  A    between atoms: O_5  and  C_25
REMARK    6  A    between atoms: O_5  and  C_32
REMARK    7  A    between atoms: N_7  and  C_14
REMARK    8  A    between atoms: C_9  and  C_15
REMARK    9  A    between atoms: C_14  and  C_18
REMARK   10  A    between atoms: C_17  and  C_19
REMARK                            x       y       z     vdW  Elec       q    Type
REMARK                         _______ _______ _______ _____ _____    ______ ____
ROOT
ATOM      3  O   UNL     1     -18.382   3.077  26.546  0.00  0.00    -0.272 OA
ATOM      6  N   UNL     1     -17.166   3.621  24.632  0.00  0.00    -0.279 N 
ATOM      7  N   UNL     1     -15.136   5.217  21.915  0.00  0.00    -0.328 N 
ATOM      8  N   UNL     1     -17.092   5.424  20.857  0.00  0.00    -0.240 NA
ATOM      9  C   UNL     1     -18.299   3.277  23.732  0.00  0.00    +0.191 C 
ATOM     10  C   UNL     1     -18.543   4.288  22.591  0.00  0.00    +0.091 C 
ATOM     11  C   UNL     1     -16.072   4.642  22.723  0.00  0.00    +0.059 A 
ATOM     12  C   UNL     1     -15.856   3.996  24.029  0.00  0.00    +0.164 C 
ATOM     13  C   UNL     1     -17.261   4.780  22.051  0.00  0.00    +0.066 A 
ATOM     16  C   UNL     1     -15.800   5.674  20.804  0.00  0.00    +0.200 A 
ATOM     17  C   UNL     1     -17.317   3.389  26.008  0.00  0.00    +0.254 C 
ENDROOT
BRANCH   9  15
ATOM      2  O   UNL     1     -17.222   1.661  22.303  0.00  0.00    -0.249 OA
ATOM     15  C   UNL     1     -18.009   1.898  23.209  0.00  0.00    +0.328 C 
BRANCH  15   1
ATOM      1  O   UNL     1     -18.752   0.985  23.896  0.00  0.00    -0.467 OA
ATOM     22  C   UNL     1     -18.003   0.031  24.656  0.00  0.00    +0.280 C 
ENDBRANCH  15   1
ENDBRANCH   9  15
BRANCH   7  14
ATOM     14  C   UNL     1     -13.720   5.329  22.162  0.00  0.00    +0.158 C 
BRANCH  14  18
ATOM     18  C   UNL     1     -13.106   6.573  21.569  0.00  0.00    -0.028 A 
ATOM     20  C   UNL     1     -13.627   7.827  21.887  0.00  0.00    +0.009 A 
ATOM     21  C   UNL     1     -12.017   6.469  20.703  0.00  0.00    +0.009 A 
ATOM     23  C   UNL     1     -13.061   8.978  21.338  0.00  0.00    +0.046 A 
ATOM     24  C   UNL     1     -11.450   7.621  20.155  0.00  0.00    +0.046 A 
ATOM     25  C   UNL     1     -11.972   8.874  20.473  0.00  0.00    +0.120 A 
BRANCH  25   5
ATOM      5  O   UNL     1     -11.418   9.997  19.940  0.00  0.00    -0.495 OA
ATOM     32  C   UNL     1     -10.255   9.825  19.129  0.00  0.00    +0.277 C 
ENDBRANCH  25   5
ENDBRANCH  14  18
ENDBRANCH   7  14
BRANCH  17  19
ATOM     19  C   UNL     1     -16.079   3.545  26.856  0.00  0.00    +0.324 C 
BRANCH  19   4
ATOM      4  O   UNL     1     -16.463   3.271  28.181  0.00  0.00    -0.483 OA
BRANCH   4  26
ATOM     26  C   UNL     1     -15.614   2.496  28.939  0.00  0.00    +0.121 A 
ATOM     27  C   UNL     1     -15.763   1.109  28.956  0.00  0.00    +0.045 A 
ATOM     28  C   UNL     1     -14.604   3.098  29.690  0.00  0.00    +0.045 A 
ATOM     29  C   UNL     1     -14.903   0.324  29.724  0.00  0.00    +0.004 A 
ATOM     30  C   UNL     1     -13.744   2.313  30.457  0.00  0.00    +0.004 A 
ATOM     31  C   UNL     1     -13.894   0.926  30.475  0.00  0.00    +0.000 A 
ENDBRANCH   4  26
ENDBRANCH  19   4
ENDBRANCH  17  19
TORSDOF 8
ENDMDL
MODEL 2
REMARK VINA RESULT:      -6.8     20.075     22.109
REMARK  Name = 25338986
REMARK  10 active torsions:
REMARK  status: ('A' for Active; 'I' for Inactive)
REMARK    1  A    between atoms: O_1  and  C_15
REMARK    2  A    between atoms: O_1  and  C_22
REMARK    3  A    between atoms: O_4  and  C_19
REMARK    4  A    between atoms: O_4  and  C_26
REMARK    5  A    between atoms: O_5  and  C_25
REMARK    6  A    between atoms: O_5  and  C_32
REMARK    7  A    between atoms: N_7  and  C_14
REMARK    8  A    between atoms: C_9  and  C_15
REMARK    9  A    between atoms: C_14  and  C_18
REMARK   10  A    between atoms: C_17  and  C_19
REMARK                            x       y       z     vdW  Elec       q    Type
REMARK                         _______ _______ _______ _____ _____    ______ ____
ROOT
ATOM      3  O   UNL     1      -1.645 -10.295  15.239  0.00  0.00    -0.272 OA
ATOM      6  N   UNL     1      -3.909 -10.766  14.931  0.00  0.00    -0.279 N 
ATOM      7  N   UNL     1      -7.489 -10.975  13.842  0.00  0.00    -0.328 N 
ATOM      8  N   UNL     1      -7.892  -9.685  15.620  0.00  0.00    -0.240 NA
ATOM      9  C   UNL     1      -4.245 -10.403  16.335  0.00  0.00    +0.191 C 
ATOM     10  C   UNL     1      -5.520  -9.546  16.490  0.00  0.00    +0.091 C 
ATOM     11  C   UNL     1      -6.288 -10.786  14.459  0.00  0.00    +0.059 A 
ATOM     12  C   UNL     1      -4.978 -11.327  14.058  0.00  0.00    +0.164 C 
ATOM     13  C   UNL     1      -6.563  -9.995  15.546  0.00  0.00    +0.066 A 
ATOM     16  C   UNL     1      -8.425 -10.292  14.579  0.00  0.00    +0.200 A 
ATOM     17  C   UNL     1      -2.559 -10.750  14.547  0.00  0.00    +0.254 C 
ENDROOT
BRANCH   9  15
ATOM      2  O   UNL     1      -4.226 -12.803  16.569  0.00  0.00    -0.249 OA
ATOM     15  C   UNL     1      -4.344 -11.700  17.086  0.00  0.00    +0.328 C 
BRANCH  15   1
ATOM      1  O   UNL     1      -4.581 -11.447  18.405  0.00  0.00    -0.467 OA
ATOM     22  C   UNL     1      -3.760 -12.171  19.327  0.00  0.00    +0.280 C 
ENDBRANCH  15   1
ENDBRANCH   9  15
BRANCH   7  14
ATOM     14  C   UNL     1      -7.747 -11.745  12.650  0.00  0.00    +0.158 C 
BRANCH  14  18
ATOM     18  C   UNL     1      -7.779 -10.909  11.395  0.00  0.00    -0.028 A 
ATOM     20  C   UNL     1      -7.389  -9.570  11.438  0.00  0.00    +0.009 A 
ATOM     21  C   UNL     1      -8.198 -11.474  10.190  0.00  0.00    +0.009 A 
ATOM     23  C   UNL     1      -7.418  -8.797  10.277  0.00  0.00    +0.046 A 
ATOM     24  C   UNL     1      -8.227 -10.700   9.029  0.00  0.00    +0.046 A 
ATOM     25  C   UNL     1      -7.838  -9.362   9.073  0.00  0.00    +0.120 A 
BRANCH  25   5
ATOM      5  O   UNL     1      -7.865  -8.609   7.941  0.00  0.00    -0.495 OA
ATOM     32  C   UNL     1      -7.833  -7.191   8.104  0.00  0.00    +0.277 C 
ENDBRANCH  25   5
ENDBRANCH  14  18
ENDBRANCH   7  14
BRANCH  17  19
ATOM     19  C   UNL     1      -2.241 -11.328  13.191  0.00  0.00    +0.324 C 
BRANCH  19   4
ATOM      4  O   UNL     1      -2.172 -10.244  12.297  0.00  0.00    -0.483 OA
BRANCH   4  26
ATOM     26  C   UNL     1      -2.928 -10.321  11.149  0.00  0.00    +0.121 A 
ATOM     27  C   UNL     1      -3.447 -11.549  10.736  0.00  0.00    +0.045 A 
ATOM     28  C   UNL     1      -3.173  -9.172  10.398  0.00  0.00    +0.045 A 
ATOM     29  C   UNL     1      -4.212 -11.627   9.572  0.00  0.00    +0.004 A 
ATOM     30  C   UNL     1      -3.938  -9.250   9.234  0.00  0.00    +0.004 A 
ATOM     31  C   UNL     1      -4.457 -10.477   8.821  0.00  0.00    +0.000 A 
ENDBRANCH   4  26
ENDBRANCH  19   4
ENDBRANCH  17  19
TORSDOF 8
ENDMDL
MODEL 3
REMARK VINA RESULT:      -6.8     27.411     31.026
REMARK  Name = 25338986
REMARK  10 active torsions:
REMARK  status: ('A' for Active; 'I' for Inactive)
REMARK    1  A    between atoms: O_1  and  C_15
REMARK    2  A    between atoms: O_1  and  C_22
REMARK    3  A    between atoms: O_4  and  C_19
REMARK    4  A    between atoms: O_4  and  C_26
REMARK    5  A    between atoms: O_5  and  C_25
REMARK    6  A    between atoms: O_5  and  C_32
REMARK    7  A    between atoms: N_7  and  C_14
REMARK    8  A    between atoms: C_9  and  C_15
REMARK    9  A    between atoms: C_14  and  C_18
REMARK   10  A    between atoms: C_17  and  C_19
REMARK                            x       y       z     vdW  Elec       q    Type
REMARK                         _______ _______ _______ _____ _____    ______ ____
ROOT
ATOM      3  O   UNL     1      15.739  13.428  22.147  0.00  0.00    -0.272 OA
ATOM      6  N   UNL     1      14.343  11.581  22.438  0.00  0.00    -0.279 N 
ATOM      7  N   UNL     1      11.981   8.690  22.108  0.00  0.00    -0.328 N 
ATOM      8  N   UNL     1      10.463  10.100  22.943  0.00  0.00    -0.240 NA
ATOM      9  C   UNL     1      13.513  12.283  23.453  0.00  0.00    +0.191 C 
ATOM     10  C   UNL     1      11.991  12.088  23.285  0.00  0.00    +0.091 C 
ATOM     11  C   UNL     1      12.640   9.856  22.364  0.00  0.00    +0.059 A 
ATOM     12  C   UNL     1      14.069  10.145  22.152  0.00  0.00    +0.164 C 
ATOM     13  C   UNL     1      11.688  10.702  22.877  0.00  0.00    +0.066 A 
ATOM     16  C   UNL     1      10.672   8.887  22.473  0.00  0.00    +0.200 A 
ATOM     17  C   UNL     1      15.475  12.241  21.935  0.00  0.00    +0.254 C 
ENDROOT
BRANCH   9  15
ATOM      2  O   UNL     1      15.063  11.224  24.967  0.00  0.00    -0.249 OA
ATOM     15  C   UNL     1      13.998  11.801  24.791  0.00  0.00    +0.328 C 
BRANCH  15   1
ATOM      1  O   UNL     1      13.075  12.106  25.748  0.00  0.00    -0.467 OA
ATOM     22  C   UNL     1      13.324  13.311  26.479  0.00  0.00    +0.280 C 
ENDBRANCH  15   1
ENDBRANCH   9  15
BRANCH   7  14
ATOM     14  C   UNL     1      12.535   7.475  21.564  0.00  0.00    +0.158 C 
BRANCH  14  18
ATOM     18  C   UNL     1      12.909   7.589  20.107  0.00  0.00    -0.028 A 
ATOM     20  C   UNL     1      11.972   8.042  19.179  0.00  0.00    +0.009 A 
ATOM     21  C   UNL     1      14.194   7.241  19.687  0.00  0.00    +0.009 A 
ATOM     23  C   UNL     1      12.317   8.146  17.832  0.00  0.00    +0.046 A 
ATOM     24  C   UNL     1      14.540   7.347  18.339  0.00  0.00    +0.046 A 
ATOM     25  C   UNL     1      13.602   7.799  17.412  0.00  0.00    +0.120 A 
BRANCH  25   5
ATOM      5  O   UNL     1      13.939   7.903  16.099  0.00  0.00    -0.495 OA
ATOM     32  C   UNL     1      14.237   9.210  15.606  0.00  0.00    +0.277 C 
ENDBRANCH  25   5
ENDBRANCH  14  18
ENDBRANCH   7  14
BRANCH  17  19
ATOM     19  C   UNL     1      16.406  11.421  21.077  0.00  0.00    +0.324 C 
BRANCH  19   4
ATOM      4  O   UNL     1      17.451  10.991  21.914  0.00  0.00    -0.483 OA
BRANCH   4  26
ATOM     26  C   UNL     1      17.950   9.725  21.705  0.00  0.00    +0.121 A 
ATOM     27  C   UNL     1      19.194   9.369  22.228  0.00  0.00    +0.045 A 
ATOM     28  C   UNL     1      17.212   8.798  20.969  0.00  0.00    +0.045 A 
ATOM     29  C   UNL     1      19.699   8.087  22.016  0.00  0.00    +0.004 A 
ATOM     30  C   UNL     1      17.717   7.515  20.757  0.00  0.00    +0.004 A 
ATOM     31  C   UNL     1      18.960   7.160  21.279  0.00  0.00    +0.000 A 
ENDBRANCH   4  26
ENDBRANCH  19   4
ENDBRANCH  17  19
TORSDOF 8
ENDMDL
MODEL 4
REMARK VINA RESULT:      -6.6     17.331     19.794
REMARK  Name = 25338986
REMARK  10 active torsions:
REMARK  status: ('A' for Active; 'I' for Inactive)
REMARK    1  A    between atoms: O_1  and  C_15
REMARK    2  A    between atoms: O_1  and  C_22
REMARK    3  A    between atoms: O_4  and  C_19
REMARK    4  A    between atoms: O_4  and  C_26
REMARK    5  A    between atoms: O_5  and  C_25
REMARK    6  A    between atoms: O_5  and  C_32
REMARK    7  A    between atoms: N_7  and  C_14
REMARK    8  A    between atoms: C_9  and  C_15
REMARK    9  A    between atoms: C_14  and  C_18
REMARK   10  A    between atoms: C_17  and  C_19
REMARK                            x       y       z     vdW  Elec       q    Type
REMARK                         _______ _______ _______ _____ _____    ______ ____
ROOT
ATOM      3  O   UNL     1      -4.048 -10.033  16.602  0.00  0.00    -0.272 OA
ATOM      6  N   UNL     1      -6.236 -10.634  17.142  0.00  0.00    -0.279 N 
ATOM      7  N   UNL     1      -9.910 -10.821  17.861  0.00  0.00    -0.328 N 
ATOM      8  N   UNL     1      -9.285 -10.767  20.004  0.00  0.00    -0.240 NA
ATOM      9  C   UNL     1      -5.839 -11.138  18.484  0.00  0.00    +0.191 C 
ATOM     10  C   UNL     1      -6.783 -10.722  19.632  0.00  0.00    +0.091 C 
ATOM     11  C   UNL     1      -8.547 -10.794  17.863  0.00  0.00    +0.059 A 
ATOM     12  C   UNL     1      -7.647 -10.811  16.696  0.00  0.00    +0.164 C 
ATOM     13  C   UNL     1      -8.190 -10.763  19.187  0.00  0.00    +0.066 A 
ATOM     16  C   UNL     1     -10.308 -10.803  19.174  0.00  0.00    +0.200 A 
ATOM     17  C   UNL     1      -5.227 -10.192  16.273  0.00  0.00    +0.254 C 
ENDROOT
BRANCH   9  15
ATOM      2  O   UNL     1      -6.694 -13.371  18.173  0.00  0.00    -0.249 OA
ATOM     15  C   UNL     1      -5.736 -12.632  18.353  0.00  0.00    +0.328 C 
BRANCH  15   1
ATOM      1  O   UNL     1      -4.431 -13.011  18.466  0.00  0.00    -0.467 OA
ATOM     22  C   UNL     1      -3.648 -12.251  19.392  0.00  0.00    +0.280 C 
ENDBRANCH  15   1
ENDBRANCH   9  15
BRANCH   7  14
ATOM     14  C   UNL     1     -10.781 -10.866  16.712  0.00  0.00    +0.158 C 
BRANCH  14  18
ATOM     18  C   UNL     1     -11.293  -9.509  16.297  0.00  0.00    -0.028 A 
ATOM     20  C   UNL     1     -12.573  -9.102  16.670  0.00  0.00    +0.009 A 
ATOM     21  C   UNL     1     -10.484  -8.660  15.541  0.00  0.00    +0.009 A 
ATOM     23  C   UNL     1     -13.047  -7.847  16.286  0.00  0.00    +0.046 A 
ATOM     24  C   UNL     1     -10.957  -7.404  15.157  0.00  0.00    +0.046 A 
ATOM     25  C   UNL     1     -12.238  -6.998  15.530  0.00  0.00    +0.120 A 
BRANCH  25   5
ATOM      5  O   UNL     1     -12.699  -5.774  15.157  0.00  0.00    -0.495 OA
ATOM     32  C   UNL     1     -12.269  -5.276  13.890  0.00  0.00    +0.277 C 
ENDBRANCH  25   5
ENDBRANCH  14  18
ENDBRANCH   7  14
BRANCH  17  19
ATOM     19  C   UNL     1      -5.644  -9.895  14.854  0.00  0.00    +0.324 C 
BRANCH  19   4
ATOM      4  O   UNL     1      -5.106 -10.919  14.054  0.00  0.00    -0.483 OA
BRANCH   4  26
ATOM     26  C   UNL     1      -4.267 -10.546  13.028  0.00  0.00    +0.121 A 
ATOM     27  C   UNL     1      -4.793  -9.966  11.872  0.00  0.00    +0.045 A 
ATOM     28  C   UNL     1      -2.892 -10.749  13.143  0.00  0.00    +0.045 A 
ATOM     29  C   UNL     1      -3.943  -9.589  10.833  0.00  0.00    +0.004 A 
ATOM     30  C   UNL     1      -2.042 -10.372  12.103  0.00  0.00    +0.004 A 
ATOM     31  C   UNL     1      -2.567  -9.792  10.948  0.00  0.00    +0.000 A 
ENDBRANCH   4  26
ENDBRANCH  19   4
ENDBRANCH  17  19
TORSDOF 8
ENDMDL
MODEL 5
REMARK VINA RESULT:      -6.6     29.700     36.059
REMARK  Name = 25338986
REMARK  10 active torsions:
REMARK  status: ('A' for Active; 'I' for Inactive)
REMARK    1  A    between atoms: O_1  and  C_15
REMARK    2  A    between atoms: O_1  and  C_22
REMARK    3  A    between atoms: O_4  and  C_19
REMARK    4  A    between atoms: O_4  and  C_26
REMARK    5  A    between atoms: O_5  and  C_25
REMARK    6  A    between atoms: O_5  and  C_32
REMARK    7  A    between atoms: N_7  and  C_14
REMARK    8  A    between atoms: C_9  and  C_15
REMARK    9  A    between atoms: C_14  and  C_18
REMARK   10  A    between atoms: C_17  and  C_19
REMARK                            x       y       z     vdW  Elec       q    Type
REMARK                         _______ _______ _______ _____ _____    ______ ____
ROOT
ATOM      3  O   UNL     1      16.553   6.251  -0.074  0.00  0.00    -0.272 OA
ATOM      6  N   UNL     1      14.444   5.882   0.851  0.00  0.00    -0.279 N 
ATOM      7  N   UNL     1      11.460   5.276   3.038  0.00  0.00    -0.328 N 
ATOM      8  N   UNL     1      11.645   3.158   2.352  0.00  0.00    -0.240 NA
ATOM      9  C   UNL     1      14.218   4.668   0.022  0.00  0.00    +0.191 C 
ATOM     10  C   UNL     1      13.606   3.473   0.785  0.00  0.00    +0.091 C 
ATOM     11  C   UNL     1      12.500   5.247   2.156  0.00  0.00    +0.059 A 
ATOM     12  C   UNL     1      13.338   6.377   1.719  0.00  0.00    +0.164 C 
ATOM     13  C   UNL     1      12.590   3.939   1.750  0.00  0.00    +0.066 A 
ATOM     16  C   UNL     1      10.978   3.994   3.123  0.00  0.00    +0.200 A 
ATOM     17  C   UNL     1      15.616   6.624   0.636  0.00  0.00    +0.254 C 
ENDROOT
BRANCH   9  15
ATOM      2  O   UNL     1      13.323   6.246  -1.566  0.00  0.00    -0.249 OA
ATOM     15  C   UNL     1      13.352   5.105  -1.126  0.00  0.00    +0.328 C 
BRANCH  15   1
ATOM      1  O   UNL     1      12.626   4.043  -1.580  0.00  0.00    -0.467 OA
ATOM     22  C   UNL     1      11.243   4.307  -1.831  0.00  0.00    +0.280 C 
ENDBRANCH  15   1
ENDBRANCH   9  15
BRANCH   7  14
ATOM     14  C   UNL     1      10.950   6.423   3.748  0.00  0.00    +0.158 C 
BRANCH  14  18
ATOM     18  C   UNL     1      10.798   6.188   5.230  0.00  0.00    -0.028 A 
ATOM     20  C   UNL     1      11.849   6.489   6.096  0.00  0.00    +0.009 A 
ATOM     21  C   UNL     1       9.605   5.668   5.736  0.00  0.00    +0.009 A 
ATOM     23  C   UNL     1      11.709   6.271   7.467  0.00  0.00    +0.046 A 
ATOM     24  C   UNL     1       9.465   5.451   7.107  0.00  0.00    +0.046 A 
ATOM     25  C   UNL     1      10.516   5.752   7.972  0.00  0.00    +0.120 A 
BRANCH  25   5
ATOM      5  O   UNL     1      10.379   5.542   9.309  0.00  0.00    -0.495 OA
ATOM     32  C   UNL     1       9.369   4.621   9.721  0.00  0.00    +0.277 C 
ENDBRANCH  25   5
ENDBRANCH  14  18
ENDBRANCH   7  14
BRANCH  17  19
ATOM     19  C   UNL     1      15.706   7.956   1.337  0.00  0.00    +0.324 C 
BRANCH  19   4
ATOM      4  O   UNL     1      16.704   7.827   2.320  0.00  0.00    -0.483 OA
BRANCH   4  26
ATOM     26  C   UNL     1      16.365   8.156   3.613  0.00  0.00    +0.121 A 
ATOM     27  C   UNL     1      16.789   9.367   4.160  0.00  0.00    +0.045 A 
ATOM     28  C   UNL     1      15.598   7.276   4.377  0.00  0.00    +0.045 A 
ATOM     29  C   UNL     1      16.446   9.700   5.470  0.00  0.00    +0.004 A 
ATOM     30  C   UNL     1      15.255   7.608   5.688  0.00  0.00    +0.004 A 
ATOM     31  C   UNL     1      15.679   8.820   6.235  0.00  0.00    +0.000 A 
ENDBRANCH   4  26
ENDBRANCH  19   4
ENDBRANCH  17  19
TORSDOF 8
ENDMDL
MODEL 6
REMARK VINA RESULT:      -6.4     19.272     21.300
REMARK  Name = 25338986
REMARK  10 active torsions:
REMARK  status: ('A' for Active; 'I' for Inactive)
REMARK    1  A    between atoms: O_1  and  C_15
REMARK    2  A    between atoms: O_1  and  C_22
REMARK    3  A    between atoms: O_4  and  C_19
REMARK    4  A    between atoms: O_4  and  C_26
REMARK    5  A    between atoms: O_5  and  C_25
REMARK    6  A    between atoms: O_5  and  C_32
REMARK    7  A    between atoms: N_7  and  C_14
REMARK    8  A    between atoms: C_9  and  C_15
REMARK    9  A    between atoms: C_14  and  C_18
REMARK   10  A    between atoms: C_17  and  C_19
REMARK                            x       y       z     vdW  Elec       q    Type
REMARK                         _______ _______ _______ _____ _____    ______ ____
ROOT
ATOM      3  O   UNL     1      -9.747 -10.089  13.150  0.00  0.00    -0.272 OA
ATOM      6  N   UNL     1      -8.225 -10.107  14.918  0.00  0.00    -0.279 N 
ATOM      7  N   UNL     1      -5.453 -10.757  17.355  0.00  0.00    -0.328 N 
ATOM      8  N   UNL     1      -7.031 -11.771  18.567  0.00  0.00    -0.240 NA
ATOM      9  C   UNL     1      -9.301 -10.276  15.932  0.00  0.00    +0.191 C 
ATOM     10  C   UNL     1      -8.990 -11.314  17.031  0.00  0.00    +0.091 C 
ATOM     11  C   UNL     1      -6.619 -10.610  16.665  0.00  0.00    +0.059 A 
ATOM     12  C   UNL     1      -6.822  -9.914  15.382  0.00  0.00    +0.164 C 
ATOM     13  C   UNL     1      -7.570 -11.238  17.430  0.00  0.00    +0.066 A 
ATOM     16  C   UNL     1      -5.752 -11.463  18.493  0.00  0.00    +0.200 A 
ATOM     17  C   UNL     1      -8.599  -9.938  13.576  0.00  0.00    +0.254 C 
ENDROOT
BRANCH   9  15
ATOM      2  O   UNL     1      -8.950  -8.447  17.463  0.00  0.00    -0.249 OA
ATOM     15  C   UNL     1      -9.552  -8.909  16.503  0.00  0.00    +0.328 C 
BRANCH  15   1
ATOM      1  O   UNL     1     -10.535  -8.290  15.789  0.00  0.00    -0.467 OA
ATOM     22  C   UNL     1     -10.371  -6.879  15.614  0.00  0.00    +0.280 C 
ENDBRANCH  15   1
ENDBRANCH   9  15
BRANCH   7  14
ATOM     14  C   UNL     1      -4.149 -10.267  16.980  0.00  0.00    +0.158 C 
BRANCH  14  18
ATOM     18  C   UNL     1      -3.426 -11.173  16.014  0.00  0.00    -0.028 A 
ATOM     20  C   UNL     1      -4.065 -12.304  15.506  0.00  0.00    +0.009 A 
ATOM     21  C   UNL     1      -2.117 -10.880  15.630  0.00  0.00    +0.009 A 
ATOM     23  C   UNL     1      -3.396 -13.142  14.614  0.00  0.00    +0.046 A 
ATOM     24  C   UNL     1      -1.448 -11.719  14.737  0.00  0.00    +0.046 A 
ATOM     25  C   UNL     1      -2.087 -12.849  14.230  0.00  0.00    +0.120 A 
BRANCH  25   5
ATOM      5  O   UNL     1      -1.436 -13.666  13.358  0.00  0.00    -0.495 OA
ATOM     32  C   UNL     1      -2.234 -14.575  12.600  0.00  0.00    +0.277 C 
ENDBRANCH  25   5
ENDBRANCH  14  18
ENDBRANCH   7  14
BRANCH  17  19
ATOM     19  C   UNL     1      -7.500  -9.555  12.615  0.00  0.00    +0.324 C 
BRANCH  19   4
ATOM      4  O   UNL     1      -7.117 -10.735  11.952  0.00  0.00    -0.483 OA
BRANCH   4  26
ATOM     26  C   UNL     1      -5.779 -10.897  11.671  0.00  0.00    +0.121 A 
ATOM     27  C   UNL     1      -5.368 -11.886  10.777  0.00  0.00    +0.045 A 
ATOM     28  C   UNL     1      -4.834 -10.073  12.282  0.00  0.00    +0.045 A 
ATOM     29  C   UNL     1      -4.012 -12.050  10.493  0.00  0.00    +0.004 A 
ATOM     30  C   UNL     1      -3.478 -10.237  11.999  0.00  0.00    +0.004 A 
ATOM     31  C   UNL     1      -3.067 -11.226  11.104  0.00  0.00    +0.000 A 
ENDBRANCH   4  26
ENDBRANCH  19   4
ENDBRANCH  17  19
TORSDOF 8
ENDMDL
MODEL 7
REMARK VINA RESULT:      -6.4     30.243     35.606
REMARK  Name = 25338986
REMARK  10 active torsions:
REMARK  status: ('A' for Active; 'I' for Inactive)
REMARK    1  A    between atoms: O_1  and  C_15
REMARK    2  A    between atoms: O_1  and  C_22
REMARK    3  A    between atoms: O_4  and  C_19
REMARK    4  A    between atoms: O_4  and  C_26
REMARK    5  A    between atoms: O_5  and  C_25
REMARK    6  A    between atoms: O_5  and  C_32
REMARK    7  A    between atoms: N_7  and  C_14
REMARK    8  A    between atoms: C_9  and  C_15
REMARK    9  A    between atoms: C_14  and  C_18
REMARK   10  A    between atoms: C_17  and  C_19
REMARK                            x       y       z     vdW  Elec       q    Type
REMARK                         _______ _______ _______ _____ _____    ______ ____
ROOT
ATOM      3  O   UNL     1      10.092   4.418   5.640  0.00  0.00    -0.272 OA
ATOM      6  N   UNL     1      11.506   6.233   5.258  0.00  0.00    -0.279 N 
ATOM      7  N   UNL     1      14.228   8.604   4.248  0.00  0.00    -0.328 N 
ATOM      8  N   UNL     1      14.942   8.357   6.351  0.00  0.00    -0.240 NA
ATOM      9  C   UNL     1      11.659   6.508   6.712  0.00  0.00    +0.191 C 
ATOM     10  C   UNL     1      13.103   6.818   7.160  0.00  0.00    +0.091 C 
ATOM     11  C   UNL     1      13.334   7.779   4.863  0.00  0.00    +0.059 A 
ATOM     12  C   UNL     1      12.125   7.172   4.280  0.00  0.00    +0.164 C 
ATOM     13  C   UNL     1      13.792   7.646   6.150  0.00  0.00    +0.066 A 
ATOM     16  C   UNL     1      15.179   8.925   5.185  0.00  0.00    +0.200 A 
ATOM     17  C   UNL     1      10.624   5.216   4.864  0.00  0.00    +0.254 C 
ENDROOT
BRANCH   9  15
ATOM      2  O   UNL     1      11.027   8.821   6.966  0.00  0.00    -0.249 OA
ATOM     15  C   UNL     1      10.719   7.638   7.022  0.00  0.00    +0.328 C 
BRANCH  15   1
ATOM      1  O   UNL     1       9.498   7.135   7.365  0.00  0.00    -0.467 OA
ATOM     22  C   UNL     1       9.502   6.198   8.446  0.00  0.00    +0.280 C 
ENDBRANCH  15   1
ENDBRANCH   9  15
BRANCH   7  14
ATOM     14  C   UNL     1      14.196   9.064   2.882  0.00  0.00    +0.158 C 
BRANCH  14  18
ATOM     18  C   UNL     1      14.896   8.134   1.922  0.00  0.00    -0.028 A 
ATOM     20  C   UNL     1      16.283   8.186   1.786  0.00  0.00    +0.009 A 
ATOM     21  C   UNL     1      14.155   7.222   1.170  0.00  0.00    +0.009 A 
ATOM     23  C   UNL     1      16.930   7.327   0.897  0.00  0.00    +0.046 A 
ATOM     24  C   UNL     1      14.802   6.362   0.282  0.00  0.00    +0.046 A 
ATOM     25  C   UNL     1      16.189   6.414   0.146  0.00  0.00    +0.120 A 
BRANCH  25   5
ATOM      5  O   UNL     1      16.820   5.575  -0.719  0.00  0.00    -0.495 OA
ATOM     32  C   UNL     1      16.515   4.185  -0.613  0.00  0.00    +0.277 C 
ENDBRANCH  25   5
ENDBRANCH  14  18
ENDBRANCH   7  14
BRANCH  17  19
ATOM     19  C   UNL     1      10.334   5.113   3.387  0.00  0.00    +0.324 C 
BRANCH  19   4
ATOM      4  O   UNL     1      10.971   3.944   2.932  0.00  0.00    -0.483 OA
BRANCH   4  26
ATOM     26  C   UNL     1      11.382   3.918   1.618  0.00  0.00    +0.121 A 
ATOM     27  C   UNL     1      10.591   4.499   0.627  0.00  0.00    +0.045 A 
ATOM     28  C   UNL     1      12.591   3.308   1.279  0.00  0.00    +0.045 A 
ATOM     29  C   UNL     1      11.008   4.471  -0.704  0.00  0.00    +0.004 A 
ATOM     30  C   UNL     1      13.008   3.281  -0.052  0.00  0.00    +0.004 A 
ATOM     31  C   UNL     1      12.216   3.862  -1.043  0.00  0.00    +0.000 A 
ENDBRANCH   4  26
ENDBRANCH  19   4
ENDBRANCH  17  19
TORSDOF 8
ENDMDL
MODEL 8
REMARK VINA RESULT:      -6.4     27.777     31.832
REMARK  Name = 25338986
REMARK  10 active torsions:
REMARK  status: ('A' for Active; 'I' for Inactive)
REMARK    1  A    between atoms: O_1  and  C_15
REMARK    2  A    between atoms: O_1  and  C_22
REMARK    3  A    between atoms: O_4  and  C_19
REMARK    4  A    between atoms: O_4  and  C_26
REMARK    5  A    between atoms: O_5  and  C_25
REMARK    6  A    between atoms: O_5  and  C_32
REMARK    7  A    between atoms: N_7  and  C_14
REMARK    8  A    between atoms: C_9  and  C_15
REMARK    9  A    between atoms: C_14  and  C_18
REMARK   10  A    between atoms: C_17  and  C_19
REMARK                            x       y       z     vdW  Elec       q    Type
REMARK                         _______ _______ _______ _____ _____    ______ ____
ROOT
ATOM      3  O   UNL     1      18.350  11.730  23.099  0.00  0.00    -0.272 OA
ATOM      6  N   UNL     1      16.452  11.780  21.743  0.00  0.00    -0.279 N 
ATOM      7  N   UNL     1      13.924  12.103  18.996  0.00  0.00    -0.328 N 
ATOM      8  N   UNL     1      13.390  14.030  19.992  0.00  0.00    -0.240 NA
ATOM      9  C   UNL     1      15.745  12.723  22.651  0.00  0.00    +0.191 C 
ATOM     10  C   UNL     1      15.003  13.871  21.935  0.00  0.00    +0.091 C 
ATOM     11  C   UNL     1      14.716  12.196  20.101  0.00  0.00    +0.059 A 
ATOM     12  C   UNL     1      15.720  11.225  20.570  0.00  0.00    +0.164 C 
ATOM     13  C   UNL     1      14.368  13.383  20.694  0.00  0.00    +0.066 A 
ATOM     16  C   UNL     1      13.142  13.232  18.973  0.00  0.00    +0.200 A 
ATOM     17  C   UNL     1      17.711  11.299  22.136  0.00  0.00    +0.254 C 
ENDROOT
BRANCH   9  15
ATOM      2  O   UNL     1      14.967  10.684  23.678  0.00  0.00    -0.249 OA
ATOM     15  C   UNL     1      14.814  11.882  23.479  0.00  0.00    +0.328 C 
BRANCH  15   1
ATOM      1  O   UNL     1      13.801  12.659  23.957  0.00  0.00    -0.467 OA
ATOM     22  C   UNL     1      13.304  12.295  25.248  0.00  0.00    +0.280 C 
ENDBRANCH  15   1
ENDBRANCH   9  15
BRANCH   7  14
ATOM     14  C   UNL     1      13.894  11.033  18.029  0.00  0.00    +0.158 C 
BRANCH  14  18
ATOM     18  C   UNL     1      13.320   9.750  18.577  0.00  0.00    -0.028 A 
ATOM     20  C   UNL     1      13.988   8.543  18.373  0.00  0.00    +0.009 A 
ATOM     21  C   UNL     1      12.120   9.771  19.289  0.00  0.00    +0.009 A 
ATOM     23  C   UNL     1      13.457   7.356  18.879  0.00  0.00    +0.046 A 
ATOM     24  C   UNL     1      11.589   8.584  19.795  0.00  0.00    +0.046 A 
ATOM     25  C   UNL     1      12.257   7.377  19.591  0.00  0.00    +0.120 A 
BRANCH  25   5
ATOM      5  O   UNL     1      11.740   6.220  20.086  0.00  0.00    -0.495 OA
ATOM     32  C   UNL     1      11.377   6.211  21.466  0.00  0.00    +0.277 C 
ENDBRANCH  25   5
ENDBRANCH  14  18
ENDBRANCH   7  14
BRANCH  17  19
ATOM     19  C   UNL     1      18.296  10.187  21.300  0.00  0.00    +0.324 C 
BRANCH  19   4
ATOM      4  O   UNL     1      17.843   8.980  21.863  0.00  0.00    -0.483 OA
BRANCH   4  26
ATOM     26  C   UNL     1      17.959   7.842  21.097  0.00  0.00    +0.121 A 
ATOM     27  C   UNL     1      16.897   7.432  20.290  0.00  0.00    +0.045 A 
ATOM     28  C   UNL     1      19.138   7.097  21.130  0.00  0.00    +0.045 A 
ATOM     29  C   UNL     1      17.015   6.279  19.515  0.00  0.00    +0.004 A 
ATOM     30  C   UNL     1      19.256   5.944  20.355  0.00  0.00    +0.004 A 
ATOM     31  C   UNL     1      18.194   5.534  19.548  0.00  0.00    +0.000 A 
ENDBRANCH   4  26
ENDBRANCH  19   4
ENDBRANCH  17  19
TORSDOF 8
ENDMDL
MODEL 9
REMARK VINA RESULT:      -6.4     17.724     19.637
REMARK  Name = 25338986
REMARK  10 active torsions:
REMARK  status: ('A' for Active; 'I' for Inactive)
REMARK    1  A    between atoms: O_1  and  C_15
REMARK    2  A    between atoms: O_1  and  C_22
REMARK    3  A    between atoms: O_4  and  C_19
REMARK    4  A    between atoms: O_4  and  C_26
REMARK    5  A    between atoms: O_5  and  C_25
REMARK    6  A    between atoms: O_5  and  C_32
REMARK    7  A    between atoms: N_7  and  C_14
REMARK    8  A    between atoms: C_9  and  C_15
REMARK    9  A    between atoms: C_14  and  C_18
REMARK   10  A    between atoms: C_17  and  C_19
REMARK                            x       y       z     vdW  Elec       q    Type
REMARK                         _______ _______ _______ _____ _____    ______ ____
ROOT
ATOM      3  O   UNL     1     -10.654 -10.181  17.510  0.00  0.00    -0.272 OA
ATOM      6  N   UNL     1      -8.427 -10.873  17.521  0.00  0.00    -0.279 N 
ATOM      7  N   UNL     1      -4.908 -11.898  16.736  0.00  0.00    -0.328 N 
ATOM      8  N   UNL     1      -5.665 -13.978  17.031  0.00  0.00    -0.240 NA
ATOM      9  C   UNL     1      -8.755 -12.144  18.222  0.00  0.00    +0.191 C 
ATOM     10  C   UNL     1      -8.047 -13.393  17.654  0.00  0.00    +0.091 C 
ATOM     11  C   UNL     1      -6.220 -11.782  17.090  0.00  0.00    +0.059 A 
ATOM     12  C   UNL     1      -6.997 -10.543  17.262  0.00  0.00    +0.164 C 
ATOM     13  C   UNL     1      -6.659 -13.070  17.266  0.00  0.00    +0.066 A 
ATOM     16  C   UNL     1      -4.621 -13.240  16.714  0.00  0.00    +0.200 A 
ATOM     17  C   UNL     1      -9.460  -9.947  17.309  0.00  0.00    +0.254 C 
ENDROOT
BRANCH   9  15
ATOM      2  O   UNL     1      -7.330 -12.162  20.167  0.00  0.00    -0.249 OA
ATOM     15  C   UNL     1      -8.420 -11.918  19.670  0.00  0.00    +0.328 C 
BRANCH  15   1
ATOM      1  O   UNL     1      -9.509 -11.408  20.314  0.00  0.00    -0.467 OA
ATOM     22  C   UNL     1     -10.647 -12.272  20.375  0.00  0.00    +0.280 C 
ENDBRANCH  15   1
ENDBRANCH   9  15
BRANCH   7  14
ATOM     14  C   UNL     1      -3.985 -10.829  16.444  0.00  0.00    +0.158 C 
BRANCH  14  18
ATOM     18  C   UNL     1      -3.684 -10.685  14.973  0.00  0.00    -0.028 A 
ATOM     20  C   UNL     1      -4.728 -10.579  14.054  0.00  0.00    +0.009 A 
ATOM     21  C   UNL     1      -2.361 -10.658  14.531  0.00  0.00    +0.009 A 
ATOM     23  C   UNL     1      -4.450 -10.446  12.694  0.00  0.00    +0.046 A 
ATOM     24  C   UNL     1      -2.082 -10.524  13.170  0.00  0.00    +0.046 A 
ATOM     25  C   UNL     1      -3.127 -10.419  12.252  0.00  0.00    +0.120 A 
BRANCH  25   5
ATOM      5  O   UNL     1      -2.855 -10.288  10.925  0.00  0.00    -0.495 OA
ATOM     32  C   UNL     1      -3.823 -10.802  10.011  0.00  0.00    +0.277 C 
ENDBRANCH  25   5
ENDBRANCH  14  18
ENDBRANCH   7  14
BRANCH  17  19
ATOM     19  C   UNL     1      -9.049  -8.590  16.794  0.00  0.00    +0.324 C 
BRANCH  19   4
ATOM      4  O   UNL     1      -9.475  -8.522  15.455  0.00  0.00    -0.483 OA
BRANCH   4  26
ATOM     26  C   UNL     1     -10.598  -7.772  15.185  0.00  0.00    +0.121 A 
ATOM     27  C   UNL     1     -10.883  -6.641  15.950  0.00  0.00    +0.045 A 
ATOM     28  C   UNL     1     -11.451  -8.144  14.146  0.00  0.00    +0.045 A 
ATOM     29  C   UNL     1     -12.020  -5.882  15.677  0.00  0.00    +0.004 A 
ATOM     30  C   UNL     1     -12.588  -7.385  13.872  0.00  0.00    +0.004 A 
ATOM     31  C   UNL     1     -12.873  -6.254  14.638  0.00  0.00    +0.000 A 
ENDBRANCH   4  26
ENDBRANCH  19   4
ENDBRANCH  17  19
TORSDOF 8
ENDMDL
MODEL 10
REMARK VINA RESULT:      -6.3     29.881     35.006
REMARK  Name = 25338986
REMARK  10 active torsions:
REMARK  status: ('A' for Active; 'I' for Inactive)
REMARK    1  A    between atoms: O_1  and  C_15
REMARK    2  A    between atoms: O_1  and  C_22
REMARK    3  A    between atoms: O_4  and  C_19
REMARK    4  A    between atoms: O_4  and  C_26
REMARK    5  A    between atoms: O_5  and  C_25
REMARK    6  A    between atoms: O_5  and  C_32
REMARK    7  A    between atoms: N_7  and  C_14
REMARK    8  A    between atoms: C_9  and  C_15
REMARK    9  A    between atoms: C_14  and  C_18
REMARK   10  A    between atoms: C_17  and  C_19
REMARK                            x       y       z     vdW  Elec       q    Type
REMARK                         _______ _______ _______ _____ _____    ______ ____
ROOT
ATOM      3  O   UNL     1      11.614   8.834   7.048  0.00  0.00    -0.272 OA
ATOM      6  N   UNL     1      11.041   7.345   5.346  0.00  0.00    -0.279 N 
ATOM      7  N   UNL     1      10.821   5.193   2.285  0.00  0.00    -0.328 N 
ATOM      8  N   UNL     1       9.403   6.751   1.542  0.00  0.00    -0.240 NA
ATOM      9  C   UNL     1       9.748   8.033   5.087  0.00  0.00    +0.191 C 
ATOM     10  C   UNL     1       9.414   8.233   3.593  0.00  0.00    +0.091 C 
ATOM     11  C   UNL     1      10.696   6.108   3.288  0.00  0.00    +0.059 A 
ATOM     12  C   UNL     1      11.347   6.086   4.610  0.00  0.00    +0.164 C 
ATOM     13  C   UNL     1       9.821   7.050   2.808  0.00  0.00    +0.066 A 
ATOM     16  C   UNL     1      10.023   5.624   1.255  0.00  0.00    +0.200 A 
ATOM     17  C   UNL     1      11.831   7.798   6.413  0.00  0.00    +0.254 C 
ENDROOT
BRANCH   9  15
ATOM      2  O   UNL     1       8.167   6.227   5.322  0.00  0.00    -0.249 OA
ATOM     15  C   UNL     1       8.697   7.223   5.794  0.00  0.00    +0.328 C 
BRANCH  15   1
ATOM      1  O   UNL     1       8.445   7.773   7.016  0.00  0.00    -0.467 OA
ATOM     22  C   UNL     1       8.852   6.985   8.140  0.00  0.00    +0.280 C 
ENDBRANCH  15   1
ENDBRANCH   9  15
BRANCH   7  14
ATOM     14  C   UNL     1      11.625   3.996   2.291  0.00  0.00    +0.158 C 
BRANCH  14  18
ATOM     18  C   UNL     1      12.800   4.062   1.347  0.00  0.00    -0.028 A 
ATOM     20  C   UNL     1      13.966   4.725   1.729  0.00  0.00    +0.009 A 
ATOM     21  C   UNL     1      12.721   3.459   0.091  0.00  0.00    +0.009 A 
ATOM     23  C   UNL     1      15.052   4.787   0.856  0.00  0.00    +0.046 A 
ATOM     24  C   UNL     1      13.808   3.520  -0.782  0.00  0.00    +0.046 A 
ATOM     25  C   UNL     1      14.973   4.184  -0.400  0.00  0.00    +0.120 A 
BRANCH  25   5
ATOM      5  O   UNL     1      16.033   4.242  -1.250  0.00  0.00    -0.495 OA
ATOM     32  C   UNL     1      15.819   4.875  -2.512  0.00  0.00    +0.277 C 
ENDBRANCH  25   5
ENDBRANCH  14  18
ENDBRANCH   7  14
BRANCH  17  19
ATOM     19  C   UNL     1      13.021   6.945   6.778  0.00  0.00    +0.324 C 
BRANCH  19   4
ATOM      4  O   UNL     1      14.103   7.824   6.966  0.00  0.00    -0.483 OA
BRANCH   4  26
ATOM     26  C   UNL     1      15.051   7.882   5.969  0.00  0.00    +0.121 A 
ATOM     27  C   UNL     1      14.799   7.292   4.730  0.00  0.00    +0.045 A 
ATOM     28  C   UNL     1      16.265   8.530   6.199  0.00  0.00    +0.045 A 
ATOM     29  C   UNL     1      15.760   7.351   3.721  0.00  0.00    +0.004 A 
ATOM     30  C   UNL     1      17.226   8.589   5.189  0.00  0.00    +0.004 A 
ATOM     31  C   UNL     1      16.974   7.999   3.950  0.00  0.00    +0.000 A 
ENDBRANCH   4  26
ENDBRANCH  19   4
ENDBRANCH  17  19
TORSDOF 8
ENDMDL
