MODEL 1
REMARK VINA RESULT:      -8.1      0.000      0.000
REMARK  Name = 11884103
REMARK  9 active torsions:
REMARK  status: ('A' for Active; 'I' for Inactive)
REMARK    1  A    between atoms: O_3  and  C_12
REMARK    2  A    between atoms: O_3  and  C_16
REMARK    3  A    between atoms: N_6  and  C_11
REMARK    4  A    between atoms: N_7  and  C_17
REMARK    5  A    between atoms: N_8  and  C_18
REMARK    6  A    between atoms: C_17  and  C_19
REMARK    7  A    between atoms: C_22  and  C_23
REMARK    8  A    between atoms: C_23  and  C_28
REMARK    9  A    between atoms: C_23  and  C_29
REMARK                            x       y       z     vdW  Elec       q    Type
REMARK                         _______ _______ _______ _____ _____    ______ ____
ROOT
ATOM      1  O   UNL     1     -16.717   4.901  25.333  0.00  0.00    -0.368 OA
ATOM      2  O   UNL     1     -16.789   1.947  24.512  0.00  0.00    -0.368 OA
ATOM      9  C   UNL     1     -15.852   2.694  25.316  0.00  0.00    +0.173 C 
ATOM     10  C   UNL     1     -15.736   4.069  24.693  0.00  0.00    +0.192 C 
ATOM     11  C   UNL     1     -16.440   2.963  26.682  0.00  0.00    +0.131 C 
ATOM     12  C   UNL     1     -16.083   3.803  23.247  0.00  0.00    +0.235 C 
ATOM     13  C   UNL     1     -17.313   4.179  26.421  0.00  0.00    +0.185 C 
ATOM     14  C   UNL     1     -17.148   2.735  23.367  0.00  0.00    +0.207 C 
ENDROOT
BRANCH  11   6
ATOM      4  O   UNL     1     -16.186   1.865  29.338  0.00  0.00    -0.253 OA
ATOM      6  N   UNL     1     -15.409   3.253  27.647  0.00  0.00    -0.292 N 
ATOM      7  N   UNL     1     -14.265   3.130  29.641  0.00  0.00    -0.295 N 
ATOM     15  C   UNL     1     -15.363   2.675  28.915  0.00  0.00    +0.300 C 
ATOM     33  H   UNL     1     -14.644   3.861  27.371  0.00  0.00    +0.151 HD
ATOM     34  H   UNL     1     -13.625   3.784  29.200  0.00  0.00    +0.151 HD
BRANCH   7  17
ATOM     17  C   UNL     1     -13.980   2.690  30.986  0.00  0.00    +0.141 C 
BRANCH  17  19
ATOM     19  C   UNL     1     -14.511   3.647  32.014  0.00  0.00    -0.030 A 
ATOM     26  C   UNL     1     -13.735   4.729  32.427  0.00  0.00    +0.005 A 
ATOM     27  C   UNL     1     -15.783   3.454  32.555  0.00  0.00    +0.005 A 
ATOM     30  C   UNL     1     -14.228   5.617  33.382  0.00  0.00    +0.000 A 
ATOM     31  C   UNL     1     -16.276   4.342  33.510  0.00  0.00    +0.000 A 
ATOM     32  C   UNL     1     -15.499   5.424  33.924  0.00  0.00    +0.000 A 
ENDBRANCH  17  19
ENDBRANCH   7  17
ENDBRANCH  11   6
BRANCH  12   3
ATOM      3  O   UNL     1     -16.550   4.944  22.562  0.00  0.00    -0.442 OA
BRANCH   3  16
ATOM      5  O   UNL     1     -16.010   5.119  20.347  0.00  0.00    -0.226 OA
ATOM      8  N   UNL     1     -14.756   6.191  22.007  0.00  0.00    -0.251 N 
ATOM     16  C   UNL     1     -15.777   5.401  21.515  0.00  0.00    +0.405 C 
ATOM     35  H   UNL     1     -14.725   6.310  23.016  0.00  0.00    +0.158 HD
BRANCH   8  18
ATOM     18  C   UNL     1     -13.741   6.855  21.279  0.00  0.00    +0.036 A 
ATOM     20  C   UNL     1     -12.443   6.344  21.269  0.00  0.00    +0.024 A 
ATOM     21  C   UNL     1     -14.039   8.019  20.572  0.00  0.00    +0.024 A 
ATOM     22  C   UNL     1     -11.740   8.164  19.844  0.00  0.00    -0.045 A 
ATOM     24  C   UNL     1     -11.442   6.999  20.550  0.00  0.00    +0.006 A 
ATOM     25  C   UNL     1     -13.038   8.674  19.854  0.00  0.00    +0.006 A 
BRANCH  22  23
ATOM     23  C   UNL     1     -10.671   8.863  19.075  0.00  0.00    +0.013 C 
ATOM     28  C   UNL     1     -10.785  10.396  19.167  0.00  0.00    +0.012 C 
ATOM     29  C   UNL     1     -10.629   8.430  17.596  0.00  0.00    +0.012 C 
ENDBRANCH  22  23
ENDBRANCH   8  18
ENDBRANCH   3  16
ENDBRANCH  12   3
TORSDOF 7
ENDMDL
MODEL 2
REMARK VINA RESULT:      -7.3     16.657     19.852
REMARK  Name = 11884103
REMARK  9 active torsions:
REMARK  status: ('A' for Active; 'I' for Inactive)
REMARK    1  A    between atoms: O_3  and  C_12
REMARK    2  A    between atoms: O_3  and  C_16
REMARK    3  A    between atoms: N_6  and  C_11
REMARK    4  A    between atoms: N_7  and  C_17
REMARK    5  A    between atoms: N_8  and  C_18
REMARK    6  A    between atoms: C_17  and  C_19
REMARK    7  A    between atoms: C_22  and  C_23
REMARK    8  A    between atoms: C_23  and  C_28
REMARK    9  A    between atoms: C_23  and  C_29
REMARK                            x       y       z     vdW  Elec       q    Type
REMARK                         _______ _______ _______ _____ _____    ______ ____
ROOT
ATOM      1  O   UNL     1      -9.847  -9.123  15.033  0.00  0.00    -0.368 OA
ATOM      2  O   UNL     1     -10.889  -8.501  17.850  0.00  0.00    -0.368 OA
ATOM      9  C   UNL     1     -10.514  -7.637  16.756  0.00  0.00    +0.173 C 
ATOM     10  C   UNL     1      -9.325  -8.282  16.075  0.00  0.00    +0.192 C 
ATOM     11  C   UNL     1     -11.590  -7.648  15.695  0.00  0.00    +0.131 C 
ATOM     12  C   UNL     1      -8.707  -9.090  17.191  0.00  0.00    +0.235 C 
ATOM     13  C   UNL     1     -11.262  -8.912  14.918  0.00  0.00    +0.185 C 
ATOM     14  C   UNL     1      -9.925  -9.559  17.956  0.00  0.00    +0.207 C 
ENDROOT
BRANCH  11   6
ATOM      4  O   UNL     1     -13.785  -6.056  14.708  0.00  0.00    -0.253 OA
ATOM      6  N   UNL     1     -11.507  -6.478  14.855  0.00  0.00    -0.292 N 
ATOM      7  N   UNL     1     -12.259  -4.684  13.625  0.00  0.00    -0.295 N 
ATOM     15  C   UNL     1     -12.624  -5.766  14.422  0.00  0.00    +0.300 C 
ATOM     33  H   UNL     1     -10.588  -6.117  14.616  0.00  0.00    +0.151 HD
ATOM     34  H   UNL     1     -11.273  -4.510  13.461  0.00  0.00    +0.151 HD
BRANCH   7  17
ATOM     17  C   UNL     1     -13.223  -3.780  13.045  0.00  0.00    +0.141 C 
BRANCH  17  19
ATOM     19  C   UNL     1     -13.031  -3.631  11.563  0.00  0.00    -0.030 A 
ATOM     26  C   UNL     1     -14.125  -3.360  10.741  0.00  0.00    +0.005 A 
ATOM     27  C   UNL     1     -11.758  -3.762  11.008  0.00  0.00    +0.005 A 
ATOM     30  C   UNL     1     -13.947  -3.222   9.365  0.00  0.00    +0.000 A 
ATOM     31  C   UNL     1     -11.580  -3.624   9.632  0.00  0.00    +0.000 A 
ATOM     32  C   UNL     1     -12.674  -3.353   8.810  0.00  0.00    +0.000 A 
ENDBRANCH  17  19
ENDBRANCH   7  17
ENDBRANCH  11   6
BRANCH  12   3
ATOM      3  O   UNL     1      -7.918 -10.167  16.736  0.00  0.00    -0.442 OA
BRANCH   3  16
ATOM      5  O   UNL     1      -5.824  -9.286  16.480  0.00  0.00    -0.226 OA
ATOM      8  N   UNL     1      -6.973 -10.267  14.692  0.00  0.00    -0.251 N 
ATOM     16  C   UNL     1      -6.797  -9.850  15.997  0.00  0.00    +0.405 C 
ATOM     35  H   UNL     1      -7.857 -10.721  14.479  0.00  0.00    +0.158 HD
BRANCH   8  18
ATOM     18  C   UNL     1      -6.072 -10.139  13.609  0.00  0.00    +0.036 A 
ATOM     20  C   UNL     1      -6.376  -9.287  12.547  0.00  0.00    +0.024 A 
ATOM     21  C   UNL     1      -4.882 -10.864  13.603  0.00  0.00    +0.024 A 
ATOM     22  C   UNL     1      -4.297  -9.886  11.473  0.00  0.00    -0.045 A 
ATOM     24  C   UNL     1      -5.488  -9.160  11.479  0.00  0.00    +0.006 A 
ATOM     25  C   UNL     1      -3.993 -10.738  12.535  0.00  0.00    +0.006 A 
BRANCH  22  23
ATOM     23  C   UNL     1      -3.347  -9.749  10.332  0.00  0.00    +0.013 C 
ATOM     28  C   UNL     1      -1.982  -9.182  10.766  0.00  0.00    +0.012 C 
ATOM     29  C   UNL     1      -3.924  -8.900   9.182  0.00  0.00    +0.012 C 
ENDBRANCH  22  23
ENDBRANCH   8  18
ENDBRANCH   3  16
ENDBRANCH  12   3
TORSDOF 7
ENDMDL
MODEL 3
REMARK VINA RESULT:      -7.3     28.110     31.589
REMARK  Name = 11884103
REMARK  9 active torsions:
REMARK  status: ('A' for Active; 'I' for Inactive)
REMARK    1  A    between atoms: O_3  and  C_12
REMARK    2  A    between atoms: O_3  and  C_16
REMARK    3  A    between atoms: N_6  and  C_11
REMARK    4  A    between atoms: N_7  and  C_17
REMARK    5  A    between atoms: N_8  and  C_18
REMARK    6  A    between atoms: C_17  and  C_19
REMARK    7  A    between atoms: C_22  and  C_23
REMARK    8  A    between atoms: C_23  and  C_28
REMARK    9  A    between atoms: C_23  and  C_29
REMARK                            x       y       z     vdW  Elec       q    Type
REMARK                         _______ _______ _______ _____ _____    ______ ____
ROOT
ATOM      1  O   UNL     1      15.279   8.672  19.543  0.00  0.00    -0.368 OA
ATOM      2  O   UNL     1      14.229   6.257  21.115  0.00  0.00    -0.368 OA
ATOM      9  C   UNL     1      15.368   6.408  20.241  0.00  0.00    +0.173 C 
ATOM     10  C   UNL     1      14.944   7.340  19.124  0.00  0.00    +0.192 C 
ATOM     11  C   UNL     1      16.467   7.166  20.947  0.00  0.00    +0.131 C 
ATOM     12  C   UNL     1      13.449   7.128  19.071  0.00  0.00    +0.235 C 
ATOM     13  C   UNL     1      16.030   8.610  20.765  0.00  0.00    +0.185 C 
ATOM     14  C   UNL     1      13.104   6.930  20.531  0.00  0.00    +0.207 C 
ENDROOT
BRANCH  11   6
ATOM      4  O   UNL     1      19.059   7.329  22.205  0.00  0.00    -0.253 OA
ATOM      6  N   UNL     1      17.749   6.923  20.332  0.00  0.00    -0.292 N 
ATOM      7  N   UNL     1      20.038   6.739  20.187  0.00  0.00    -0.295 N 
ATOM     15  C   UNL     1      18.958   7.025  21.018  0.00  0.00    +0.300 C 
ATOM     33  H   UNL     1      17.771   6.602  19.369  0.00  0.00    +0.151 HD
ATOM     34  H   UNL     1      19.857   6.476  19.223  0.00  0.00    +0.151 HD
BRANCH   7  17
ATOM     17  C   UNL     1      21.407   6.772  20.644  0.00  0.00    +0.141 C 
BRANCH  17  19
ATOM     19  C   UNL     1      21.783   5.519  21.380  0.00  0.00    -0.030 A 
ATOM     26  C   UNL     1      21.650   4.277  20.759  0.00  0.00    +0.005 A 
ATOM     27  C   UNL     1      22.266   5.595  22.687  0.00  0.00    +0.005 A 
ATOM     30  C   UNL     1      21.998   3.113  21.443  0.00  0.00    +0.000 A 
ATOM     31  C   UNL     1      22.614   4.431  23.371  0.00  0.00    +0.000 A 
ATOM     32  C   UNL     1      22.481   3.190  22.749  0.00  0.00    +0.000 A 
ENDBRANCH  17  19
ENDBRANCH   7  17
ENDBRANCH  11   6
BRANCH  12   3
ATOM      3  O   UNL     1      12.747   8.210  18.502  0.00  0.00    -0.442 OA
BRANCH   3  16
ATOM      5  O   UNL     1      10.641   8.632  19.286  0.00  0.00    -0.226 OA
ATOM      8  N   UNL     1      12.513   9.768  20.115  0.00  0.00    -0.251 N 
ATOM     16  C   UNL     1      11.843   8.863  19.314  0.00  0.00    +0.405 C 
ATOM     35  H   UNL     1      13.521   9.818  19.992  0.00  0.00    +0.158 HD
BRANCH   8  18
ATOM     18  C   UNL     1      11.968  10.639  21.086  0.00  0.00    +0.036 A 
ATOM     20  C   UNL     1      11.534  10.133  22.311  0.00  0.00    +0.024 A 
ATOM     21  C   UNL     1      11.866  12.004  20.819  0.00  0.00    +0.024 A 
ATOM     22  C   UNL     1      10.895  12.358  23.003  0.00  0.00    -0.045 A 
ATOM     24  C   UNL     1      10.998  10.993  23.271  0.00  0.00    +0.006 A 
ATOM     25  C   UNL     1      11.329  12.864  21.778  0.00  0.00    +0.006 A 
BRANCH  22  23
ATOM     23  C   UNL     1      10.323  13.278  24.028  0.00  0.00    +0.013 C 
ATOM     28  C   UNL     1      10.733  14.745  23.799  0.00  0.00    +0.012 C 
ATOM     29  C   UNL     1      10.682  12.854  25.466  0.00  0.00    +0.012 C 
ENDBRANCH  22  23
ENDBRANCH   8  18
ENDBRANCH   3  16
ENDBRANCH  12   3
TORSDOF 7
ENDMDL
MODEL 4
REMARK VINA RESULT:      -7.2     16.326     18.612
REMARK  Name = 11884103
REMARK  9 active torsions:
REMARK  status: ('A' for Active; 'I' for Inactive)
REMARK    1  A    between atoms: O_3  and  C_12
REMARK    2  A    between atoms: O_3  and  C_16
REMARK    3  A    between atoms: N_6  and  C_11
REMARK    4  A    between atoms: N_7  and  C_17
REMARK    5  A    between atoms: N_8  and  C_18
REMARK    6  A    between atoms: C_17  and  C_19
REMARK    7  A    between atoms: C_22  and  C_23
REMARK    8  A    between atoms: C_23  and  C_28
REMARK    9  A    between atoms: C_23  and  C_29
REMARK                            x       y       z     vdW  Elec       q    Type
REMARK                         _______ _______ _______ _____ _____    ______ ____
ROOT
ATOM      1  O   UNL     1     -10.093  -7.729  17.455  0.00  0.00    -0.368 OA
ATOM      2  O   UNL     1     -10.671  -9.680  15.160  0.00  0.00    -0.368 OA
ATOM      9  C   UNL     1      -9.433  -9.138  15.666  0.00  0.00    +0.173 C 
ATOM     10  C   UNL     1      -9.713  -7.704  16.070  0.00  0.00    +0.192 C 
ATOM     11  C   UNL     1      -9.062  -9.814  16.965  0.00  0.00    +0.131 C 
ATOM     12  C   UNL     1     -10.873  -7.334  15.176  0.00  0.00    +0.235 C 
ATOM     13  C   UNL     1      -9.905  -9.054  17.975  0.00  0.00    +0.185 C 
ATOM     14  C   UNL     1     -11.649  -8.631  15.109  0.00  0.00    +0.207 C 
ENDROOT
BRANCH  11   6
ATOM      4  O   UNL     1      -7.028 -11.845  16.707  0.00  0.00    -0.253 OA
ATOM      6  N   UNL     1      -7.654  -9.675  17.245  0.00  0.00    -0.292 N 
ATOM      7  N   UNL     1      -5.449 -10.308  17.431  0.00  0.00    -0.295 N 
ATOM     15  C   UNL     1      -6.737 -10.714  17.092  0.00  0.00    +0.300 C 
ATOM     33  H   UNL     1      -7.301  -8.759  17.507  0.00  0.00    +0.151 HD
ATOM     34  H   UNL     1      -5.300  -9.345  17.718  0.00  0.00    +0.151 HD
BRANCH   7  17
ATOM     17  C   UNL     1      -4.308 -11.189  17.363  0.00  0.00    +0.141 C 
BRANCH  17  19
ATOM     19  C   UNL     1      -3.434 -10.886  16.180  0.00  0.00    -0.030 A 
ATOM     26  C   UNL     1      -2.072 -10.652  16.360  0.00  0.00    +0.005 A 
ATOM     27  C   UNL     1      -3.986 -10.840  14.899  0.00  0.00    +0.005 A 
ATOM     30  C   UNL     1      -1.260 -10.370  15.261  0.00  0.00    +0.000 A 
ATOM     31  C   UNL     1      -3.175 -10.559  13.800  0.00  0.00    +0.000 A 
ATOM     32  C   UNL     1      -1.812 -10.324  13.980  0.00  0.00    +0.000 A 
ENDBRANCH  17  19
ENDBRANCH   7  17
ENDBRANCH  11   6
BRANCH  12   3
ATOM      3  O   UNL     1     -11.654  -6.274  15.679  0.00  0.00    -0.442 OA
BRANCH   3  16
ATOM      5  O   UNL     1     -13.851  -6.121  15.064  0.00  0.00    -0.226 OA
ATOM      8  N   UNL     1     -12.163  -5.011  13.882  0.00  0.00    -0.251 N 
ATOM     16  C   UNL     1     -12.679  -5.820  14.875  0.00  0.00    +0.405 C 
ATOM     35  H   UNL     1     -11.155  -4.879  13.888  0.00  0.00    +0.158 HD
BRANCH   8  18
ATOM     18  C   UNL     1     -12.864  -4.344  12.850  0.00  0.00    +0.036 A 
ATOM     20  C   UNL     1     -12.296  -4.232  11.581  0.00  0.00    +0.024 A 
ATOM     21  C   UNL     1     -14.123  -3.800  13.102  0.00  0.00    +0.024 A 
ATOM     22  C   UNL     1     -14.246  -3.030  10.816  0.00  0.00    -0.045 A 
ATOM     24  C   UNL     1     -12.988  -3.575  10.563  0.00  0.00    +0.006 A 
ATOM     25  C   UNL     1     -14.814  -3.142  12.084  0.00  0.00    +0.006 A 
BRANCH  22  23
ATOM     23  C   UNL     1     -14.987  -2.328   9.728  0.00  0.00    +0.013 C 
ATOM     28  C   UNL     1     -16.487  -2.170  10.042  0.00  0.00    +0.012 C 
ATOM     29  C   UNL     1     -14.809  -3.012   8.358  0.00  0.00    +0.012 C 
ENDBRANCH  22  23
ENDBRANCH   8  18
ENDBRANCH   3  16
ENDBRANCH  12   3
TORSDOF 7
ENDMDL
MODEL 5
REMARK VINA RESULT:      -7.1     18.740     21.814
REMARK  Name = 11884103
REMARK  9 active torsions:
REMARK  status: ('A' for Active; 'I' for Inactive)
REMARK    1  A    between atoms: O_3  and  C_12
REMARK    2  A    between atoms: O_3  and  C_16
REMARK    3  A    between atoms: N_6  and  C_11
REMARK    4  A    between atoms: N_7  and  C_17
REMARK    5  A    between atoms: N_8  and  C_18
REMARK    6  A    between atoms: C_17  and  C_19
REMARK    7  A    between atoms: C_22  and  C_23
REMARK    8  A    between atoms: C_23  and  C_28
REMARK    9  A    between atoms: C_23  and  C_29
REMARK                            x       y       z     vdW  Elec       q    Type
REMARK                         _______ _______ _______ _____ _____    ______ ____
ROOT
ATOM      1  O   UNL     1      -5.868 -10.316  17.397  0.00  0.00    -0.368 OA
ATOM      2  O   UNL     1      -4.350 -12.186  19.297  0.00  0.00    -0.368 OA
ATOM      9  C   UNL     1      -4.817 -12.370  17.943  0.00  0.00    +0.173 C 
ATOM     10  C   UNL     1      -6.149 -11.655  17.836  0.00  0.00    +0.192 C 
ATOM     11  C   UNL     1      -3.925 -11.621  16.981  0.00  0.00    +0.131 C 
ATOM     12  C   UNL     1      -6.651 -11.685  19.260  0.00  0.00    +0.235 C 
ATOM     13  C   UNL     1      -4.475 -10.207  17.066  0.00  0.00    +0.185 C 
ATOM     14  C   UNL     1      -5.373 -11.519  20.052  0.00  0.00    +0.207 C 
ENDROOT
BRANCH  11   6
ATOM      4  O   UNL     1      -1.996 -11.384  14.848  0.00  0.00    -0.253 OA
ATOM      6  N   UNL     1      -4.039 -12.148  15.643  0.00  0.00    -0.292 N 
ATOM      7  N   UNL     1      -3.419 -12.594  13.472  0.00  0.00    -0.295 N 
ATOM     15  C   UNL     1      -3.054 -11.986  14.670  0.00  0.00    +0.300 C 
ATOM     33  H   UNL     1      -4.847 -12.719  15.415  0.00  0.00    +0.151 HD
ATOM     34  H   UNL     1      -4.304 -13.088  13.425  0.00  0.00    +0.151 HD
BRANCH   7  17
ATOM     17  C   UNL     1      -2.579 -12.576  12.298  0.00  0.00    +0.141 C 
BRANCH  17  19
ATOM     19  C   UNL     1      -2.980 -11.494  11.337  0.00  0.00    -0.030 A 
ATOM     26  C   UNL     1      -3.957 -11.743  10.374  0.00  0.00    +0.005 A 
ATOM     27  C   UNL     1      -2.375 -10.239  11.408  0.00  0.00    +0.005 A 
ATOM     30  C   UNL     1      -4.329 -10.739   9.481  0.00  0.00    +0.000 A 
ATOM     31  C   UNL     1      -2.748  -9.234  10.515  0.00  0.00    +0.000 A 
ATOM     32  C   UNL     1      -3.725  -9.483   9.552  0.00  0.00    +0.000 A 
ENDBRANCH  17  19
ENDBRANCH   7  17
ENDBRANCH  11   6
BRANCH  12   3
ATOM      3  O   UNL     1      -7.588 -10.672  19.547  0.00  0.00    -0.442 OA
BRANCH   3  16
ATOM      5  O   UNL     1      -9.492 -11.389  18.503  0.00  0.00    -0.226 OA
ATOM      8  N   UNL     1      -8.549  -9.298  18.040  0.00  0.00    -0.251 N 
ATOM     16  C   UNL     1      -8.639 -10.526  18.664  0.00  0.00    +0.405 C 
ATOM     35  H   UNL     1      -7.761  -8.713  18.307  0.00  0.00    +0.158 HD
BRANCH   8  18
ATOM     18  C   UNL     1      -9.418  -8.750  17.068  0.00  0.00    +0.036 A 
ATOM     20  C   UNL     1     -10.282  -7.710  17.412  0.00  0.00    +0.024 A 
ATOM     21  C   UNL     1      -9.410  -9.248  15.766  0.00  0.00    +0.024 A 
ATOM     22  C   UNL     1     -11.131  -7.668  15.151  0.00  0.00    -0.045 A 
ATOM     24  C   UNL     1     -11.138  -7.169  16.453  0.00  0.00    +0.006 A 
ATOM     25  C   UNL     1     -10.267  -8.708  14.806  0.00  0.00    +0.006 A 
BRANCH  22  23
ATOM     23  C   UNL     1     -12.045  -7.089  14.125  0.00  0.00    +0.013 C 
ATOM     28  C   UNL     1     -12.351  -5.601  14.380  0.00  0.00    +0.012 C 
ATOM     29  C   UNL     1     -13.363  -7.878  13.998  0.00  0.00    +0.012 C 
ENDBRANCH  22  23
ENDBRANCH   8  18
ENDBRANCH   3  16
ENDBRANCH  12   3
TORSDOF 7
ENDMDL
MODEL 6
REMARK VINA RESULT:      -7.1     28.851     32.257
REMARK  Name = 11884103
REMARK  9 active torsions:
REMARK  status: ('A' for Active; 'I' for Inactive)
REMARK    1  A    between atoms: O_3  and  C_12
REMARK    2  A    between atoms: O_3  and  C_16
REMARK    3  A    between atoms: N_6  and  C_11
REMARK    4  A    between atoms: N_7  and  C_17
REMARK    5  A    between atoms: N_8  and  C_18
REMARK    6  A    between atoms: C_17  and  C_19
REMARK    7  A    between atoms: C_22  and  C_23
REMARK    8  A    between atoms: C_23  and  C_28
REMARK    9  A    between atoms: C_23  and  C_29
REMARK                            x       y       z     vdW  Elec       q    Type
REMARK                         _______ _______ _______ _____ _____    ______ ____
ROOT
ATOM      1  O   UNL     1      13.867  10.462  18.035  0.00  0.00    -0.368 OA
ATOM      2  O   UNL     1      13.815   8.021  16.178  0.00  0.00    -0.368 OA
ATOM      9  C   UNL     1      13.076   9.261  16.150  0.00  0.00    +0.173 C 
ATOM     10  C   UNL     1      12.783   9.631  17.589  0.00  0.00    +0.192 C 
ATOM     11  C   UNL     1      13.963  10.382  15.661  0.00  0.00    +0.131 C 
ATOM     12  C   UNL     1      12.786   8.288  18.279  0.00  0.00    +0.235 C 
ATOM     13  C   UNL     1      14.720  10.766  16.921  0.00  0.00    +0.185 C 
ATOM     14  C   UNL     1      13.875   7.549  17.532  0.00  0.00    +0.207 C 
ENDROOT
BRANCH  11   6
ATOM      4  O   UNL     1      14.109  11.568  13.034  0.00  0.00    -0.253 OA
ATOM      6  N   UNL     1      13.181  11.487  15.161  0.00  0.00    -0.292 N 
ATOM      7  N   UNL     1      12.444  13.061  13.651  0.00  0.00    -0.295 N 
ATOM     15  C   UNL     1      13.318  11.999  13.871  0.00  0.00    +0.300 C 
ATOM     33  H   UNL     1      12.452  11.872  15.753  0.00  0.00    +0.151 HD
ATOM     34  H   UNL     1      11.810  13.333  14.396  0.00  0.00    +0.151 HD
BRANCH   7  17
ATOM     17  C   UNL     1      12.380  13.774  12.398  0.00  0.00    +0.141 C 
BRANCH  17  19
ATOM     19  C   UNL     1      11.309  13.229  11.497  0.00  0.00    -0.030 A 
ATOM     26  C   UNL     1      11.290  13.577  10.147  0.00  0.00    +0.005 A 
ATOM     27  C   UNL     1      10.333  12.374  12.011  0.00  0.00    +0.005 A 
ATOM     30  C   UNL     1      10.295  13.072   9.310  0.00  0.00    +0.000 A 
ATOM     31  C   UNL     1       9.339  11.869  11.174  0.00  0.00    +0.000 A 
ATOM     32  C   UNL     1       9.319  12.217   9.823  0.00  0.00    +0.000 A 
ENDBRANCH  17  19
ENDBRANCH   7  17
ENDBRANCH  11   6
BRANCH  12   3
ATOM      3  O   UNL     1      13.050   8.365  19.662  0.00  0.00    -0.442 OA
BRANCH   3  16
ATOM      5  O   UNL     1      13.836   6.526  20.770  0.00  0.00    -0.226 OA
ATOM      8  N   UNL     1      15.284   8.104  19.825  0.00  0.00    -0.251 N 
ATOM     16  C   UNL     1      14.057   7.558  20.150  0.00  0.00    +0.405 C 
ATOM     35  H   UNL     1      15.265   8.975  19.302  0.00  0.00    +0.158 HD
BRANCH   8  18
ATOM     18  C   UNL     1      16.569   7.600  20.132  0.00  0.00    +0.036 A 
ATOM     20  C   UNL     1      17.382   8.274  21.043  0.00  0.00    +0.024 A 
ATOM     21  C   UNL     1      17.022   6.430  19.525  0.00  0.00    +0.024 A 
ATOM     22  C   UNL     1      19.104   6.607  20.739  0.00  0.00    -0.045 A 
ATOM     24  C   UNL     1      18.650   7.777  21.347  0.00  0.00    +0.006 A 
ATOM     25  C   UNL     1      18.291   5.933  19.828  0.00  0.00    +0.006 A 
BRANCH  22  23
ATOM     23  C   UNL     1      20.458   6.075  21.064  0.00  0.00    +0.013 C 
ATOM     28  C   UNL     1      21.586   7.032  20.635  0.00  0.00    +0.012 C 
ATOM     29  C   UNL     1      20.703   4.677  20.462  0.00  0.00    +0.012 C 
ENDBRANCH  22  23
ENDBRANCH   8  18
ENDBRANCH   3  16
ENDBRANCH  12   3
TORSDOF 7
ENDMDL
MODEL 7
REMARK VINA RESULT:      -7.0      2.344      4.477
REMARK  Name = 11884103
REMARK  9 active torsions:
REMARK  status: ('A' for Active; 'I' for Inactive)
REMARK    1  A    between atoms: O_3  and  C_12
REMARK    2  A    between atoms: O_3  and  C_16
REMARK    3  A    between atoms: N_6  and  C_11
REMARK    4  A    between atoms: N_7  and  C_17
REMARK    5  A    between atoms: N_8  and  C_18
REMARK    6  A    between atoms: C_17  and  C_19
REMARK    7  A    between atoms: C_22  and  C_23
REMARK    8  A    between atoms: C_23  and  C_28
REMARK    9  A    between atoms: C_23  and  C_29
REMARK                            x       y       z     vdW  Elec       q    Type
REMARK                         _______ _______ _______ _____ _____    ______ ____
ROOT
ATOM      1  O   UNL     1     -15.956   6.469  22.370  0.00  0.00    -0.368 OA
ATOM      2  O   UNL     1     -13.142   5.361  21.860  0.00  0.00    -0.368 OA
ATOM      9  C   UNL     1     -13.868   5.602  23.084  0.00  0.00    +0.173 C 
ATOM     10  C   UNL     1     -14.672   6.869  22.875  0.00  0.00    +0.192 C 
ATOM     11  C   UNL     1     -14.918   4.535  23.283  0.00  0.00    +0.131 C 
ATOM     12  C   UNL     1     -13.863   7.602  21.832  0.00  0.00    +0.235 C 
ATOM     13  C   UNL     1     -16.056   5.037  22.411  0.00  0.00    +0.185 C 
ATOM     14  C   UNL     1     -13.351   6.469  20.971  0.00  0.00    +0.207 C 
ENDROOT
BRANCH  11   6
ATOM      4  O   UNL     1     -16.083   2.254  24.612  0.00  0.00    -0.253 OA
ATOM      6  N   UNL     1     -15.316   4.445  24.666  0.00  0.00    -0.292 N 
ATOM      7  N   UNL     1     -16.165   3.483  26.577  0.00  0.00    -0.295 N 
ATOM     15  C   UNL     1     -15.874   3.297  25.228  0.00  0.00    +0.300 C 
ATOM     33  H   UNL     1     -15.125   5.232  25.278  0.00  0.00    +0.151 HD
ATOM     34  H   UNL     1     -15.937   4.374  27.008  0.00  0.00    +0.151 HD
BRANCH   7  17
ATOM     17  C   UNL     1     -16.751   2.452  27.401  0.00  0.00    +0.141 C 
BRANCH  17  19
ATOM     19  C   UNL     1     -15.912   2.155  28.610  0.00  0.00    -0.030 A 
ATOM     26  C   UNL     1     -16.008   0.914  29.238  0.00  0.00    +0.005 A 
ATOM     27  C   UNL     1     -15.035   3.121  29.105  0.00  0.00    +0.005 A 
ATOM     30  C   UNL     1     -15.230   0.637  30.361  0.00  0.00    +0.000 A 
ATOM     31  C   UNL     1     -14.257   2.844  30.229  0.00  0.00    +0.000 A 
ATOM     32  C   UNL     1     -14.353   1.603  30.857  0.00  0.00    +0.000 A 
ENDBRANCH  17  19
ENDBRANCH   7  17
ENDBRANCH  11   6
BRANCH  12   3
ATOM      3  O   UNL     1     -14.615   8.535  21.090  0.00  0.00    -0.442 OA
BRANCH   3  16
ATOM      5  O   UNL     1     -14.427   8.898  18.840  0.00  0.00    -0.226 OA
ATOM      8  N   UNL     1     -12.911   9.822  20.365  0.00  0.00    -0.251 N 
ATOM     16  C   UNL     1     -14.009   9.079  19.976  0.00  0.00    +0.405 C 
ATOM     35  H   UNL     1     -12.721   9.855  21.363  0.00  0.00    +0.158 HD
BRANCH   8  18
ATOM     18  C   UNL     1     -12.013  10.544  19.545  0.00  0.00    +0.036 A 
ATOM     20  C   UNL     1     -10.980   9.877  18.888  0.00  0.00    +0.024 A 
ATOM     21  C   UNL     1     -12.162  11.922  19.393  0.00  0.00    +0.024 A 
ATOM     22  C   UNL     1     -10.243  11.967  17.926  0.00  0.00    -0.045 A 
ATOM     24  C   UNL     1     -10.095  10.589  18.077  0.00  0.00    +0.006 A 
ATOM     25  C   UNL     1     -11.277  12.634  18.584  0.00  0.00    +0.006 A 
BRANCH  22  23
ATOM     23  C   UNL     1      -9.298  12.728  17.060  0.00  0.00    +0.013 C 
ATOM     28  C   UNL     1      -9.192  14.211  17.463  0.00  0.00    +0.012 C 
ATOM     29  C   UNL     1      -9.651  12.619  15.563  0.00  0.00    +0.012 C 
ENDBRANCH  22  23
ENDBRANCH   8  18
ENDBRANCH   3  16
ENDBRANCH  12   3
TORSDOF 7
ENDMDL
MODEL 8
REMARK VINA RESULT:      -7.0     24.861     29.835
REMARK  Name = 11884103
REMARK  9 active torsions:
REMARK  status: ('A' for Active; 'I' for Inactive)
REMARK    1  A    between atoms: O_3  and  C_12
REMARK    2  A    between atoms: O_3  and  C_16
REMARK    3  A    between atoms: N_6  and  C_11
REMARK    4  A    between atoms: N_7  and  C_17
REMARK    5  A    between atoms: N_8  and  C_18
REMARK    6  A    between atoms: C_17  and  C_19
REMARK    7  A    between atoms: C_22  and  C_23
REMARK    8  A    between atoms: C_23  and  C_28
REMARK    9  A    between atoms: C_23  and  C_29
REMARK                            x       y       z     vdW  Elec       q    Type
REMARK                         _______ _______ _______ _____ _____    ______ ____
ROOT
ATOM      1  O   UNL     1       4.668  11.367   3.605  0.00  0.00    -0.368 OA
ATOM      2  O   UNL     1       5.391  11.201   0.628  0.00  0.00    -0.368 OA
ATOM      9  C   UNL     1       4.483  10.424   1.438  0.00  0.00    +0.173 C 
ATOM     10  C   UNL     1       5.129  10.270   2.799  0.00  0.00    +0.192 C 
ATOM     11  C   UNL     1       3.229  11.217   1.719  0.00  0.00    +0.131 C 
ATOM     12  C   UNL     1       6.600  10.389   2.479  0.00  0.00    +0.235 C 
ATOM     13  C   UNL     1       3.655  12.089   2.888  0.00  0.00    +0.185 C 
ATOM     14  C   UNL     1       6.602  11.417   1.369  0.00  0.00    +0.207 C 
ENDROOT
BRANCH  11   6
ATOM      4  O   UNL     1       0.417  11.866   1.684  0.00  0.00    -0.253 OA
ATOM      6  N   UNL     1       2.132  10.353   2.081  0.00  0.00    -0.292 N 
ATOM      7  N   UNL     1      -0.053   9.723   2.435  0.00  0.00    -0.295 N 
ATOM     15  C   UNL     1       0.797  10.751   2.035  0.00  0.00    +0.300 C 
ATOM     33  H   UNL     1       2.336   9.387   2.322  0.00  0.00    +0.151 HD
ATOM     34  H   UNL     1       0.351   8.826   2.687  0.00  0.00    +0.151 HD
BRANCH   7  17
ATOM     17  C   UNL     1      -1.488   9.867   2.481  0.00  0.00    +0.141 C 
BRANCH  17  19
ATOM     19  C   UNL     1      -2.048   9.481   3.820  0.00  0.00    -0.030 A 
ATOM     26  C   UNL     1      -1.213   9.421   4.935  0.00  0.00    +0.005 A 
ATOM     27  C   UNL     1      -3.406   9.183   3.948  0.00  0.00    +0.005 A 
ATOM     30  C   UNL     1      -1.733   9.062   6.178  0.00  0.00    +0.000 A 
ATOM     31  C   UNL     1      -3.926   8.824   5.191  0.00  0.00    +0.000 A 
ATOM     32  C   UNL     1      -3.090   8.764   6.307  0.00  0.00    +0.000 A 
ENDBRANCH  17  19
ENDBRANCH   7  17
ENDBRANCH  11   6
BRANCH  12   3
ATOM      3  O   UNL     1       7.385  10.793   3.578  0.00  0.00    -0.442 OA
BRANCH   3  16
ATOM      5  O   UNL     1       9.394   9.704   3.642  0.00  0.00    -0.226 OA
ATOM      8  N   UNL     1       7.669   9.193   5.140  0.00  0.00    -0.251 N 
ATOM     16  C   UNL     1       8.266   9.864   4.090  0.00  0.00    +0.405 C 
ATOM     35  H   UNL     1       6.717   9.467   5.367  0.00  0.00    +0.158 HD
BRANCH   8  18
ATOM     18  C   UNL     1       8.218   8.164   5.940  0.00  0.00    +0.036 A 
ATOM     20  C   UNL     1       8.270   6.857   5.456  0.00  0.00    +0.024 A 
ATOM     21  C   UNL     1       8.709   8.458   7.212  0.00  0.00    +0.024 A 
ATOM     22  C   UNL     1       9.303   6.136   7.518  0.00  0.00    -0.045 A 
ATOM     24  C   UNL     1       8.813   5.842   6.245  0.00  0.00    +0.006 A 
ATOM     25  C   UNL     1       9.251   7.443   8.001  0.00  0.00    +0.006 A 
BRANCH  22  23
ATOM     23  C   UNL     1       9.884   5.052   8.361  0.00  0.00    +0.013 C 
ATOM     28  C   UNL     1       9.846   3.679   7.665  0.00  0.00    +0.012 C 
ATOM     29  C   UNL     1       9.209   4.955   9.744  0.00  0.00    +0.012 C 
ENDBRANCH  22  23
ENDBRANCH   8  18
ENDBRANCH   3  16
ENDBRANCH  12   3
TORSDOF 7
ENDMDL
MODEL 9
REMARK VINA RESULT:      -6.9     19.507     21.755
REMARK  Name = 11884103
REMARK  9 active torsions:
REMARK  status: ('A' for Active; 'I' for Inactive)
REMARK    1  A    between atoms: O_3  and  C_12
REMARK    2  A    between atoms: O_3  and  C_16
REMARK    3  A    between atoms: N_6  and  C_11
REMARK    4  A    between atoms: N_7  and  C_17
REMARK    5  A    between atoms: N_8  and  C_18
REMARK    6  A    between atoms: C_17  and  C_19
REMARK    7  A    between atoms: C_22  and  C_23
REMARK    8  A    between atoms: C_23  and  C_28
REMARK    9  A    between atoms: C_23  and  C_29
REMARK                            x       y       z     vdW  Elec       q    Type
REMARK                         _______ _______ _______ _____ _____    ______ ____
ROOT
ATOM      1  O   UNL     1      -5.551 -11.608  10.021  0.00  0.00    -0.368 OA
ATOM      2  O   UNL     1      -3.563  -9.293   9.714  0.00  0.00    -0.368 OA
ATOM      9  C   UNL     1      -4.314  -9.765  10.853  0.00  0.00    +0.173 C 
ATOM     10  C   UNL     1      -5.666 -10.210  10.334  0.00  0.00    +0.192 C 
ATOM     11  C   UNL     1      -3.696 -11.033  11.392  0.00  0.00    +0.131 C 
ATOM     12  C   UNL     1      -5.832  -9.370   9.091  0.00  0.00    +0.235 C 
ATOM     13  C   UNL     1      -4.275 -12.091  10.468  0.00  0.00    +0.185 C 
ATOM     14  C   UNL     1      -4.417  -9.302   8.560  0.00  0.00    +0.207 C 
ENDROOT
BRANCH  11   6
ATOM      4  O   UNL     1      -2.251 -10.252  13.764  0.00  0.00    -0.253 OA
ATOM      6  N   UNL     1      -4.084 -11.263  12.762  0.00  0.00    -0.292 N 
ATOM      7  N   UNL     1      -3.928 -11.199  15.057  0.00  0.00    -0.295 N 
ATOM     15  C   UNL     1      -3.322 -10.850  13.853  0.00  0.00    +0.300 C 
ATOM     33  H   UNL     1      -4.987 -11.692  12.944  0.00  0.00    +0.151 HD
ATOM     34  H   UNL     1      -4.825 -11.673  15.032  0.00  0.00    +0.151 HD
BRANCH   7  17
ATOM     17  C   UNL     1      -3.349 -10.890  16.343  0.00  0.00    +0.141 C 
BRANCH  17  19
ATOM     19  C   UNL     1      -4.369 -10.937  17.444  0.00  0.00    -0.030 A 
ATOM     26  C   UNL     1      -5.578 -10.256  17.304  0.00  0.00    +0.005 A 
ATOM     27  C   UNL     1      -4.109 -11.663  18.606  0.00  0.00    +0.005 A 
ATOM     30  C   UNL     1      -6.525 -10.299  18.326  0.00  0.00    +0.000 A 
ATOM     31  C   UNL     1      -5.056 -11.706  19.628  0.00  0.00    +0.000 A 
ATOM     32  C   UNL     1      -6.265 -11.025  19.489  0.00  0.00    +0.000 A 
ENDBRANCH  17  19
ENDBRANCH   7  17
ENDBRANCH  11   6
BRANCH  12   3
ATOM      3  O   UNL     1      -6.725  -9.925   8.152  0.00  0.00    -0.442 OA
BRANCH   3  16
ATOM      5  O   UNL     1      -8.782  -9.661   7.189  0.00  0.00    -0.226 OA
ATOM      8  N   UNL     1      -7.943  -8.120   8.738  0.00  0.00    -0.251 N 
ATOM     16  C   UNL     1      -7.916  -9.257   7.954  0.00  0.00    +0.405 C 
ATOM     35  H   UNL     1      -7.122  -7.950   9.313  0.00  0.00    +0.158 HD
BRANCH   8  18
ATOM     18  C   UNL     1      -8.973  -7.156   8.838  0.00  0.00    +0.036 A 
ATOM     20  C   UNL     1      -8.742  -5.844   8.423  0.00  0.00    +0.024 A 
ATOM     21  C   UNL     1     -10.218  -7.517   9.351  0.00  0.00    +0.024 A 
ATOM     22  C   UNL     1     -11.003  -5.254   9.034  0.00  0.00    -0.045 A 
ATOM     24  C   UNL     1      -9.758  -4.893   8.520  0.00  0.00    +0.006 A 
ATOM     25  C   UNL     1     -11.234  -6.565   9.449  0.00  0.00    +0.006 A 
BRANCH  22  23
ATOM     23  C   UNL     1     -12.090  -4.238   9.138  0.00  0.00    +0.013 C 
ATOM     28  C   UNL     1     -12.132  -3.559  10.520  0.00  0.00    +0.012 C 
ATOM     29  C   UNL     1     -13.476  -4.821   8.801  0.00  0.00    +0.012 C 
ENDBRANCH  22  23
ENDBRANCH   8  18
ENDBRANCH   3  16
ENDBRANCH  12   3
TORSDOF 7
ENDMDL
MODEL 10
REMARK VINA RESULT:      -6.8     29.632     32.431
REMARK  Name = 11884103
REMARK  9 active torsions:
REMARK  status: ('A' for Active; 'I' for Inactive)
REMARK    1  A    between atoms: O_3  and  C_12
REMARK    2  A    between atoms: O_3  and  C_16
REMARK    3  A    between atoms: N_6  and  C_11
REMARK    4  A    between atoms: N_7  and  C_17
REMARK    5  A    between atoms: N_8  and  C_18
REMARK    6  A    between atoms: C_17  and  C_19
REMARK    7  A    between atoms: C_22  and  C_23
REMARK    8  A    between atoms: C_23  and  C_28
REMARK    9  A    between atoms: C_23  and  C_29
REMARK                            x       y       z     vdW  Elec       q    Type
REMARK                         _______ _______ _______ _____ _____    ______ ____
ROOT
ATOM      1  O   UNL     1      12.307  11.925  12.739  0.00  0.00    -0.368 OA
ATOM      2  O   UNL     1      13.460  14.555  11.662  0.00  0.00    -0.368 OA
ATOM      9  C   UNL     1      13.634  13.188  11.234  0.00  0.00    +0.173 C 
ATOM     10  C   UNL     1      13.661  12.335  12.486  0.00  0.00    +0.192 C 
ATOM     11  C   UNL     1      12.402  12.714  10.498  0.00  0.00    +0.131 C 
ATOM     12  C   UNL     1      14.158  13.304  13.531  0.00  0.00    +0.235 C 
ATOM     13  C   UNL     1      11.476  12.326  11.639  0.00  0.00    +0.185 C 
ATOM     14  C   UNL     1      13.511  14.601  13.096  0.00  0.00    +0.207 C 
ENDROOT
BRANCH  11   6
ATOM      4  O   UNL     1      10.839  11.744   8.276  0.00  0.00    -0.253 OA
ATOM      6  N   UNL     1      12.699  11.582   9.655  0.00  0.00    -0.292 N 
ATOM      7  N   UNL     1      12.405  10.063   7.951  0.00  0.00    -0.295 N 
ATOM     15  C   UNL     1      11.884  11.182   8.598  0.00  0.00    +0.300 C 
ATOM     33  H   UNL     1      13.576  11.089   9.797  0.00  0.00    +0.151 HD
ATOM     34  H   UNL     1      13.287   9.679   8.275  0.00  0.00    +0.151 HD
BRANCH   7  17
ATOM     17  C   UNL     1      11.758   9.441   6.821  0.00  0.00    +0.141 C 
BRANCH  17  19
ATOM     19  C   UNL     1      10.932   8.256   7.229  0.00  0.00    -0.030 A 
ATOM     26  C   UNL     1       9.640   8.441   7.720  0.00  0.00    +0.005 A 
ATOM     27  C   UNL     1      11.457   6.968   7.116  0.00  0.00    +0.005 A 
ATOM     30  C   UNL     1       8.873   7.341   8.100  0.00  0.00    +0.000 A 
ATOM     31  C   UNL     1      10.690   5.867   7.496  0.00  0.00    +0.000 A 
ATOM     32  C   UNL     1       9.398   6.052   7.987  0.00  0.00    +0.000 A 
ENDBRANCH  17  19
ENDBRANCH   7  17
ENDBRANCH  11   6
BRANCH  12   3
ATOM      3  O   UNL     1      13.797  12.947  14.847  0.00  0.00    -0.442 OA
BRANCH   3  16
ATOM      5  O   UNL     1      15.729  11.788  15.240  0.00  0.00    -0.226 OA
ATOM      8  N   UNL     1      13.709  11.194  16.262  0.00  0.00    -0.251 N 
ATOM     16  C   UNL     1      14.532  11.943  15.443  0.00  0.00    +0.405 C 
ATOM     35  H   UNL     1      12.734  11.478  16.301  0.00  0.00    +0.158 HD
BRANCH   8  18
ATOM     18  C   UNL     1      14.055  10.075  17.055  0.00  0.00    +0.036 A 
ATOM     20  C   UNL     1      13.875   8.786  16.556  0.00  0.00    +0.024 A 
ATOM     21  C   UNL     1      14.576  10.263  18.335  0.00  0.00    +0.024 A 
ATOM     22  C   UNL     1      14.738   7.869  18.618  0.00  0.00    -0.045 A 
ATOM     24  C   UNL     1      14.217   7.682  17.338  0.00  0.00    +0.006 A 
ATOM     25  C   UNL     1      14.917   9.159  19.117  0.00  0.00    +0.006 A 
BRANCH  22  23
ATOM     23  C   UNL     1      15.104   6.689  19.454  0.00  0.00    +0.013 C 
ATOM     28  C   UNL     1      14.983   6.975  20.963  0.00  0.00    +0.012 C 
ATOM     29  C   UNL     1      16.515   6.157  19.135  0.00  0.00    +0.012 C 
ENDBRANCH  22  23
ENDBRANCH   8  18
ENDBRANCH   3  16
ENDBRANCH  12   3
TORSDOF 7
ENDMDL
