MODEL 1
REMARK VINA RESULT:      -6.6      0.000      0.000
REMARK  Name = 56775117
REMARK  6 active torsions:
REMARK  status: ('A' for Active; 'I' for Inactive)
REMARK    1  A    between atoms: O_3  and  C_16
REMARK    2  A    between atoms: O_3  and  C_24
REMARK    3  A    between atoms: N_4  and  C_11
REMARK    4  A    between atoms: N_5  and  C_14
REMARK    5  A    between atoms: C_11  and  C_15
REMARK    6  A    between atoms: C_14  and  C_16
REMARK                            x       y       z     vdW  Elec       q    Type
REMARK                         _______ _______ _______ _____ _____    ______ ____
ROOT
ATOM      1  O   UNL     1      11.818   7.367  17.891  0.00  0.00    -0.364 OA
ATOM      2  O   UNL     1      11.752   9.552  15.127  0.00  0.00    -0.273 OA
ATOM      4  N   UNL     1      14.506   7.755  19.758  0.00  0.00    -0.294 NA
ATOM      5  N   UNL     1      12.980   9.734  17.096  0.00  0.00    -0.291 N 
ATOM      7  C   UNL     1      13.299   9.199  18.416  0.00  0.00    +0.120 C 
ATOM      8  C   UNL     1      12.299   8.182  18.958  0.00  0.00    +0.154 C 
ATOM      9  C   UNL     1      14.607   8.414  18.456  0.00  0.00    +0.110 C 
ATOM     10  C   UNL     1      13.119   7.289  19.894  0.00  0.00    +0.118 C 
ATOM     12  C   UNL     1      11.991   9.191  16.281  0.00  0.00    +0.242 C 
ATOM     13  C   UNL     1      11.125   8.139  16.939  0.00  0.00    +0.256 C 
ENDROOT
BRANCH   4  11
ATOM     11  C   UNL     1      15.481   6.689  19.926  0.00  0.00    +0.121 C 
BRANCH  11  15
ATOM      6  N   UNL     1      18.012   8.318  22.043  0.00  0.00    -0.360 N 
ATOM     15  C   UNL     1      16.693   7.154  20.689  0.00  0.00    -0.008 A 
ATOM     17  C   UNL     1      17.992   6.575  20.651  0.00  0.00    +0.004 A 
ATOM     18  C   UNL     1      16.736   8.224  21.554  0.00  0.00    +0.088 A 
ATOM     19  C   UNL     1      18.799   7.324  21.509  0.00  0.00    +0.047 A 
ATOM     20  C   UNL     1      18.559   5.482  19.966  0.00  0.00    +0.010 A 
ATOM     21  C   UNL     1      20.153   7.034  21.717  0.00  0.00    +0.026 A 
ATOM     22  C   UNL     1      19.912   5.179  20.165  0.00  0.00    +0.001 A 
ATOM     23  C   UNL     1      20.694   5.945  21.028  0.00  0.00    +0.002 A 
ATOM     25  H   UNL     1      18.329   9.016  22.701  0.00  0.00    +0.165 HD
ENDBRANCH  11  15
ENDBRANCH   4  11
BRANCH   5  14
ATOM     14  C   UNL     1      13.816  10.822  16.604  0.00  0.00    +0.136 C 
BRANCH  14  16
ATOM     16  C   UNL     1      14.781  10.345  15.534  0.00  0.00    +0.178 C 
BRANCH  16   3
ATOM      3  O   UNL     1      14.465  10.974  14.299  0.00  0.00    -0.381 OA
ATOM     24  C   UNL     1      13.980  12.295  14.496  0.00  0.00    +0.194 C 
ENDBRANCH  16   3
ENDBRANCH  14  16
ENDBRANCH   5  14
TORSDOF 5
ENDMDL
MODEL 2
REMARK VINA RESULT:      -6.3     27.198     28.741
REMARK  Name = 56775117
REMARK  6 active torsions:
REMARK  status: ('A' for Active; 'I' for Inactive)
REMARK    1  A    between atoms: O_3  and  C_16
REMARK    2  A    between atoms: O_3  and  C_24
REMARK    3  A    between atoms: N_4  and  C_11
REMARK    4  A    between atoms: N_5  and  C_14
REMARK    5  A    between atoms: C_11  and  C_15
REMARK    6  A    between atoms: C_14  and  C_16
REMARK                            x       y       z     vdW  Elec       q    Type
REMARK                         _______ _______ _______ _____ _____    ______ ____
ROOT
ATOM      1  O   UNL     1      -4.879 -11.663  18.557  0.00  0.00    -0.364 OA
ATOM      2  O   UNL     1      -8.092 -11.419  19.984  0.00  0.00    -0.273 OA
ATOM      4  N   UNL     1      -4.853 -10.930  15.345  0.00  0.00    -0.294 NA
ATOM      5  N   UNL     1      -7.299 -10.465  18.015  0.00  0.00    -0.291 N 
ATOM      7  C   UNL     1      -6.179 -10.238  17.107  0.00  0.00    +0.120 C 
ATOM      8  C   UNL     1      -4.802 -10.529  17.696  0.00  0.00    +0.154 C 
ATOM      9  C   UNL     1      -6.198 -11.142  15.877  0.00  0.00    +0.110 C 
ATOM     10  C   UNL     1      -3.936 -10.915  16.492  0.00  0.00    +0.118 C 
ATOM     12  C   UNL     1      -7.161 -11.126  19.232  0.00  0.00    +0.242 C 
ATOM     13  C   UNL     1      -5.734 -11.411  19.647  0.00  0.00    +0.256 C 
ENDROOT
BRANCH   4  11
ATOM     11  C   UNL     1      -4.485 -11.913  14.339  0.00  0.00    +0.121 C 
BRANCH  11  15
ATOM      6  N   UNL     1      -1.800 -10.822  12.072  0.00  0.00    -0.360 N 
ATOM     15  C   UNL     1      -3.595 -11.322  13.277  0.00  0.00    -0.008 A 
ATOM     17  C   UNL     1      -3.995 -10.458  12.221  0.00  0.00    +0.004 A 
ATOM     18  C   UNL     1      -2.240 -11.529  13.159  0.00  0.00    +0.088 A 
ATOM     19  C   UNL     1      -2.851 -10.159  11.480  0.00  0.00    +0.047 A 
ATOM     20  C   UNL     1      -5.226  -9.898  11.824  0.00  0.00    +0.010 A 
ATOM     21  C   UNL     1      -2.874  -9.324  10.356  0.00  0.00    +0.026 A 
ATOM     22  C   UNL     1      -5.265  -9.061  10.701  0.00  0.00    +0.001 A 
ATOM     23  C   UNL     1      -4.106  -8.781   9.981  0.00  0.00    +0.002 A 
ATOM     25  H   UNL     1      -0.842 -10.793  11.750  0.00  0.00    +0.165 HD
ENDBRANCH  11  15
ENDBRANCH   4  11
BRANCH   5  14
ATOM     14  C   UNL     1      -8.618 -10.052  17.554  0.00  0.00    +0.136 C 
BRANCH  14  16
ATOM     16  C   UNL     1      -8.606  -8.629  17.027  0.00  0.00    +0.178 C 
BRANCH  16   3
ATOM      3  O   UNL     1      -9.781  -7.955  17.458  0.00  0.00    -0.381 OA
ATOM     24  C   UNL     1     -10.393  -7.241  16.393  0.00  0.00    +0.194 C 
ENDBRANCH  16   3
ENDBRANCH  14  16
ENDBRANCH   5  14
TORSDOF 5
ENDMDL
MODEL 3
REMARK VINA RESULT:      -6.3      2.803      4.109
REMARK  Name = 56775117
REMARK  6 active torsions:
REMARK  status: ('A' for Active; 'I' for Inactive)
REMARK    1  A    between atoms: O_3  and  C_16
REMARK    2  A    between atoms: O_3  and  C_24
REMARK    3  A    between atoms: N_4  and  C_11
REMARK    4  A    between atoms: N_5  and  C_14
REMARK    5  A    between atoms: C_11  and  C_15
REMARK    6  A    between atoms: C_14  and  C_16
REMARK                            x       y       z     vdW  Elec       q    Type
REMARK                         _______ _______ _______ _____ _____    ______ ____
ROOT
ATOM      1  O   UNL     1      13.839   7.551  18.417  0.00  0.00    -0.364 OA
ATOM      2  O   UNL     1      10.681   8.568  19.602  0.00  0.00    -0.273 OA
ATOM      4  N   UNL     1      16.178   7.701  20.734  0.00  0.00    -0.294 NA
ATOM      5  N   UNL     1      12.531   7.858  20.822  0.00  0.00    -0.291 N 
ATOM      7  C   UNL     1      13.897   7.341  20.821  0.00  0.00    +0.120 C 
ATOM      8  C   UNL     1      14.369   6.771  19.487  0.00  0.00    +0.154 C 
ATOM      9  C   UNL     1      14.952   8.406  21.105  0.00  0.00    +0.110 C 
ATOM     10  C   UNL     1      15.889   6.963  19.496  0.00  0.00    +0.118 C 
ATOM     12  C   UNL     1      11.797   8.050  19.655  0.00  0.00    +0.242 C 
ATOM     13  C   UNL     1      12.433   7.493  18.399  0.00  0.00    +0.256 C 
ENDROOT
BRANCH   4  11
ATOM     11  C   UNL     1      17.322   8.590  20.609  0.00  0.00    +0.121 C 
BRANCH  11  15
ATOM      6  N   UNL     1      20.052   8.021  23.010  0.00  0.00    -0.360 N 
ATOM     15  C   UNL     1      18.489   8.120  21.437  0.00  0.00    -0.008 A 
ATOM     17  C   UNL     1      19.259   6.942  21.226  0.00  0.00    +0.004 A 
ATOM     18  C   UNL     1      19.000   8.762  22.542  0.00  0.00    +0.088 A 
ATOM     19  C   UNL     1      20.232   6.904  22.225  0.00  0.00    +0.047 A 
ATOM     20  C   UNL     1      19.220   5.902  20.275  0.00  0.00    +0.010 A 
ATOM     21  C   UNL     1      21.174   5.873  22.324  0.00  0.00    +0.026 A 
ATOM     22  C   UNL     1      20.156   4.864  20.361  0.00  0.00    +0.001 A 
ATOM     23  C   UNL     1      21.117   4.853  21.371  0.00  0.00    +0.002 A 
ATOM     25  H   UNL     1      20.614   8.259  23.815  0.00  0.00    +0.165 HD
ENDBRANCH  11  15
ENDBRANCH   4  11
BRANCH   5  14
ATOM     14  C   UNL     1      11.980   8.267  22.107  0.00  0.00    +0.136 C 
BRANCH  14  16
ATOM     16  C   UNL     1      12.080   9.768  22.304  0.00  0.00    +0.178 C 
BRANCH  16   3
ATOM      3  O   UNL     1      10.804  10.284  22.660  0.00  0.00    -0.381 OA
ATOM     24  C   UNL     1      10.877  11.101  23.820  0.00  0.00    +0.194 C 
ENDBRANCH  16   3
ENDBRANCH  14  16
ENDBRANCH   5  14
TORSDOF 5
ENDMDL
MODEL 4
REMARK VINA RESULT:      -6.1     26.469     28.772
REMARK  Name = 56775117
REMARK  6 active torsions:
REMARK  status: ('A' for Active; 'I' for Inactive)
REMARK    1  A    between atoms: O_3  and  C_16
REMARK    2  A    between atoms: O_3  and  C_24
REMARK    3  A    between atoms: N_4  and  C_11
REMARK    4  A    between atoms: N_5  and  C_14
REMARK    5  A    between atoms: C_11  and  C_15
REMARK    6  A    between atoms: C_14  and  C_16
REMARK                            x       y       z     vdW  Elec       q    Type
REMARK                         _______ _______ _______ _____ _____    ______ ____
ROOT
ATOM      1  O   UNL     1      -7.471 -11.435  19.248  0.00  0.00    -0.364 OA
ATOM      2  O   UNL     1     -10.738 -10.691  18.160  0.00  0.00    -0.273 OA
ATOM      4  N   UNL     1      -5.176 -10.651  17.018  0.00  0.00    -0.294 NA
ATOM      5  N   UNL     1      -8.717  -9.841  17.380  0.00  0.00    -0.291 N 
ATOM      7  C   UNL     1      -7.263  -9.785  17.500  0.00  0.00    +0.120 C 
ATOM      8  C   UNL     1      -6.704 -10.313  18.818  0.00  0.00    +0.154 C 
ATOM      9  C   UNL     1      -6.533 -10.648  16.475  0.00  0.00    +0.110 C 
ATOM     10  C   UNL     1      -5.297 -10.812  18.473  0.00  0.00    +0.118 C 
ATOM     12  C   UNL     1      -9.521 -10.541  18.276  0.00  0.00    +0.242 C 
ATOM     13  C   UNL     1      -8.806 -11.067  19.501  0.00  0.00    +0.256 C 
ENDROOT
BRANCH   4  11
ATOM     11  C   UNL     1      -4.328 -11.661  16.406  0.00  0.00    +0.121 C 
BRANCH  11  15
ATOM      6  N   UNL     1      -1.495  -9.986  14.760  0.00  0.00    -0.360 N 
ATOM     15  C   UNL     1      -3.301 -11.050  15.488  0.00  0.00    -0.008 A 
ATOM     17  C   UNL     1      -3.328 -11.050  14.066  0.00  0.00    +0.004 A 
ATOM     18  C   UNL     1      -2.161 -10.390  15.886  0.00  0.00    +0.088 A 
ATOM     19  C   UNL     1      -2.185 -10.377  13.634  0.00  0.00    +0.047 A 
ATOM     20  C   UNL     1      -4.221 -11.560  13.102  0.00  0.00    +0.010 A 
ATOM     21  C   UNL     1      -1.886 -10.185  12.280  0.00  0.00    +0.026 A 
ATOM     22  C   UNL     1      -3.935 -11.377  11.743  0.00  0.00    +0.001 A 
ATOM     23  C   UNL     1      -2.785 -10.700  11.342  0.00  0.00    +0.002 A 
ATOM     25  H   UNL     1      -0.622  -9.476  14.755  0.00  0.00    +0.165 HD
ENDBRANCH  11  15
ENDBRANCH   4  11
BRANCH   5  14
ATOM     14  C   UNL     1      -9.309  -9.206  16.210  0.00  0.00    +0.136 C 
BRANCH  14  16
ATOM     16  C   UNL     1      -9.554  -7.726  16.442  0.00  0.00    +0.178 C 
BRANCH  16   3
ATOM      3  O   UNL     1     -10.939  -7.508  16.676  0.00  0.00    -0.381 OA
ATOM     24  C   UNL     1     -11.358  -6.243  16.183  0.00  0.00    +0.194 C 
ENDBRANCH  16   3
ENDBRANCH  14  16
ENDBRANCH   5  14
TORSDOF 5
ENDMDL
MODEL 5
REMARK VINA RESULT:      -5.8      5.994      7.848
REMARK  Name = 56775117
REMARK  6 active torsions:
REMARK  status: ('A' for Active; 'I' for Inactive)
REMARK    1  A    between atoms: O_3  and  C_16
REMARK    2  A    between atoms: O_3  and  C_24
REMARK    3  A    between atoms: N_4  and  C_11
REMARK    4  A    between atoms: N_5  and  C_14
REMARK    5  A    between atoms: C_11  and  C_15
REMARK    6  A    between atoms: C_14  and  C_16
REMARK                            x       y       z     vdW  Elec       q    Type
REMARK                         _______ _______ _______ _____ _____    ______ ____
ROOT
ATOM      1  O   UNL     1      10.396  12.676  24.220  0.00  0.00    -0.364 OA
ATOM      2  O   UNL     1      12.256  15.153  25.899  0.00  0.00    -0.273 OA
ATOM      4  N   UNL     1      12.285  10.249  23.036  0.00  0.00    -0.294 NA
ATOM      5  N   UNL     1      12.863  12.960  25.411  0.00  0.00    -0.291 N 
ATOM      7  C   UNL     1      12.494  11.663  24.851  0.00  0.00    +0.120 C 
ATOM      8  C   UNL     1      10.997  11.454  24.643  0.00  0.00    +0.154 C 
ATOM      9  C   UNL     1      13.048  11.425  23.449  0.00  0.00    +0.110 C 
ATOM     10  C   UNL     1      10.900  10.459  23.481  0.00  0.00    +0.118 C 
ATOM     12  C   UNL     1      11.965  14.018  25.519  0.00  0.00    +0.242 C 
ATOM     13  C   UNL     1      10.525  13.670  25.209  0.00  0.00    +0.256 C 
ENDROOT
BRANCH   4  11
ATOM     11  C   UNL     1      12.386   9.986  21.609  0.00  0.00    +0.121 C 
BRANCH  11  15
ATOM      6  N   UNL     1      13.239   6.459  21.000  0.00  0.00    -0.360 N 
ATOM     15  C   UNL     1      13.003   8.641  21.330  0.00  0.00    -0.008 A 
ATOM     17  C   UNL     1      14.377   8.376  21.072  0.00  0.00    +0.004 A 
ATOM     18  C   UNL     1      12.328   7.443  21.278  0.00  0.00    +0.088 A 
ATOM     19  C   UNL     1      14.498   7.000  20.869  0.00  0.00    +0.047 A 
ATOM     20  C   UNL     1      15.533   9.178  20.994  0.00  0.00    +0.010 A 
ATOM     21  C   UNL     1      15.722   6.382  20.590  0.00  0.00    +0.026 A 
ATOM     22  C   UNL     1      16.765   8.574  20.714  0.00  0.00    +0.001 A 
ATOM     23  C   UNL     1      16.855   7.197  20.516  0.00  0.00    +0.002 A 
ATOM     25  H   UNL     1      13.019   5.477  20.904  0.00  0.00    +0.165 HD
ENDBRANCH  11  15
ENDBRANCH   4  11
BRANCH   5  14
ATOM     14  C   UNL     1      14.261  13.149  25.776  0.00  0.00    +0.136 C 
BRANCH  14  16
ATOM     16  C   UNL     1      14.518  12.768  27.222  0.00  0.00    +0.178 C 
BRANCH  16   3
ATOM      3  O   UNL     1      14.828  11.383  27.297  0.00  0.00    -0.381 OA
ATOM     24  C   UNL     1      16.082  11.163  27.929  0.00  0.00    +0.194 C 
ENDBRANCH  16   3
ENDBRANCH  14  16
ENDBRANCH   5  14
TORSDOF 5
ENDMDL
MODEL 6
REMARK VINA RESULT:      -5.7     26.601     28.547
REMARK  Name = 56775117
REMARK  6 active torsions:
REMARK  status: ('A' for Active; 'I' for Inactive)
REMARK    1  A    between atoms: O_3  and  C_16
REMARK    2  A    between atoms: O_3  and  C_24
REMARK    3  A    between atoms: N_4  and  C_11
REMARK    4  A    between atoms: N_5  and  C_14
REMARK    5  A    between atoms: C_11  and  C_15
REMARK    6  A    between atoms: C_14  and  C_16
REMARK                            x       y       z     vdW  Elec       q    Type
REMARK                         _______ _______ _______ _____ _____    ______ ____
ROOT
ATOM      1  O   UNL     1      -1.842 -10.370  13.331  0.00  0.00    -0.364 OA
ATOM      2  O   UNL     1      -3.314  -9.477  10.256  0.00  0.00    -0.273 OA
ATOM      4  N   UNL     1      -4.071 -11.061  15.657  0.00  0.00    -0.294 NA
ATOM      5  N   UNL     1      -4.256 -10.646  12.035  0.00  0.00    -0.291 N 
ATOM      7  C   UNL     1      -4.089 -11.249  13.354  0.00  0.00    +0.120 C 
ATOM      8  C   UNL     1      -2.642 -11.457  13.788  0.00  0.00    +0.154 C 
ATOM      9  C   UNL     1      -4.643 -10.393  14.489  0.00  0.00    +0.110 C 
ATOM     10  C   UNL     1      -2.681 -11.397  15.319  0.00  0.00    +0.118 C 
ATOM     12  C   UNL     1      -3.201 -10.076  11.327  0.00  0.00    +0.242 C 
ATOM     13  C   UNL     1      -1.830 -10.308  11.924  0.00  0.00    +0.256 C 
ENDROOT
BRANCH   4  11
ATOM     11  C   UNL     1      -4.181 -10.267  16.870  0.00  0.00    +0.121 C 
BRANCH  11  15
ATOM      6  N   UNL     1      -6.415 -11.861  19.321  0.00  0.00    -0.360 N 
ATOM     15  C   UNL     1      -5.298 -10.751  17.757  0.00  0.00    -0.008 A 
ATOM     17  C   UNL     1      -6.653 -10.318  17.728  0.00  0.00    +0.004 A 
ATOM     18  C   UNL     1      -5.183 -11.699  18.748  0.00  0.00    +0.088 A 
ATOM     19  C   UNL     1      -7.332 -11.029  18.718  0.00  0.00    +0.047 A 
ATOM     20  C   UNL     1      -7.368  -9.386  16.949  0.00  0.00    +0.010 A 
ATOM     21  C   UNL     1      -8.698 -10.855  18.972  0.00  0.00    +0.026 A 
ATOM     22  C   UNL     1      -8.735  -9.201  17.192  0.00  0.00    +0.001 A 
ATOM     23  C   UNL     1      -9.387  -9.926  18.188  0.00  0.00    +0.002 A 
ATOM     25  H   UNL     1      -6.623 -12.497  20.079  0.00  0.00    +0.165 HD
ENDBRANCH  11  15
ENDBRANCH   4  11
BRANCH   5  14
ATOM     14  C   UNL     1      -5.613 -10.571  11.509  0.00  0.00    +0.136 C 
BRANCH  14  16
ATOM     16  C   UNL     1      -6.198  -9.180  11.671  0.00  0.00    +0.178 C 
BRANCH  16   3
ATOM      3  O   UNL     1      -6.561  -8.668  10.395  0.00  0.00    -0.381 OA
ATOM     24  C   UNL     1      -6.830  -9.714   9.472  0.00  0.00    +0.194 C 
ENDBRANCH  16   3
ENDBRANCH  14  16
ENDBRANCH   5  14
TORSDOF 5
ENDMDL
MODEL 7
REMARK VINA RESULT:      -5.7      2.306      3.940
REMARK  Name = 56775117
REMARK  6 active torsions:
REMARK  status: ('A' for Active; 'I' for Inactive)
REMARK    1  A    between atoms: O_3  and  C_16
REMARK    2  A    between atoms: O_3  and  C_24
REMARK    3  A    between atoms: N_4  and  C_11
REMARK    4  A    between atoms: N_5  and  C_14
REMARK    5  A    between atoms: C_11  and  C_15
REMARK    6  A    between atoms: C_14  and  C_16
REMARK                            x       y       z     vdW  Elec       q    Type
REMARK                         _______ _______ _______ _____ _____    ______ ____
ROOT
ATOM      1  O   UNL     1      15.147  10.282  21.480  0.00  0.00    -0.364 OA
ATOM      2  O   UNL     1      11.821   9.462  20.656  0.00  0.00    -0.273 OA
ATOM      4  N   UNL     1      17.279   7.894  20.698  0.00  0.00    -0.294 NA
ATOM      5  N   UNL     1      13.792   8.543  19.829  0.00  0.00    -0.291 N 
ATOM      7  C   UNL     1      15.252   8.551  19.802  0.00  0.00    +0.120 C 
ATOM      8  C   UNL     1      15.900   9.812  20.364  0.00  0.00    +0.154 C 
ATOM      9  C   UNL     1      15.883   7.458  20.660  0.00  0.00    +0.110 C 
ATOM     10  C   UNL     1      17.266   9.351  20.883  0.00  0.00    +0.118 C 
ATOM     12  C   UNL     1      13.046   9.486  20.531  0.00  0.00    +0.242 C 
ATOM     13  C   UNL     1      13.843  10.643  21.092  0.00  0.00    +0.256 C 
ENDROOT
BRANCH   4  11
ATOM     11  C   UNL     1      18.057   7.201  21.712  0.00  0.00    +0.121 C 
BRANCH  11  15
ATOM      6  N   UNL     1      20.024   4.806  19.729  0.00  0.00    -0.360 N 
ATOM     15  C   UNL     1      19.063   6.262  21.101  0.00  0.00    -0.008 A 
ATOM     17  C   UNL     1      20.361   5.966  21.604  0.00  0.00    +0.004 A 
ATOM     18  C   UNL     1      18.885   5.534  19.947  0.00  0.00    +0.088 A 
ATOM     19  C   UNL     1      20.942   5.051  20.725  0.00  0.00    +0.047 A 
ATOM     20  C   UNL     1      21.099   6.391  22.727  0.00  0.00    +0.010 A 
ATOM     21  C   UNL     1      22.230   4.536  20.912  0.00  0.00    +0.026 A 
ATOM     22  C   UNL     1      22.389   5.885  22.928  0.00  0.00    +0.001 A 
ATOM     23  C   UNL     1      22.943   4.972  22.033  0.00  0.00    +0.002 A 
ATOM     25  H   UNL     1      20.170   4.180  18.949  0.00  0.00    +0.165 HD
ENDBRANCH  11  15
ENDBRANCH   4  11
BRANCH   5  14
ATOM     14  C   UNL     1      13.124   7.432  19.162  0.00  0.00    +0.136 C 
BRANCH  14  16
ATOM     16  C   UNL     1      12.616   7.831  17.789  0.00  0.00    +0.178 C 
BRANCH  16   3
ATOM      3  O   UNL     1      13.575   7.466  16.806  0.00  0.00    -0.381 OA
ATOM     24  C   UNL     1      14.047   8.600  16.092  0.00  0.00    +0.194 C 
ENDBRANCH  16   3
ENDBRANCH  14  16
ENDBRANCH   5  14
TORSDOF 5
ENDMDL
MODEL 8
REMARK VINA RESULT:      -5.7     13.067     16.683
REMARK  Name = 56775117
REMARK  6 active torsions:
REMARK  status: ('A' for Active; 'I' for Inactive)
REMARK    1  A    between atoms: O_3  and  C_16
REMARK    2  A    between atoms: O_3  and  C_24
REMARK    3  A    between atoms: N_4  and  C_11
REMARK    4  A    between atoms: N_5  and  C_14
REMARK    5  A    between atoms: C_11  and  C_15
REMARK    6  A    between atoms: C_14  and  C_16
REMARK                            x       y       z     vdW  Elec       q    Type
REMARK                         _______ _______ _______ _____ _____    ______ ____
ROOT
ATOM      1  O   UNL     1       8.866   9.485   4.997  0.00  0.00    -0.364 OA
ATOM      2  O   UNL     1      10.470   9.161   8.118  0.00  0.00    -0.273 OA
ATOM      4  N   UNL     1       9.529   6.983   2.958  0.00  0.00    -0.294 NA
ATOM      5  N   UNL     1      10.019   7.513   6.537  0.00  0.00    -0.291 N 
ATOM      7  C   UNL     1       9.412   7.149   5.260  0.00  0.00    +0.120 C 
ATOM      8  C   UNL     1       8.416   8.164   4.707  0.00  0.00    +0.154 C 
ATOM      9  C   UNL     1      10.418   7.033   4.118  0.00  0.00    +0.110 C 
ATOM     10  C   UNL     1       8.470   7.975   3.187  0.00  0.00    +0.118 C 
ATOM     12  C   UNL     1       9.900   8.784   7.092  0.00  0.00    +0.242 C 
ATOM     13  C   UNL     1       8.927   9.703   6.387  0.00  0.00    +0.256 C 
ENDROOT
BRANCH   4  11
ATOM     11  C   UNL     1      10.233   7.187   1.702  0.00  0.00    +0.121 C 
BRANCH  11  15
ATOM      6  N   UNL     1      10.654   3.977  -0.048  0.00  0.00    -0.360 N 
ATOM     15  C   UNL     1      10.673   5.883   1.089  0.00  0.00    -0.008 A 
ATOM     17  C   UNL     1      11.960   5.286   1.199  0.00  0.00    +0.004 A 
ATOM     18  C   UNL     1       9.892   5.056   0.315  0.00  0.00    +0.088 A 
ATOM     19  C   UNL     1      11.921   4.092   0.478  0.00  0.00    +0.047 A 
ATOM     20  C   UNL     1      13.157   5.649   1.848  0.00  0.00    +0.010 A 
ATOM     21  C   UNL     1      13.024   3.237   0.371  0.00  0.00    +0.026 A 
ATOM     22  C   UNL     1      14.270   4.804   1.750  0.00  0.00    +0.001 A 
ATOM     23  C   UNL     1      14.201   3.618   1.022  0.00  0.00    +0.002 A 
ATOM     25  H   UNL     1      10.333   3.208  -0.620  0.00  0.00    +0.165 HD
ENDBRANCH  11  15
ENDBRANCH   4  11
BRANCH   5  14
ATOM     14  C   UNL     1      10.854   6.509   7.182  0.00  0.00    +0.136 C 
BRANCH  14  16
ATOM     16  C   UNL     1      10.032   5.336   7.683  0.00  0.00    +0.178 C 
BRANCH  16   3
ATOM      3  O   UNL     1      10.402   5.037   9.023  0.00  0.00    -0.381 OA
ATOM     24  C   UNL     1       9.276   4.664   9.804  0.00  0.00    +0.194 C 
ENDBRANCH  16   3
ENDBRANCH  14  16
ENDBRANCH   5  14
TORSDOF 5
ENDMDL
MODEL 9
REMARK VINA RESULT:      -5.7     27.179     29.162
REMARK  Name = 56775117
REMARK  6 active torsions:
REMARK  status: ('A' for Active; 'I' for Inactive)
REMARK    1  A    between atoms: O_3  and  C_16
REMARK    2  A    between atoms: O_3  and  C_24
REMARK    3  A    between atoms: N_4  and  C_11
REMARK    4  A    between atoms: N_5  and  C_14
REMARK    5  A    between atoms: C_11  and  C_15
REMARK    6  A    between atoms: C_14  and  C_16
REMARK                            x       y       z     vdW  Elec       q    Type
REMARK                         _______ _______ _______ _____ _____    ______ ____
ROOT
ATOM      1  O   UNL     1      -2.428 -12.138  14.960  0.00  0.00    -0.364 OA
ATOM      2  O   UNL     1      -1.656 -10.627  11.872  0.00  0.00    -0.273 OA
ATOM      4  N   UNL     1      -5.357 -11.199  16.141  0.00  0.00    -0.294 NA
ATOM      5  N   UNL     1      -3.736 -10.885  12.885  0.00  0.00    -0.291 N 
ATOM      7  C   UNL     1      -4.519 -11.414  13.998  0.00  0.00    +0.120 C 
ATOM      8  C   UNL     1      -3.810 -12.468  14.842  0.00  0.00    +0.154 C 
ATOM      9  C   UNL     1      -4.882 -10.361  15.041  0.00  0.00    +0.110 C 
ATOM     10  C   UNL     1      -4.440 -12.344  16.233  0.00  0.00    +0.118 C 
ATOM     12  C   UNL     1      -2.372 -11.127  12.741  0.00  0.00    +0.242 C 
ATOM     13  C   UNL     1      -1.798 -12.146  13.701  0.00  0.00    +0.256 C 
ENDROOT
BRANCH   4  11
ATOM     11  C   UNL     1      -5.479 -10.470  17.393  0.00  0.00    +0.121 C 
BRANCH  11  15
ATOM      6  N   UNL     1      -8.965  -9.506  18.066  0.00  0.00    -0.360 N 
ATOM     15  C   UNL     1      -6.916 -10.321  17.817  0.00  0.00    -0.008 A 
ATOM     17  C   UNL     1      -7.662 -11.230  18.617  0.00  0.00    +0.004 A 
ATOM     18  C   UNL     1      -7.744  -9.271  17.493  0.00  0.00    +0.088 A 
ATOM     19  C   UNL     1      -8.943 -10.695  18.759  0.00  0.00    +0.047 A 
ATOM     20  C   UNL     1      -7.368 -12.461  19.238  0.00  0.00    +0.010 A 
ATOM     21  C   UNL     1      -9.952 -11.332  19.493  0.00  0.00    +0.026 A 
ATOM     22  C   UNL     1      -8.366 -13.109  19.976  0.00  0.00    +0.001 A 
ATOM     23  C   UNL     1      -9.637 -12.551  20.099  0.00  0.00    +0.002 A 
ATOM     25  H   UNL     1      -9.767  -8.895  17.991  0.00  0.00    +0.165 HD
ENDBRANCH  11  15
ENDBRANCH   4  11
BRANCH   5  14
ATOM     14  C   UNL     1      -4.421  -9.994  11.958  0.00  0.00    +0.136 C 
BRANCH  14  16
ATOM     16  C   UNL     1      -4.939 -10.743  10.744  0.00  0.00    +0.178 C 
BRANCH  16   3
ATOM      3  O   UNL     1      -4.087 -10.491   9.634  0.00  0.00    -0.381 OA
ATOM     24  C   UNL     1      -4.002  -9.102   9.348  0.00  0.00    +0.194 C 
ENDBRANCH  16   3
ENDBRANCH  14  16
ENDBRANCH   5  14
TORSDOF 5
ENDMDL
MODEL 10
REMARK VINA RESULT:      -5.7      4.519      8.937
REMARK  Name = 56775117
REMARK  6 active torsions:
REMARK  status: ('A' for Active; 'I' for Inactive)
REMARK    1  A    between atoms: O_3  and  C_16
REMARK    2  A    between atoms: O_3  and  C_24
REMARK    3  A    between atoms: N_4  and  C_11
REMARK    4  A    between atoms: N_5  and  C_14
REMARK    5  A    between atoms: C_11  and  C_15
REMARK    6  A    between atoms: C_14  and  C_16
REMARK                            x       y       z     vdW  Elec       q    Type
REMARK                         _______ _______ _______ _____ _____    ______ ____
ROOT
ATOM      1  O   UNL     1      20.589   8.204  20.839  0.00  0.00    -0.364 OA
ATOM      2  O   UNL     1      23.634   6.440  20.663  0.00  0.00    -0.273 OA
ATOM      4  N   UNL     1      17.961   6.245  20.499  0.00  0.00    -0.294 NA
ATOM      5  N   UNL     1      21.504   5.621  21.120  0.00  0.00    -0.291 N 
ATOM      7  C   UNL     1      20.086   5.896  21.336  0.00  0.00    +0.120 C 
ATOM      8  C   UNL     1      19.749   7.357  21.620  0.00  0.00    +0.154 C 
ATOM      9  C   UNL     1      19.216   5.599  20.118  0.00  0.00    +0.110 C 
ATOM     10  C   UNL     1      18.312   7.531  21.117  0.00  0.00    +0.118 C 
ATOM     12  C   UNL     1      22.448   6.628  20.939  0.00  0.00    +0.242 C 
ATOM     13  C   UNL     1      21.942   8.032  21.187  0.00  0.00    +0.256 C 
ENDROOT
BRANCH   4  11
ATOM     11  C   UNL     1      17.040   6.388  19.382  0.00  0.00    +0.121 C 
BRANCH  11  15
ATOM      6  N   UNL     1      13.804   6.598  21.120  0.00  0.00    -0.360 N 
ATOM     15  C   UNL     1      15.622   6.590  19.847  0.00  0.00    -0.008 A 
ATOM     17  C   UNL     1      14.555   7.154  19.094  0.00  0.00    +0.004 A 
ATOM     18  C   UNL     1      15.130   6.259  21.089  0.00  0.00    +0.088 A 
ATOM     19  C   UNL     1      13.426   7.147  19.915  0.00  0.00    +0.047 A 
ATOM     20  C   UNL     1      14.442   7.670  17.787  0.00  0.00    +0.010 A 
ATOM     21  C   UNL     1      12.182   7.632  19.494  0.00  0.00    +0.026 A 
ATOM     22  C   UNL     1      13.204   8.160  17.352  0.00  0.00    +0.001 A 
ATOM     23  C   UNL     1      12.094   8.140  18.194  0.00  0.00    +0.002 A 
ATOM     25  H   UNL     1      13.191   6.466  21.912  0.00  0.00    +0.165 HD
ENDBRANCH  11  15
ENDBRANCH   4  11
BRANCH   5  14
ATOM     14  C   UNL     1      21.896   4.223  21.001  0.00  0.00    +0.136 C 
BRANCH  14  16
ATOM     16  C   UNL     1      22.019   3.560  22.361  0.00  0.00    +0.178 C 
BRANCH  16   3
ATOM      3  O   UNL     1      23.250   3.942  22.962  0.00  0.00    -0.381 OA
ATOM     24  C   UNL     1      24.047   2.810  23.281  0.00  0.00    +0.194 C 
ENDBRANCH  16   3
ENDBRANCH  14  16
ENDBRANCH   5  14
TORSDOF 5
ENDMDL
