MODEL 1
REMARK VINA RESULT:      -6.3      0.000      0.000
REMARK  Name = 38027218
REMARK  14 active torsions:
REMARK  status: ('A' for Active; 'I' for Inactive)
REMARK    1  A    between atoms: O_3  and  C_22
REMARK    2  A    between atoms: O_3  and  C_28
REMARK    3  A    between atoms: N_4  and  C_13
REMARK    4  A    between atoms: N_5  and  C_20
REMARK    5  A    between atoms: N_5  and  C_21
REMARK    6  A    between atoms: C_6  and  C_10
REMARK    7  A    between atoms: C_7  and  C_13
REMARK    8  A    between atoms: C_9  and  C_14
REMARK    9  A    between atoms: C_10  and  C_15
REMARK   10  A    between atoms: C_10  and  C_16
REMARK   11  A    between atoms: C_11  and  C_17
REMARK   12  A    between atoms: C_14  and  C_18
REMARK   13  A    between atoms: C_19  and  C_22
REMARK   14  A    between atoms: C_20  and  C_23
REMARK                            x       y       z     vdW  Elec       q    Type
REMARK                         _______ _______ _______ _____ _____    ______ ____
ROOT
ATOM      6  C   UNL     1      14.544   9.074  20.663  0.00  0.00    +0.000 C 
ATOM      7  C   UNL     1      14.539   7.615  20.140  0.00  0.00    +0.032 C 
ATOM      8  C   UNL     1      13.873   9.152  22.042  0.00  0.00    +0.012 C 
ATOM      9  C   UNL     1      12.418   8.648  22.013  0.00  0.00    +0.023 C 
ATOM     11  C   UNL     1      12.292   7.332  21.273  0.00  0.00    -0.073 C 
ATOM     12  C   UNL     1      13.256   6.880  20.451  0.00  0.00    -0.022 C 
ATOM     17  C   UNL     1      11.052   6.523  21.535  0.00  0.00    +0.039 C 
ENDROOT
BRANCH   6  10
ATOM     10  C   UNL     1      15.963   9.645  20.741  0.00  0.00    -0.013 C 
ATOM     15  C   UNL     1      15.949  11.014  21.414  0.00  0.00    +0.007 C 
ATOM     16  C   UNL     1      16.882   8.684  21.489  0.00  0.00    +0.007 C 
ENDBRANCH   6  10
BRANCH   7  13
ATOM     13  C   UNL     1      14.803   7.566  18.631  0.00  0.00    +0.112 C 
BRANCH  13   4
ATOM      2  O   UNL     1      14.353   7.777  15.782  0.00  0.00    -0.273 OA
ATOM      4  N   UNL     1      14.035   8.561  17.949  0.00  0.00    -0.313 N 
ATOM     19  C   UNL     1      13.869   8.588  16.565  0.00  0.00    +0.239 C 
ATOM     30  H   UNL     1      13.541   9.250  18.509  0.00  0.00    +0.149 HD
BRANCH  19  22
ATOM     22  C   UNL     1      13.007   9.748  16.114  0.00  0.00    +0.255 C 
BRANCH  22   3
ATOM      3  O   UNL     1      12.041   9.318  15.179  0.00  0.00    -0.374 OA
ATOM     28  C   UNL     1      10.804   8.994  15.806  0.00  0.00    +0.194 C 
ENDBRANCH  22   3
ENDBRANCH  19  22
ENDBRANCH  13   4
ENDBRANCH   7  13
BRANCH   9  14
ATOM     14  C   UNL     1      11.480   9.705  21.417  0.00  0.00    +0.103 C 
BRANCH  14  18
ATOM      1  O   UNL     1      10.788  10.825  23.419  0.00  0.00    -0.276 OA
ATOM      5  N   UNL     1      11.853  12.114  21.812  0.00  0.00    -0.300 N 
ATOM     18  C   UNL     1      11.334  10.917  22.317  0.00  0.00    +0.216 C 
ATOM     21  C   UNL     1      12.494  12.199  20.507  0.00  0.00    +0.132 C 
BRANCH   5  20
ATOM     20  C   UNL     1      11.791  13.370  22.557  0.00  0.00    +0.142 C 
BRANCH  20  23
ATOM     23  C   UNL     1      10.515  14.117  22.294  0.00  0.00    -0.030 A 
ATOM     24  C   UNL     1      10.254  14.624  21.022  0.00  0.00    +0.005 A 
ATOM     25  C   UNL     1       9.592  14.304  23.323  0.00  0.00    +0.005 A 
ATOM     26  C   UNL     1       9.068  15.318  20.777  0.00  0.00    +0.000 A 
ATOM     27  C   UNL     1       8.407  14.999  23.079  0.00  0.00    +0.000 A 
ATOM     29  C   UNL     1       8.145  15.505  21.805  0.00  0.00    +0.000 A 
ENDBRANCH  20  23
ENDBRANCH   5  20
ENDBRANCH  14  18
ENDBRANCH   9  14
TORSDOF 9
ENDMDL
MODEL 2
REMARK VINA RESULT:      -6.1      1.674      2.461
REMARK  Name = 38027218
REMARK  14 active torsions:
REMARK  status: ('A' for Active; 'I' for Inactive)
REMARK    1  A    between atoms: O_3  and  C_22
REMARK    2  A    between atoms: O_3  and  C_28
REMARK    3  A    between atoms: N_4  and  C_13
REMARK    4  A    between atoms: N_5  and  C_20
REMARK    5  A    between atoms: N_5  and  C_21
REMARK    6  A    between atoms: C_6  and  C_10
REMARK    7  A    between atoms: C_7  and  C_13
REMARK    8  A    between atoms: C_9  and  C_14
REMARK    9  A    between atoms: C_10  and  C_15
REMARK   10  A    between atoms: C_10  and  C_16
REMARK   11  A    between atoms: C_11  and  C_17
REMARK   12  A    between atoms: C_14  and  C_18
REMARK   13  A    between atoms: C_19  and  C_22
REMARK   14  A    between atoms: C_20  and  C_23
REMARK                            x       y       z     vdW  Elec       q    Type
REMARK                         _______ _______ _______ _____ _____    ______ ____
ROOT
ATOM      6  C   UNL     1      15.009   8.568  20.505  0.00  0.00    +0.000 C 
ATOM      7  C   UNL     1      14.649   7.215  19.842  0.00  0.00    +0.032 C 
ATOM      8  C   UNL     1      14.466   8.623  21.941  0.00  0.00    +0.012 C 
ATOM      9  C   UNL     1      12.936   8.445  21.993  0.00  0.00    +0.023 C 
ATOM     11  C   UNL     1      12.476   7.281  21.139  0.00  0.00    -0.073 C 
ATOM     12  C   UNL     1      13.260   6.735  20.192  0.00  0.00    -0.022 C 
ATOM     17  C   UNL     1      11.109   6.727  21.430  0.00  0.00    +0.039 C 
ENDROOT
BRANCH   6  10
ATOM     10  C   UNL     1      16.521   8.814  20.512  0.00  0.00    -0.013 C 
ATOM     15  C   UNL     1      16.851  10.077  21.301  0.00  0.00    +0.007 C 
ATOM     16  C   UNL     1      17.253   7.607  21.092  0.00  0.00    +0.007 C 
ENDBRANCH   6  10
BRANCH   7  13
ATOM     13  C   UNL     1      14.795   7.288  18.318  0.00  0.00    +0.112 C 
BRANCH  13   4
ATOM      2  O   UNL     1      14.468   7.988  15.531  0.00  0.00    -0.273 OA
ATOM      4  N   UNL     1      13.951   8.307  17.777  0.00  0.00    -0.313 N 
ATOM     19  C   UNL     1      13.852   8.580  16.413  0.00  0.00    +0.239 C 
ATOM     30  H   UNL     1      13.351   8.822  18.416  0.00  0.00    +0.149 HD
BRANCH  19  22
ATOM     22  C   UNL     1      12.885   9.706  16.122  0.00  0.00    +0.255 C 
BRANCH  22   3
ATOM      3  O   UNL     1      11.843   9.264  15.277  0.00  0.00    -0.374 OA
ATOM     28  C   UNL     1      10.683   8.893  16.017  0.00  0.00    +0.194 C 
ENDBRANCH  22   3
ENDBRANCH  19  22
ENDBRANCH  13   4
ENDBRANCH   7  13
BRANCH   9  14
ATOM     14  C   UNL     1      12.216   9.738  21.593  0.00  0.00    +0.103 C 
BRANCH  14  18
ATOM      1  O   UNL     1      10.855   9.533  23.555  0.00  0.00    -0.276 OA
ATOM      5  N   UNL     1      11.173  11.672  22.720  0.00  0.00    -0.300 N 
ATOM     18  C   UNL     1      11.353  10.285  22.714  0.00  0.00    +0.216 C 
ATOM     21  C   UNL     1      11.773  12.542  21.717  0.00  0.00    +0.132 C 
BRANCH   5  20
ATOM     20  C   UNL     1      10.370  12.354  23.733  0.00  0.00    +0.142 C 
BRANCH  20  23
ATOM     23  C   UNL     1      11.226  13.062  24.744  0.00  0.00    -0.030 A 
ATOM     24  C   UNL     1      10.862  14.328  25.201  0.00  0.00    +0.005 A 
ATOM     25  C   UNL     1      12.385  12.453  25.225  0.00  0.00    +0.005 A 
ATOM     26  C   UNL     1      11.657  14.986  26.141  0.00  0.00    +0.000 A 
ATOM     27  C   UNL     1      13.180  13.111  26.164  0.00  0.00    +0.000 A 
ATOM     29  C   UNL     1      12.816  14.378  26.622  0.00  0.00    +0.000 A 
ENDBRANCH  20  23
ENDBRANCH   5  20
ENDBRANCH  14  18
ENDBRANCH   9  14
TORSDOF 9
ENDMDL
MODEL 3
REMARK VINA RESULT:      -5.9     27.097     29.699
REMARK  Name = 38027218
REMARK  14 active torsions:
REMARK  status: ('A' for Active; 'I' for Inactive)
REMARK    1  A    between atoms: O_3  and  C_22
REMARK    2  A    between atoms: O_3  and  C_28
REMARK    3  A    between atoms: N_4  and  C_13
REMARK    4  A    between atoms: N_5  and  C_20
REMARK    5  A    between atoms: N_5  and  C_21
REMARK    6  A    between atoms: C_6  and  C_10
REMARK    7  A    between atoms: C_7  and  C_13
REMARK    8  A    between atoms: C_9  and  C_14
REMARK    9  A    between atoms: C_10  and  C_15
REMARK   10  A    between atoms: C_10  and  C_16
REMARK   11  A    between atoms: C_11  and  C_17
REMARK   12  A    between atoms: C_14  and  C_18
REMARK   13  A    between atoms: C_19  and  C_22
REMARK   14  A    between atoms: C_20  and  C_23
REMARK                            x       y       z     vdW  Elec       q    Type
REMARK                         _______ _______ _______ _____ _____    ______ ____
ROOT
ATOM      6  C   UNL     1      -7.432 -10.328  16.245  0.00  0.00    +0.000 C 
ATOM      7  C   UNL     1      -6.470  -9.987  15.080  0.00  0.00    +0.032 C 
ATOM      8  C   UNL     1      -6.816  -9.912  17.589  0.00  0.00    +0.012 C 
ATOM      9  C   UNL     1      -5.466 -10.606  17.851  0.00  0.00    +0.023 C 
ATOM     11  C   UNL     1      -4.556 -10.543  16.642  0.00  0.00    -0.073 C 
ATOM     12  C   UNL     1      -5.021 -10.252  15.413  0.00  0.00    -0.022 C 
ATOM     17  C   UNL     1      -3.091 -10.778  16.883  0.00  0.00    +0.039 C 
ENDROOT
BRANCH   6  10
ATOM     10  C   UNL     1      -8.798  -9.658  16.069  0.00  0.00    -0.013 C 
ATOM     15  C   UNL     1      -9.916 -10.690  16.184  0.00  0.00    +0.007 C 
ATOM     16  C   UNL     1      -8.981  -8.547  17.099  0.00  0.00    +0.007 C 
ENDBRANCH   6  10
BRANCH   7  13
ATOM     13  C   UNL     1      -6.848 -10.751  13.807  0.00  0.00    +0.112 C 
BRANCH  13   4
ATOM      2  O   UNL     1      -6.384  -8.777  11.744  0.00  0.00    -0.273 OA
ATOM      4  N   UNL     1      -5.775 -10.725  12.862  0.00  0.00    -0.313 N 
ATOM     19  C   UNL     1      -5.626  -9.730  11.896  0.00  0.00    +0.239 C 
ATOM     30  H   UNL     1      -5.055 -11.438  12.935  0.00  0.00    +0.149 HD
BRANCH  19  22
ATOM     22  C   UNL     1      -4.403  -9.949  11.032  0.00  0.00    +0.255 C 
BRANCH  22   3
ATOM      3  O   UNL     1      -3.574 -10.950  11.585  0.00  0.00    -0.374 OA
ATOM     28  C   UNL     1      -2.244 -10.482  11.790  0.00  0.00    +0.194 C 
ENDBRANCH  22   3
ENDBRANCH  19  22
ENDBRANCH  13   4
ENDBRANCH   7  13
BRANCH   9  14
ATOM     14  C   UNL     1      -5.669 -12.054  18.311  0.00  0.00    +0.103 C 
BRANCH  14  18
ATOM      1  O   UNL     1      -6.531 -11.586  20.497  0.00  0.00    -0.276 OA
ATOM      5  N   UNL     1      -7.814 -12.958  19.138  0.00  0.00    -0.300 N 
ATOM     18  C   UNL     1      -6.696 -12.166  19.422  0.00  0.00    +0.216 C 
ATOM     21  C   UNL     1      -7.989 -13.634  17.859  0.00  0.00    +0.132 C 
BRANCH   5  20
ATOM     20  C   UNL     1      -8.893 -13.165  20.103  0.00  0.00    +0.142 C 
BRANCH  20  23
ATOM     23  C   UNL     1     -10.073 -12.281  19.824  0.00  0.00    -0.030 A 
ATOM     24  C   UNL     1     -11.277 -12.839  19.396  0.00  0.00    +0.005 A 
ATOM     25  C   UNL     1      -9.965 -10.900  19.991  0.00  0.00    +0.005 A 
ATOM     26  C   UNL     1     -12.375 -12.017  19.137  0.00  0.00    +0.000 A 
ATOM     27  C   UNL     1     -11.062 -10.078  19.731  0.00  0.00    +0.000 A 
ATOM     29  C   UNL     1     -12.267 -10.637  19.305  0.00  0.00    +0.000 A 
ENDBRANCH  20  23
ENDBRANCH   5  20
ENDBRANCH  14  18
ENDBRANCH   9  14
TORSDOF 9
ENDMDL
MODEL 4
REMARK VINA RESULT:      -5.8      2.897      7.812
REMARK  Name = 38027218
REMARK  14 active torsions:
REMARK  status: ('A' for Active; 'I' for Inactive)
REMARK    1  A    between atoms: O_3  and  C_22
REMARK    2  A    between atoms: O_3  and  C_28
REMARK    3  A    between atoms: N_4  and  C_13
REMARK    4  A    between atoms: N_5  and  C_20
REMARK    5  A    between atoms: N_5  and  C_21
REMARK    6  A    between atoms: C_6  and  C_10
REMARK    7  A    between atoms: C_7  and  C_13
REMARK    8  A    between atoms: C_9  and  C_14
REMARK    9  A    between atoms: C_10  and  C_15
REMARK   10  A    between atoms: C_10  and  C_16
REMARK   11  A    between atoms: C_11  and  C_17
REMARK   12  A    between atoms: C_14  and  C_18
REMARK   13  A    between atoms: C_19  and  C_22
REMARK   14  A    between atoms: C_20  and  C_23
REMARK                            x       y       z     vdW  Elec       q    Type
REMARK                         _______ _______ _______ _____ _____    ______ ____
ROOT
ATOM      6  C   UNL     1      11.578  13.357  23.129  0.00  0.00    +0.000 C 
ATOM      7  C   UNL     1      10.815  12.604  24.247  0.00  0.00    +0.032 C 
ATOM      8  C   UNL     1      11.230  12.770  21.753  0.00  0.00    +0.012 C 
ATOM      9  C   UNL     1      11.572  11.271  21.655  0.00  0.00    +0.023 C 
ATOM     11  C   UNL     1      11.080  10.500  22.864  0.00  0.00    -0.073 C 
ATOM     12  C   UNL     1      10.733  11.115  24.009  0.00  0.00    -0.022 C 
ATOM     17  C   UNL     1      10.952   9.010  22.711  0.00  0.00    +0.039 C 
ENDROOT
BRANCH   6  10
ATOM     10  C   UNL     1      11.276  14.858  23.145  0.00  0.00    -0.013 C 
ATOM     15  C   UNL     1      12.100  15.578  22.083  0.00  0.00    +0.007 C 
ATOM     16  C   UNL     1       9.785  15.102  22.930  0.00  0.00    +0.007 C 
ENDBRANCH   6  10
BRANCH   7  13
ATOM     13  C   UNL     1      11.442  12.867  25.621  0.00  0.00    +0.112 C 
BRANCH  13   4
ATOM      2  O   UNL     1      14.157  13.752  26.082  0.00  0.00    -0.273 OA
ATOM      4  N   UNL     1      12.596  12.047  25.817  0.00  0.00    -0.313 N 
ATOM     19  C   UNL     1      13.875  12.558  26.035  0.00  0.00    +0.239 C 
ATOM     30  H   UNL     1      12.467  11.040  25.854  0.00  0.00    +0.149 HD
BRANCH  19  22
ATOM     22  C   UNL     1      14.907  11.465  26.212  0.00  0.00    +0.255 C 
BRANCH  22   3
ATOM      3  O   UNL     1      14.887  10.971  27.534  0.00  0.00    -0.374 OA
ATOM     28  C   UNL     1      15.810  11.660  28.372  0.00  0.00    +0.194 C 
ENDBRANCH  22   3
ENDBRANCH  19  22
ENDBRANCH  13   4
ENDBRANCH   7  13
BRANCH   9  14
ATOM     14  C   UNL     1      13.076  11.060  21.445  0.00  0.00    +0.103 C 
BRANCH  14  18
ATOM      1  O   UNL     1      13.349  11.654  19.140  0.00  0.00    -0.276 OA
ATOM      5  N   UNL     1      13.811   9.456  19.716  0.00  0.00    -0.300 N 
ATOM     18  C   UNL     1      13.419  10.770  19.996  0.00  0.00    +0.216 C 
ATOM     21  C   UNL     1      13.887   8.428  20.745  0.00  0.00    +0.132 C 
BRANCH   5  20
ATOM     20  C   UNL     1      14.174   9.017  18.370  0.00  0.00    +0.142 C 
BRANCH  20  23
ATOM     23  C   UNL     1      12.997   9.036  17.437  0.00  0.00    -0.030 A 
ATOM     24  C   UNL     1      13.104   9.655  16.193  0.00  0.00    +0.005 A 
ATOM     25  C   UNL     1      11.797   8.436  17.817  0.00  0.00    +0.005 A 
ATOM     26  C   UNL     1      12.011   9.673  15.325  0.00  0.00    +0.000 A 
ATOM     27  C   UNL     1      10.703   8.454  16.951  0.00  0.00    +0.000 A 
ATOM     29  C   UNL     1      10.811   9.073  15.705  0.00  0.00    +0.000 A 
ENDBRANCH  20  23
ENDBRANCH   5  20
ENDBRANCH  14  18
ENDBRANCH   9  14
TORSDOF 9
ENDMDL
MODEL 5
REMARK VINA RESULT:      -5.8     27.275     29.930
REMARK  Name = 38027218
REMARK  14 active torsions:
REMARK  status: ('A' for Active; 'I' for Inactive)
REMARK    1  A    between atoms: O_3  and  C_22
REMARK    2  A    between atoms: O_3  and  C_28
REMARK    3  A    between atoms: N_4  and  C_13
REMARK    4  A    between atoms: N_5  and  C_20
REMARK    5  A    between atoms: N_5  and  C_21
REMARK    6  A    between atoms: C_6  and  C_10
REMARK    7  A    between atoms: C_7  and  C_13
REMARK    8  A    between atoms: C_9  and  C_14
REMARK    9  A    between atoms: C_10  and  C_15
REMARK   10  A    between atoms: C_10  and  C_16
REMARK   11  A    between atoms: C_11  and  C_17
REMARK   12  A    between atoms: C_14  and  C_18
REMARK   13  A    between atoms: C_19  and  C_22
REMARK   14  A    between atoms: C_20  and  C_23
REMARK                            x       y       z     vdW  Elec       q    Type
REMARK                         _______ _______ _______ _____ _____    ______ ____
ROOT
ATOM      6  C   UNL     1     -15.496   1.424  29.854  0.00  0.00    +0.000 C 
ATOM      7  C   UNL     1     -16.820   1.425  29.050  0.00  0.00    +0.032 C 
ATOM      8  C   UNL     1     -15.713   2.035  31.246  0.00  0.00    +0.012 C 
ATOM      9  C   UNL     1     -16.240   3.481  31.173  0.00  0.00    +0.023 C 
ATOM     11  C   UNL     1     -17.384   3.615  30.189  0.00  0.00    -0.073 C 
ATOM     12  C   UNL     1     -17.637   2.679  29.256  0.00  0.00    -0.022 C 
ATOM     17  C   UNL     1     -18.262   4.827  30.331  0.00  0.00    +0.039 C 
ENDROOT
BRANCH   6  10
ATOM     10  C   UNL     1     -14.914   0.014  29.990  0.00  0.00    -0.013 C 
ATOM     15  C   UNL     1     -13.398   0.046  29.826  0.00  0.00    +0.007 C 
ATOM     16  C   UNL     1     -15.300  -0.592  31.336  0.00  0.00    +0.007 C 
ENDBRANCH   6  10
BRANCH   7  13
ATOM     13  C   UNL     1     -16.560   1.226  27.552  0.00  0.00    +0.112 C 
BRANCH  13   4
ATOM      2  O   UNL     1     -16.266   1.690  24.712  0.00  0.00    -0.273 OA
ATOM      4  N   UNL     1     -16.392   2.485  26.896  0.00  0.00    -0.313 N 
ATOM     19  C   UNL     1     -16.258   2.619  25.514  0.00  0.00    +0.239 C 
ATOM     30  H   UNL     1     -16.428   3.329  27.461  0.00  0.00    +0.149 HD
BRANCH  19  22
ATOM     22  C   UNL     1     -16.097   4.064  25.092  0.00  0.00    +0.255 C 
BRANCH  22   3
ATOM      3  O   UNL     1     -15.014   4.204  24.196  0.00  0.00    -0.374 OA
ATOM     28  C   UNL     1     -15.444   4.636  22.909  0.00  0.00    +0.194 C 
ENDBRANCH  22   3
ENDBRANCH  19  22
ENDBRANCH  13   4
ENDBRANCH   7  13
BRANCH   9  14
ATOM     14  C   UNL     1     -15.111   4.463  30.838  0.00  0.00    +0.103 C 
BRANCH  14  18
ATOM      1  O   UNL     1     -13.425   4.130  32.509  0.00  0.00    -0.276 OA
ATOM      5  N   UNL     1     -14.655   6.091  32.639  0.00  0.00    -0.300 N 
ATOM     18  C   UNL     1     -14.313   4.862  32.066  0.00  0.00    +0.216 C 
ATOM     21  C   UNL     1     -15.708   6.940  32.098  0.00  0.00    +0.132 C 
BRANCH   5  20
ATOM     20  C   UNL     1     -13.981   6.617  33.825  0.00  0.00    +0.142 C 
BRANCH  20  23
ATOM     23  C   UNL     1     -13.082   7.773  33.492  0.00  0.00    -0.030 A 
ATOM     24  C   UNL     1     -12.319   7.749  32.325  0.00  0.00    +0.005 A 
ATOM     25  C   UNL     1     -13.007   8.868  34.352  0.00  0.00    +0.005 A 
ATOM     26  C   UNL     1     -11.483   8.823  32.015  0.00  0.00    +0.000 A 
ATOM     27  C   UNL     1     -12.171   9.941  34.044  0.00  0.00    +0.000 A 
ATOM     29  C   UNL     1     -11.409   9.919  32.875  0.00  0.00    +0.000 A 
ENDBRANCH  20  23
ENDBRANCH   5  20
ENDBRANCH  14  18
ENDBRANCH   9  14
TORSDOF 9
ENDMDL
MODEL 6
REMARK VINA RESULT:      -5.8     23.277     25.033
REMARK  Name = 38027218
REMARK  14 active torsions:
REMARK  status: ('A' for Active; 'I' for Inactive)
REMARK    1  A    between atoms: O_3  and  C_22
REMARK    2  A    between atoms: O_3  and  C_28
REMARK    3  A    between atoms: N_4  and  C_13
REMARK    4  A    between atoms: N_5  and  C_20
REMARK    5  A    between atoms: N_5  and  C_21
REMARK    6  A    between atoms: C_6  and  C_10
REMARK    7  A    between atoms: C_7  and  C_13
REMARK    8  A    between atoms: C_9  and  C_14
REMARK    9  A    between atoms: C_10  and  C_15
REMARK   10  A    between atoms: C_10  and  C_16
REMARK   11  A    between atoms: C_11  and  C_17
REMARK   12  A    between atoms: C_14  and  C_18
REMARK   13  A    between atoms: C_19  and  C_22
REMARK   14  A    between atoms: C_20  and  C_23
REMARK                            x       y       z     vdW  Elec       q    Type
REMARK                         _______ _______ _______ _____ _____    ______ ____
ROOT
ATOM      6  C   UNL     1     -12.050   9.998  18.578  0.00  0.00    +0.000 C 
ATOM      7  C   UNL     1     -11.936   8.608  17.904  0.00  0.00    +0.032 C 
ATOM      8  C   UNL     1     -11.286  10.012  19.910  0.00  0.00    +0.012 C 
ATOM      9  C   UNL     1     -11.810   8.948  20.893  0.00  0.00    +0.023 C 
ATOM     11  C   UNL     1     -11.980   7.599  20.225  0.00  0.00    -0.073 C 
ATOM     12  C   UNL     1     -12.021   7.465  18.887  0.00  0.00    -0.022 C 
ATOM     17  C   UNL     1     -12.057   6.400  21.129  0.00  0.00    +0.039 C 
ENDROOT
BRANCH   6  10
ATOM     10  C   UNL     1     -11.529  11.115  17.668  0.00  0.00    -0.013 C 
ATOM     15  C   UNL     1     -12.334  12.393  17.881  0.00  0.00    +0.007 C 
ATOM     16  C   UNL     1     -10.045  11.362  17.927  0.00  0.00    +0.007 C 
ENDBRANCH   6  10
BRANCH   7  13
ATOM     13  C   UNL     1     -13.005   8.428  16.820  0.00  0.00    +0.112 C 
BRANCH  13   4
ATOM      2  O   UNL     1     -14.200   8.460  14.186  0.00  0.00    -0.273 OA
ATOM      4  N   UNL     1     -12.417   7.971  15.599  0.00  0.00    -0.313 N 
ATOM     19  C   UNL     1     -13.067   8.024  14.366  0.00  0.00    +0.239 C 
ATOM     30  H   UNL     1     -11.456   7.642  15.624  0.00  0.00    +0.149 HD
BRANCH  19  22
ATOM     22  C   UNL     1     -12.212   7.476  13.244  0.00  0.00    +0.255 C 
BRANCH  22   3
ATOM      3  O   UNL     1     -10.869   7.342  13.660  0.00  0.00    -0.374 OA
ATOM     28  C   UNL     1      -9.959   7.540  12.582  0.00  0.00    +0.194 C 
ENDBRANCH  22   3
ENDBRANCH  19  22
ENDBRANCH  13   4
ENDBRANCH   7  13
BRANCH   9  14
ATOM     14  C   UNL     1     -13.117   9.402  21.554  0.00  0.00    +0.103 C 
BRANCH  14  18
ATOM      1  O   UNL     1     -12.084  11.409  22.359  0.00  0.00    -0.276 OA
ATOM      5  N   UNL     1     -13.657  10.413  23.742  0.00  0.00    -0.300 N 
ATOM     18  C   UNL     1     -12.893  10.503  22.573  0.00  0.00    +0.216 C 
ATOM     21  C   UNL     1     -14.608   9.334  23.973  0.00  0.00    +0.132 C 
BRANCH   5  20
ATOM     20  C   UNL     1     -13.559  11.396  24.820  0.00  0.00    +0.142 C 
BRANCH  20  23
ATOM     23  C   UNL     1     -12.683  10.914  25.940  0.00  0.00    -0.030 A 
ATOM     24  C   UNL     1     -13.227  10.691  27.204  0.00  0.00    +0.005 A 
ATOM     25  C   UNL     1     -11.324  10.692  25.716  0.00  0.00    +0.005 A 
ATOM     26  C   UNL     1     -12.413  10.243  28.245  0.00  0.00    +0.000 A 
ATOM     27  C   UNL     1     -10.510  10.245  26.757  0.00  0.00    +0.000 A 
ATOM     29  C   UNL     1     -11.055  10.021  28.022  0.00  0.00    +0.000 A 
ENDBRANCH  20  23
ENDBRANCH   5  20
ENDBRANCH  14  18
ENDBRANCH   9  14
TORSDOF 9
ENDMDL
MODEL 7
REMARK VINA RESULT:      -5.8      2.968      8.686
REMARK  Name = 38027218
REMARK  14 active torsions:
REMARK  status: ('A' for Active; 'I' for Inactive)
REMARK    1  A    between atoms: O_3  and  C_22
REMARK    2  A    between atoms: O_3  and  C_28
REMARK    3  A    between atoms: N_4  and  C_13
REMARK    4  A    between atoms: N_5  and  C_20
REMARK    5  A    between atoms: N_5  and  C_21
REMARK    6  A    between atoms: C_6  and  C_10
REMARK    7  A    between atoms: C_7  and  C_13
REMARK    8  A    between atoms: C_9  and  C_14
REMARK    9  A    between atoms: C_10  and  C_15
REMARK   10  A    between atoms: C_10  and  C_16
REMARK   11  A    between atoms: C_11  and  C_17
REMARK   12  A    between atoms: C_14  and  C_18
REMARK   13  A    between atoms: C_19  and  C_22
REMARK   14  A    between atoms: C_20  and  C_23
REMARK                            x       y       z     vdW  Elec       q    Type
REMARK                         _______ _______ _______ _____ _____    ______ ____
ROOT
ATOM      6  C   UNL     1      11.933  12.313  22.488  0.00  0.00    +0.000 C 
ATOM      7  C   UNL     1      10.871  11.589  23.353  0.00  0.00    +0.032 C 
ATOM      8  C   UNL     1      11.979  11.709  21.077  0.00  0.00    +0.012 C 
ATOM      9  C   UNL     1      12.309  10.205  21.098  0.00  0.00    +0.023 C 
ATOM     11  C   UNL     1      11.482   9.460  22.126  0.00  0.00    -0.073 C 
ATOM     12  C   UNL     1      10.836  10.097  23.119  0.00  0.00    -0.022 C 
ATOM     17  C   UNL     1      11.378   7.969  21.961  0.00  0.00    +0.039 C 
ENDROOT
BRANCH   6  10
ATOM     10  C   UNL     1      11.664  13.819  22.401  0.00  0.00    -0.013 C 
ATOM     15  C   UNL     1      12.624  14.475  21.415  0.00  0.00    +0.007 C 
ATOM     16  C   UNL     1      10.215  14.076  21.997  0.00  0.00    +0.007 C 
ENDBRANCH   6  10
BRANCH   7  13
ATOM     13  C   UNL     1      11.089  11.865  24.845  0.00  0.00    +0.112 C 
BRANCH  13   4
ATOM      2  O   UNL     1      13.302  13.468  25.793  0.00  0.00    -0.273 OA
ATOM      4  N   UNL     1      12.374  11.401  25.265  0.00  0.00    -0.313 N 
ATOM     19  C   UNL     1      13.389  12.246  25.711  0.00  0.00    +0.239 C 
ATOM     30  H   UNL     1      12.535  10.398  25.292  0.00  0.00    +0.149 HD
BRANCH  19  22
ATOM     22  C   UNL     1      14.641  11.487  26.094  0.00  0.00    +0.255 C 
BRANCH  22   3
ATOM      3  O   UNL     1      15.222  12.037  27.257  0.00  0.00    -0.374 OA
ATOM     28  C   UNL     1      16.008  11.080  27.961  0.00  0.00    +0.194 C 
ENDBRANCH  22   3
ENDBRANCH  19  22
ENDBRANCH  13   4
ENDBRANCH   7  13
BRANCH   9  14
ATOM     14  C   UNL     1      13.807   9.971  21.325  0.00  0.00    +0.103 C 
BRANCH  14  18
ATOM      1  O   UNL     1      14.552   9.711  19.062  0.00  0.00    -0.276 OA
ATOM      5  N   UNL     1      14.905   7.921  20.492  0.00  0.00    -0.300 N 
ATOM     18  C   UNL     1      14.450   9.207  20.182  0.00  0.00    +0.216 C 
ATOM     21  C   UNL     1      14.774   7.346  21.824  0.00  0.00    +0.132 C 
BRANCH   5  20
ATOM     20  C   UNL     1      15.547   7.057  19.503  0.00  0.00    +0.142 C 
BRANCH  20  23
ATOM     23  C   UNL     1      16.958   6.718  19.885  0.00  0.00    -0.030 A 
ATOM     24  C   UNL     1      17.569   5.581  19.358  0.00  0.00    +0.005 A 
ATOM     25  C   UNL     1      17.657   7.540  20.769  0.00  0.00    +0.005 A 
ATOM     26  C   UNL     1      18.882   5.265  19.714  0.00  0.00    +0.000 A 
ATOM     27  C   UNL     1      18.969   7.224  21.126  0.00  0.00    +0.000 A 
ATOM     29  C   UNL     1      19.581   6.087  20.598  0.00  0.00    +0.000 A 
ENDBRANCH  20  23
ENDBRANCH   5  20
ENDBRANCH  14  18
ENDBRANCH   9  14
TORSDOF 9
ENDMDL
MODEL 8
REMARK VINA RESULT:      -5.8     12.024     17.859
REMARK  Name = 38027218
REMARK  14 active torsions:
REMARK  status: ('A' for Active; 'I' for Inactive)
REMARK    1  A    between atoms: O_3  and  C_22
REMARK    2  A    between atoms: O_3  and  C_28
REMARK    3  A    between atoms: N_4  and  C_13
REMARK    4  A    between atoms: N_5  and  C_20
REMARK    5  A    between atoms: N_5  and  C_21
REMARK    6  A    between atoms: C_6  and  C_10
REMARK    7  A    between atoms: C_7  and  C_13
REMARK    8  A    between atoms: C_9  and  C_14
REMARK    9  A    between atoms: C_10  and  C_15
REMARK   10  A    between atoms: C_10  and  C_16
REMARK   11  A    between atoms: C_11  and  C_17
REMARK   12  A    between atoms: C_14  and  C_18
REMARK   13  A    between atoms: C_19  and  C_22
REMARK   14  A    between atoms: C_20  and  C_23
REMARK                            x       y       z     vdW  Elec       q    Type
REMARK                         _______ _______ _______ _____ _____    ______ ____
ROOT
ATOM      6  C   UNL     1       8.988   8.601   5.860  0.00  0.00    +0.000 C 
ATOM      7  C   UNL     1       8.924   8.591   7.408  0.00  0.00    +0.032 C 
ATOM      8  C   UNL     1       8.424   7.291   5.292  0.00  0.00    +0.012 C 
ATOM      9  C   UNL     1       9.188   6.056   5.804  0.00  0.00    +0.023 C 
ATOM     11  C   UNL     1       9.400   6.106   7.304  0.00  0.00    -0.073 C 
ATOM     12  C   UNL     1       9.265   7.246   8.006  0.00  0.00    -0.022 C 
ATOM     17  C   UNL     1       9.728   4.807   7.986  0.00  0.00    +0.039 C 
ENDROOT
BRANCH   6  10
ATOM     10  C   UNL     1       8.231   9.794   5.268  0.00  0.00    -0.013 C 
ATOM     15  C   UNL     1       9.204  10.769   4.613  0.00  0.00    +0.007 C 
ATOM     16  C   UNL     1       7.188   9.314   4.263  0.00  0.00    +0.007 C 
ENDBRANCH   6  10
BRANCH   7  13
ATOM     13  C   UNL     1       9.841   9.662   8.008  0.00  0.00    +0.112 C 
BRANCH  13   4
ATOM      2  O   UNL     1      10.131  12.409   8.868  0.00  0.00    -0.273 OA
ATOM      4  N   UNL     1       9.224  10.284   9.138  0.00  0.00    -0.313 N 
ATOM     19  C   UNL     1       9.418  11.621   9.482  0.00  0.00    +0.239 C 
ATOM     30  H   UNL     1       8.566   9.735   9.686  0.00  0.00    +0.149 HD
BRANCH  19  22
ATOM     22  C   UNL     1       8.642  12.013  10.721  0.00  0.00    +0.255 C 
BRANCH  22   3
ATOM      3  O   UNL     1       8.152  13.332  10.606  0.00  0.00    -0.374 OA
ATOM     28  C   UNL     1       6.833  13.363  10.068  0.00  0.00    +0.194 C 
ENDBRANCH  22   3
ENDBRANCH  19  22
ENDBRANCH  13   4
ENDBRANCH   7  13
BRANCH   9  14
ATOM     14  C   UNL     1      10.522   5.886   5.067  0.00  0.00    +0.103 C 
BRANCH  14  18
ATOM      1  O   UNL     1      10.476   3.570   4.455  0.00  0.00    -0.276 OA
ATOM      5  N   UNL     1      10.469   5.110   2.723  0.00  0.00    -0.300 N 
ATOM     18  C   UNL     1      10.487   4.742   4.072  0.00  0.00    +0.216 C 
ATOM     21  C   UNL     1      10.482   6.502   2.292  0.00  0.00    +0.132 C 
BRANCH   5  20
ATOM     20  C   UNL     1      10.435   4.126   1.642  0.00  0.00    +0.142 C 
BRANCH  20  23
ATOM     23  C   UNL     1      11.771   3.981   0.973  0.00  0.00    -0.030 A 
ATOM     24  C   UNL     1      12.905   3.699   1.734  0.00  0.00    +0.005 A 
ATOM     25  C   UNL     1      11.879   4.130  -0.409  0.00  0.00    +0.005 A 
ATOM     26  C   UNL     1      14.147   3.563   1.113  0.00  0.00    +0.000 A 
ATOM     27  C   UNL     1      13.120   3.996  -1.031  0.00  0.00    +0.000 A 
ATOM     29  C   UNL     1      14.255   3.712  -0.270  0.00  0.00    +0.000 A 
ENDBRANCH  20  23
ENDBRANCH   5  20
ENDBRANCH  14  18
ENDBRANCH   9  14
TORSDOF 9
ENDMDL
MODEL 9
REMARK VINA RESULT:      -5.7     27.559     29.622
REMARK  Name = 38027218
REMARK  14 active torsions:
REMARK  status: ('A' for Active; 'I' for Inactive)
REMARK    1  A    between atoms: O_3  and  C_22
REMARK    2  A    between atoms: O_3  and  C_28
REMARK    3  A    between atoms: N_4  and  C_13
REMARK    4  A    between atoms: N_5  and  C_20
REMARK    5  A    between atoms: N_5  and  C_21
REMARK    6  A    between atoms: C_6  and  C_10
REMARK    7  A    between atoms: C_7  and  C_13
REMARK    8  A    between atoms: C_9  and  C_14
REMARK    9  A    between atoms: C_10  and  C_15
REMARK   10  A    between atoms: C_10  and  C_16
REMARK   11  A    between atoms: C_11  and  C_17
REMARK   12  A    between atoms: C_14  and  C_18
REMARK   13  A    between atoms: C_19  and  C_22
REMARK   14  A    between atoms: C_20  and  C_23
REMARK                            x       y       z     vdW  Elec       q    Type
REMARK                         _______ _______ _______ _____ _____    ______ ____
ROOT
ATOM      6  C   UNL     1      -5.674 -11.614  17.737  0.00  0.00    +0.000 C 
ATOM      7  C   UNL     1      -6.992 -10.907  17.336  0.00  0.00    +0.032 C 
ATOM      8  C   UNL     1      -4.465 -10.869  17.152  0.00  0.00    +0.012 C 
ATOM      9  C   UNL     1      -4.523 -10.780  15.616  0.00  0.00    +0.023 C 
ATOM     11  C   UNL     1      -5.889 -10.341  15.128  0.00  0.00    -0.073 C 
ATOM     12  C   UNL     1      -6.979 -10.393  15.916  0.00  0.00    -0.022 C 
ATOM     17  C   UNL     1      -5.967  -9.799  13.728  0.00  0.00    +0.039 C 
ENDROOT
BRANCH   6  10
ATOM     10  C   UNL     1      -5.529 -11.727  19.258  0.00  0.00    -0.013 C 
ATOM     15  C   UNL     1      -4.099 -12.102  19.631  0.00  0.00    +0.007 C 
ATOM     16  C   UNL     1      -5.936 -10.417  19.928  0.00  0.00    +0.007 C 
ENDBRANCH   6  10
BRANCH   7  13
ATOM     13  C   UNL     1      -8.200 -11.830  17.532  0.00  0.00    +0.112 C 
BRANCH  13   4
ATOM      2  O   UNL     1      -9.313 -11.058  20.088  0.00  0.00    -0.273 OA
ATOM      4  N   UNL     1      -9.388 -11.069  17.763  0.00  0.00    -0.313 N 
ATOM     19  C   UNL     1      -9.855 -10.739  19.034  0.00  0.00    +0.239 C 
ATOM     30  H   UNL     1      -9.886 -10.704  16.956  0.00  0.00    +0.149 HD
BRANCH  19  22
ATOM     22  C   UNL     1     -11.131  -9.927  18.983  0.00  0.00    +0.255 C 
BRANCH  22   3
ATOM      3  O   UNL     1     -11.729 -10.017  17.707  0.00  0.00    -0.374 OA
ATOM     28  C   UNL     1     -12.855  -9.152  17.587  0.00  0.00    +0.194 C 
ENDBRANCH  22   3
ENDBRANCH  19  22
ENDBRANCH  13   4
ENDBRANCH   7  13
BRANCH   9  14
ATOM     14  C   UNL     1      -4.110 -12.107  14.969  0.00  0.00    +0.103 C 
BRANCH  14  18
ATOM      1  O   UNL     1      -2.160 -11.287  13.842  0.00  0.00    -0.276 OA
ATOM      5  N   UNL     1      -3.698 -12.456  12.559  0.00  0.00    -0.300 N 
ATOM     18  C   UNL     1      -3.225 -11.903  13.754  0.00  0.00    +0.216 C 
ATOM     21  C   UNL     1      -4.959 -13.182  12.479  0.00  0.00    +0.132 C 
BRANCH   5  20
ATOM     20  C   UNL     1      -2.963 -12.347  11.300  0.00  0.00    +0.142 C 
BRANCH  20  23
ATOM     23  C   UNL     1      -3.486 -11.233  10.439  0.00  0.00    -0.030 A 
ATOM     24  C   UNL     1      -4.269 -11.525   9.323  0.00  0.00    +0.005 A 
ATOM     25  C   UNL     1      -3.188  -9.908  10.756  0.00  0.00    +0.005 A 
ATOM     26  C   UNL     1      -4.755 -10.490   8.522  0.00  0.00    +0.000 A 
ATOM     27  C   UNL     1      -3.673  -8.874   9.955  0.00  0.00    +0.000 A 
ATOM     29  C   UNL     1      -4.457  -9.165   8.839  0.00  0.00    +0.000 A 
ENDBRANCH  20  23
ENDBRANCH   5  20
ENDBRANCH  14  18
ENDBRANCH   9  14
TORSDOF 9
ENDMDL
MODEL 10
REMARK VINA RESULT:      -5.7     26.971     29.789
REMARK  Name = 38027218
REMARK  14 active torsions:
REMARK  status: ('A' for Active; 'I' for Inactive)
REMARK    1  A    between atoms: O_3  and  C_22
REMARK    2  A    between atoms: O_3  and  C_28
REMARK    3  A    between atoms: N_4  and  C_13
REMARK    4  A    between atoms: N_5  and  C_20
REMARK    5  A    between atoms: N_5  and  C_21
REMARK    6  A    between atoms: C_6  and  C_10
REMARK    7  A    between atoms: C_7  and  C_13
REMARK    8  A    between atoms: C_9  and  C_14
REMARK    9  A    between atoms: C_10  and  C_15
REMARK   10  A    between atoms: C_10  and  C_16
REMARK   11  A    between atoms: C_11  and  C_17
REMARK   12  A    between atoms: C_14  and  C_18
REMARK   13  A    between atoms: C_19  and  C_22
REMARK   14  A    between atoms: C_20  and  C_23
REMARK                            x       y       z     vdW  Elec       q    Type
REMARK                         _______ _______ _______ _____ _____    ______ ____
ROOT
ATOM      6  C   UNL     1      -5.981 -13.248  16.419  0.00  0.00    +0.000 C 
ATOM      7  C   UNL     1      -7.212 -13.294  17.359  0.00  0.00    +0.032 C 
ATOM      8  C   UNL     1      -4.707 -12.935  17.218  0.00  0.00    +0.012 C 
ATOM      9  C   UNL     1      -4.802 -11.592  17.965  0.00  0.00    +0.023 C 
ATOM     11  C   UNL     1      -6.117 -11.451  18.706  0.00  0.00    -0.073 C 
ATOM     12  C   UNL     1      -7.179 -12.230  18.430  0.00  0.00    -0.022 C 
ATOM     17  C   UNL     1      -6.170 -10.424  19.802  0.00  0.00    +0.039 C 
ENDROOT
BRANCH   6  10
ATOM     10  C   UNL     1      -5.804 -14.560  15.649  0.00  0.00    -0.013 C 
ATOM     15  C   UNL     1      -5.720 -14.290  14.150  0.00  0.00    +0.007 C 
ATOM     16  C   UNL     1      -4.560 -15.297  16.136  0.00  0.00    +0.007 C 
ENDBRANCH   6  10
BRANCH   7  13
ATOM     13  C   UNL     1      -8.519 -13.180  16.567  0.00  0.00    +0.112 C 
BRANCH  13   4
ATOM      2  O   UNL     1      -8.375 -11.489  14.225  0.00  0.00    -0.273 OA
ATOM      4  N   UNL     1      -8.930 -11.815  16.461  0.00  0.00    -0.313 N 
ATOM     19  C   UNL     1      -8.825 -11.070  15.287  0.00  0.00    +0.239 C 
ATOM     30  H   UNL     1      -9.373 -11.384  17.268  0.00  0.00    +0.149 HD
BRANCH  19  22
ATOM     22  C   UNL     1      -9.337  -9.656  15.459  0.00  0.00    +0.255 C 
BRANCH  22   3
ATOM      3  O   UNL     1      -8.723  -9.034  16.567  0.00  0.00    -0.374 OA
ATOM     28  C   UNL     1      -9.581  -8.076  17.181  0.00  0.00    +0.194 C 
ENDBRANCH  22   3
ENDBRANCH  19  22
ENDBRANCH  13   4
ENDBRANCH   7  13
BRANCH   9  14
ATOM     14  C   UNL     1      -4.580 -10.412  17.011  0.00  0.00    +0.103 C 
BRANCH  14  18
ATOM      1  O   UNL     1      -2.252 -10.764  16.564  0.00  0.00    -0.276 OA
ATOM      5  N   UNL     1      -3.667 -10.657  14.730  0.00  0.00    -0.300 N 
ATOM     18  C   UNL     1      -3.387 -10.627  16.100  0.00  0.00    +0.216 C 
ATOM     21  C   UNL     1      -5.016 -10.494  14.204  0.00  0.00    +0.132 C 
BRANCH   5  20
ATOM     20  C   UNL     1      -2.627 -10.855  13.722  0.00  0.00    +0.142 C 
BRANCH  20  23
ATOM     23  C   UNL     1      -2.563 -12.281  13.254  0.00  0.00    -0.030 A 
ATOM     24  C   UNL     1      -3.074 -12.627  12.003  0.00  0.00    +0.005 A 
ATOM     25  C   UNL     1      -1.994 -13.258  14.070  0.00  0.00    +0.005 A 
ATOM     26  C   UNL     1      -3.015 -13.952  11.568  0.00  0.00    +0.000 A 
ATOM     27  C   UNL     1      -1.936 -14.582  13.636  0.00  0.00    +0.000 A 
ATOM     29  C   UNL     1      -2.447 -14.929  12.384  0.00  0.00    +0.000 A 
ENDBRANCH  20  23
ENDBRANCH   5  20
ENDBRANCH  14  18
ENDBRANCH   9  14
TORSDOF 9
ENDMDL
