MODEL 1
REMARK VINA RESULT:      -6.5      0.000      0.000
REMARK  Name = 51136610
REMARK  10 active torsions:
REMARK  status: ('A' for Active; 'I' for Inactive)
REMARK    1  A    between atoms: O_3  and  C_19
REMARK    2  A    between atoms: O_5  and  C_26
REMARK    3  A    between atoms: O_5  and  C_31
REMARK    4  A    between atoms: O_6  and  C_27
REMARK    5  A    between atoms: O_6  and  C_32
REMARK    6  A    between atoms: C_9  and  C_13
REMARK    7  A    between atoms: C_10  and  C_15
REMARK    8  A    between atoms: C_13  and  C_16
REMARK    9  A    between atoms: C_15  and  C_19
REMARK   10  A    between atoms: C_17  and  C_23
REMARK                            x       y       z     vdW  Elec       q    Type
REMARK                         _______ _______ _______ _____ _____    ______ ____
ROOT
ATOM      2  O   UNL     1      -1.707  -9.963  12.335  0.00  0.00    -0.269 OA
ATOM      7  N   UNL     1      -3.010 -11.278  13.766  0.00  0.00    -0.297 N 
ATOM      9  C   UNL     1      -4.788 -11.462  15.493  0.00  0.00    +0.016 C 
ATOM     10  C   UNL     1      -3.679 -11.674  16.555  0.00  0.00    +0.006 C 
ATOM     11  C   UNL     1      -2.353 -11.023  16.127  0.00  0.00    +0.023 C 
ATOM     12  C   UNL     1      -4.285 -11.921  14.112  0.00  0.00    +0.112 C 
ATOM     14  C   UNL     1      -1.935 -11.487  14.735  0.00  0.00    +0.108 C 
ATOM     17  C   UNL     1      -2.771 -10.508  12.625  0.00  0.00    +0.253 C 
ENDROOT
BRANCH  17  23
ATOM      1  S   UNL     1      -4.075 -11.442  10.398  0.00  0.00    -0.092 S 
ATOM     23  C   UNL     1      -3.874 -10.320  11.677  0.00  0.00    +0.074 A 
ATOM     28  C   UNL     1      -4.830  -9.329  11.649  0.00  0.00    +0.021 A 
ATOM     29  C   UNL     1      -5.739  -9.492  10.564  0.00  0.00    +0.008 A 
ATOM     30  C   UNL     1      -5.443 -10.602   9.805  0.00  0.00    +0.046 A 
ENDBRANCH  17  23
BRANCH   9  13
ATOM     13  C   UNL     1      -5.311 -10.021  15.417  0.00  0.00    +0.061 C 
BRANCH  13  16
ATOM      8  N   UNL     1      -7.233  -9.917  13.983  0.00  0.00    -0.287 NA
ATOM     16  C   UNL     1      -6.804 -10.028  15.195  0.00  0.00    +0.044 C 
ATOM     18  C   UNL     1      -7.700 -10.155  16.373  0.00  0.00    +0.003 A 
ATOM     20  C   UNL     1      -9.036  -9.776  16.192  0.00  0.00    -0.033 A 
ATOM     21  C   UNL     1      -9.464  -9.261  14.849  0.00  0.00    +0.059 C 
ATOM     22  C   UNL     1      -8.682  -9.986  13.761  0.00  0.00    +0.146 C 
ATOM     24  C   UNL     1      -7.256 -10.613  17.614  0.00  0.00    +0.059 A 
ATOM     25  C   UNL     1      -9.922  -9.834  17.272  0.00  0.00    +0.053 A 
ATOM     26  C   UNL     1      -8.152 -10.683  18.682  0.00  0.00    +0.162 A 
ATOM     27  C   UNL     1      -9.479 -10.291  18.513  0.00  0.00    +0.162 A 
BRANCH  26   5
ATOM      5  O   UNL     1      -7.714 -11.132  19.892  0.00  0.00    -0.491 OA
ATOM     31  C   UNL     1      -7.642 -12.546  20.069  0.00  0.00    +0.277 C 
ENDBRANCH  26   5
BRANCH  27   6
ATOM      6  O   UNL     1     -10.356 -10.348  19.554  0.00  0.00    -0.491 OA
ATOM     32  C   UNL     1     -11.351 -11.369  19.507  0.00  0.00    +0.277 C 
ENDBRANCH  27   6
ENDBRANCH  13  16
ENDBRANCH   9  13
BRANCH  10  15
ATOM     15  C   UNL     1      -4.086 -11.200  17.951  0.00  0.00    +0.124 C 
BRANCH  15  19
ATOM      4  O   UNL     1      -3.332 -12.172  20.056  0.00  0.00    -0.251 OA
ATOM     19  C   UNL     1      -3.901 -12.281  18.980  0.00  0.00    +0.305 C 
BRANCH  19   3
ATOM      3  O   UNL     1      -4.470 -13.432  18.540  0.00  0.00    -0.481 OA
ATOM     33  H   UNL     1      -4.131 -13.694  17.657  0.00  0.00    +0.295 HD
ENDBRANCH  19   3
ENDBRANCH  15  19
ENDBRANCH  10  15
TORSDOF 8
ENDMDL
MODEL 2
REMARK VINA RESULT:      -6.4     27.488     29.910
REMARK  Name = 51136610
REMARK  10 active torsions:
REMARK  status: ('A' for Active; 'I' for Inactive)
REMARK    1  A    between atoms: O_3  and  C_19
REMARK    2  A    between atoms: O_5  and  C_26
REMARK    3  A    between atoms: O_5  and  C_31
REMARK    4  A    between atoms: O_6  and  C_27
REMARK    5  A    between atoms: O_6  and  C_32
REMARK    6  A    between atoms: C_9  and  C_13
REMARK    7  A    between atoms: C_10  and  C_15
REMARK    8  A    between atoms: C_13  and  C_16
REMARK    9  A    between atoms: C_15  and  C_19
REMARK   10  A    between atoms: C_17  and  C_23
REMARK                            x       y       z     vdW  Elec       q    Type
REMARK                         _______ _______ _______ _____ _____    ______ ____
ROOT
ATOM      2  O   UNL     1      18.317  11.836  23.597  0.00  0.00    -0.269 OA
ATOM      7  N   UNL     1      17.560  10.709  21.692  0.00  0.00    -0.297 N 
ATOM      9  C   UNL     1      16.070   9.017  20.646  0.00  0.00    +0.016 C 
ATOM     10  C   UNL     1      17.290   8.067  20.536  0.00  0.00    +0.006 C 
ATOM     11  C   UNL     1      18.344   8.374  21.614  0.00  0.00    +0.023 C 
ATOM     12  C   UNL     1      16.545  10.482  20.654  0.00  0.00    +0.112 C 
ATOM     14  C   UNL     1      18.738   9.849  21.596  0.00  0.00    +0.108 C 
ATOM     17  C   UNL     1      17.473  11.648  22.723  0.00  0.00    +0.253 C 
ENDROOT
BRANCH  17  23
ATOM      1  S   UNL     1      16.193  13.897  21.811  0.00  0.00    -0.092 S 
ATOM     23  C   UNL     1      16.275  12.493  22.787  0.00  0.00    +0.074 A 
ATOM     28  C   UNL     1      15.140  12.326  23.549  0.00  0.00    +0.021 A 
ATOM     29  C   UNL     1      14.191  13.365  23.330  0.00  0.00    +0.008 A 
ATOM     30  C   UNL     1      14.636  14.286  22.408  0.00  0.00    +0.046 A 
ENDBRANCH  17  23
BRANCH   9  13
ATOM     13  C   UNL     1      15.173   8.742  21.860  0.00  0.00    +0.061 C 
BRANCH  13  16
ATOM      8  N   UNL     1      13.223   9.995  22.490  0.00  0.00    -0.287 NA
ATOM     16  C   UNL     1      13.777   9.250  21.591  0.00  0.00    +0.044 C 
ATOM     18  C   UNL     1      13.110   8.868  20.321  0.00  0.00    +0.003 A 
ATOM     20  C   UNL     1      11.717   9.019  20.270  0.00  0.00    -0.033 A 
ATOM     21  C   UNL     1      11.003   9.531  21.485  0.00  0.00    +0.059 C 
ATOM     22  C   UNL     1      11.892  10.538  22.203  0.00  0.00    +0.146 C 
ATOM     24  C   UNL     1      13.808   8.369  19.221  0.00  0.00    +0.059 A 
ATOM     25  C   UNL     1      11.025   8.639  19.117  0.00  0.00    +0.053 A 
ATOM     26  C   UNL     1      13.109   8.008  18.068  0.00  0.00    +0.162 A 
ATOM     27  C   UNL     1      11.722   8.139  18.017  0.00  0.00    +0.162 A 
BRANCH  26   5
ATOM      5  O   UNL     1      13.796   7.522  16.996  0.00  0.00    -0.491 OA
ATOM     31  C   UNL     1      14.258   8.474  16.038  0.00  0.00    +0.277 C 
ENDBRANCH  26   5
BRANCH  27   6
ATOM      6  O   UNL     1      11.033   7.781  16.897  0.00  0.00    -0.491 OA
ATOM     32  C   UNL     1      10.607   8.834  16.034  0.00  0.00    +0.277 C 
ENDBRANCH  27   6
ENDBRANCH  13  16
ENDBRANCH   9  13
BRANCH  10  15
ATOM     15  C   UNL     1      16.904   6.588  20.566  0.00  0.00    +0.124 C 
BRANCH  15  19
ATOM      4  O   UNL     1      16.693   5.562  18.365  0.00  0.00    -0.251 OA
ATOM     19  C   UNL     1      17.374   5.867  19.333  0.00  0.00    +0.305 C 
BRANCH  19   3
ATOM      3  O   UNL     1      18.699   5.592  19.441  0.00  0.00    -0.481 OA
ATOM     33  H   UNL     1      19.251   6.263  18.984  0.00  0.00    +0.295 HD
ENDBRANCH  19   3
ENDBRANCH  15  19
ENDBRANCH  10  15
TORSDOF 8
ENDMDL
MODEL 3
REMARK VINA RESULT:      -6.4     27.568     30.185
REMARK  Name = 51136610
REMARK  10 active torsions:
REMARK  status: ('A' for Active; 'I' for Inactive)
REMARK    1  A    between atoms: O_3  and  C_19
REMARK    2  A    between atoms: O_5  and  C_26
REMARK    3  A    between atoms: O_5  and  C_31
REMARK    4  A    between atoms: O_6  and  C_27
REMARK    5  A    between atoms: O_6  and  C_32
REMARK    6  A    between atoms: C_9  and  C_13
REMARK    7  A    between atoms: C_10  and  C_15
REMARK    8  A    between atoms: C_13  and  C_16
REMARK    9  A    between atoms: C_15  and  C_19
REMARK   10  A    between atoms: C_17  and  C_23
REMARK                            x       y       z     vdW  Elec       q    Type
REMARK                         _______ _______ _______ _____ _____    ______ ____
ROOT
ATOM      2  O   UNL     1      10.298  11.859  24.169  0.00  0.00    -0.269 OA
ATOM      7  N   UNL     1      11.809  10.474  23.042  0.00  0.00    -0.297 N 
ATOM      9  C   UNL     1      13.063   9.892  20.976  0.00  0.00    +0.016 C 
ATOM     10  C   UNL     1      12.059   8.734  20.740  0.00  0.00    +0.006 C 
ATOM     11  C   UNL     1      10.695   9.028  21.386  0.00  0.00    +0.023 C 
ATOM     12  C   UNL     1      13.142  10.218  22.479  0.00  0.00    +0.112 C 
ATOM     14  C   UNL     1      10.848   9.386  22.861  0.00  0.00    +0.108 C 
ATOM     17  C   UNL     1      11.414  11.639  23.702  0.00  0.00    +0.253 C 
ENDROOT
BRANCH  17  23
ATOM      1  S   UNL     1      13.309  12.797  25.315  0.00  0.00    -0.092 S 
ATOM     23  C   UNL     1      12.406  12.709  23.863  0.00  0.00    +0.074 A 
ATOM     28  C   UNL     1      12.745  13.711  22.981  0.00  0.00    +0.021 A 
ATOM     29  C   UNL     1      13.761  14.563  23.504  0.00  0.00    +0.008 A 
ATOM     30  C   UNL     1      14.158  14.179  24.765  0.00  0.00    +0.046 A 
ENDBRANCH  17  23
BRANCH   9  13
ATOM     13  C   UNL     1      12.751  11.161  20.172  0.00  0.00    +0.061 C 
BRANCH  13  16
ATOM      8  N   UNL     1      14.870  12.287  20.251  0.00  0.00    -0.287 NA
ATOM     16  C   UNL     1      14.009  11.671  19.512  0.00  0.00    +0.044 C 
ATOM     18  C   UNL     1      14.193  11.448  18.055  0.00  0.00    +0.003 A 
ATOM     20  C   UNL     1      15.147  12.246  17.410  0.00  0.00    -0.033 A 
ATOM     21  C   UNL     1      15.896  13.266  18.215  0.00  0.00    +0.059 C 
ATOM     22  C   UNL     1      16.120  12.729  19.623  0.00  0.00    +0.146 C 
ATOM     24  C   UNL     1      13.455  10.506  17.336  0.00  0.00    +0.059 A 
ATOM     25  C   UNL     1      15.339  12.113  16.032  0.00  0.00    +0.053 A 
ATOM     26  C   UNL     1      13.666  10.370  15.963  0.00  0.00    +0.162 A 
ATOM     27  C   UNL     1      14.601  11.173  15.312  0.00  0.00    +0.162 A 
BRANCH  26   5
ATOM      5  O   UNL     1      12.944   9.448  15.266  0.00  0.00    -0.491 OA
ATOM     31  C   UNL     1      11.590   9.246  15.669  0.00  0.00    +0.277 C 
ENDBRANCH  26   5
BRANCH  27   6
ATOM      6  O   UNL     1      14.805  11.050  13.971  0.00  0.00    -0.491 OA
ATOM     32  C   UNL     1      14.780  12.249  13.199  0.00  0.00    +0.277 C 
ENDBRANCH  27   6
ENDBRANCH  13  16
ENDBRANCH   9  13
BRANCH  10  15
ATOM     15  C   UNL     1      11.890   8.378  19.262  0.00  0.00    +0.124 C 
BRANCH  15  19
ATOM      4  O   UNL     1      13.702   7.120  18.226  0.00  0.00    -0.251 OA
ATOM     19  C   UNL     1      12.679   7.153  18.893  0.00  0.00    +0.305 C 
BRANCH  19   3
ATOM      3  O   UNL     1      12.084   6.051  19.418  0.00  0.00    -0.481 OA
ATOM     33  H   UNL     1      11.447   6.282  20.128  0.00  0.00    +0.295 HD
ENDBRANCH  19   3
ENDBRANCH  15  19
ENDBRANCH  10  15
TORSDOF 8
ENDMDL
MODEL 4
REMARK VINA RESULT:      -6.3      2.719      5.949
REMARK  Name = 51136610
REMARK  10 active torsions:
REMARK  status: ('A' for Active; 'I' for Inactive)
REMARK    1  A    between atoms: O_3  and  C_19
REMARK    2  A    between atoms: O_5  and  C_26
REMARK    3  A    between atoms: O_5  and  C_31
REMARK    4  A    between atoms: O_6  and  C_27
REMARK    5  A    between atoms: O_6  and  C_32
REMARK    6  A    between atoms: C_9  and  C_13
REMARK    7  A    between atoms: C_10  and  C_15
REMARK    8  A    between atoms: C_13  and  C_16
REMARK    9  A    between atoms: C_15  and  C_19
REMARK   10  A    between atoms: C_17  and  C_23
REMARK                            x       y       z     vdW  Elec       q    Type
REMARK                         _______ _______ _______ _____ _____    ______ ____
ROOT
ATOM      2  O   UNL     1      -5.759 -14.769  11.347  0.00  0.00    -0.269 OA
ATOM      7  N   UNL     1      -3.937 -13.305  11.273  0.00  0.00    -0.297 N 
ATOM      9  C   UNL     1      -2.914 -11.114  11.850  0.00  0.00    +0.016 C 
ATOM     10  C   UNL     1      -3.139 -10.667  10.383  0.00  0.00    +0.006 C 
ATOM     11  C   UNL     1      -4.317 -11.416   9.738  0.00  0.00    +0.023 C 
ATOM     12  C   UNL     1      -2.791 -12.647  11.918  0.00  0.00    +0.112 C 
ATOM     14  C   UNL     1      -4.155 -12.927   9.877  0.00  0.00    +0.108 C 
ATOM     17  C   UNL     1      -4.796 -14.222  11.881  0.00  0.00    +0.253 C 
ENDROOT
BRANCH  17  23
ATOM      1  S   UNL     1      -3.620 -15.972  13.637  0.00  0.00    -0.092 S 
ATOM     23  C   UNL     1      -4.546 -14.576  13.283  0.00  0.00    +0.074 A 
ATOM     28  C   UNL     1      -4.960 -13.927  14.425  0.00  0.00    +0.021 A 
ATOM     29  C   UNL     1      -4.511 -14.584  15.607  0.00  0.00    +0.008 A 
ATOM     30  C   UNL     1      -3.771 -15.710  15.323  0.00  0.00    +0.046 A 
ENDBRANCH  17  23
BRANCH   9  13
ATOM     13  C   UNL     1      -3.994 -10.623  12.823  0.00  0.00    +0.061 C 
BRANCH  13  16
ATOM      8  N   UNL     1      -2.133 -10.479  14.333  0.00  0.00    -0.287 NA
ATOM     16  C   UNL     1      -3.419 -10.511  14.214  0.00  0.00    +0.044 C 
ATOM     18  C   UNL     1      -4.349 -10.449  15.370  0.00  0.00    +0.003 A 
ATOM     20  C   UNL     1      -3.808 -10.734  16.631  0.00  0.00    -0.033 A 
ATOM     21  C   UNL     1      -2.355 -11.091  16.727  0.00  0.00    +0.059 C 
ATOM     22  C   UNL     1      -1.575 -10.309  15.678  0.00  0.00    +0.146 C 
ATOM     24  C   UNL     1      -5.704 -10.140  15.234  0.00  0.00    +0.059 A 
ATOM     25  C   UNL     1      -4.640 -10.732  17.754  0.00  0.00    +0.053 A 
ATOM     26  C   UNL     1      -6.523 -10.125  16.364  0.00  0.00    +0.162 A 
ATOM     27  C   UNL     1      -5.994 -10.424  17.619  0.00  0.00    +0.162 A 
BRANCH  26   5
ATOM      5  O   UNL     1      -7.844  -9.820  16.226  0.00  0.00    -0.491 OA
ATOM     31  C   UNL     1      -8.707 -10.869  15.789  0.00  0.00    +0.277 C 
ENDBRANCH  26   5
BRANCH  27   6
ATOM      6  O   UNL     1      -6.791 -10.419  18.725  0.00  0.00    -0.491 OA
ATOM     32  C   UNL     1      -7.052 -11.678  19.340  0.00  0.00    +0.277 C 
ENDBRANCH  27   6
ENDBRANCH  13  16
ENDBRANCH   9  13
BRANCH  10  15
ATOM     15  C   UNL     1      -3.315  -9.155  10.235  0.00  0.00    +0.124 C 
BRANCH  15  19
ATOM      4  O   UNL     1      -5.706  -8.698  10.364  0.00  0.00    -0.251 OA
ATOM     19  C   UNL     1      -4.680  -8.805   9.710  0.00  0.00    +0.305 C 
BRANCH  19   3
ATOM      3  O   UNL     1      -4.618  -8.618   8.367  0.00  0.00    -0.481 OA
ATOM     33  H   UNL     1      -5.505  -8.673   7.948  0.00  0.00    +0.295 HD
ENDBRANCH  19   3
ENDBRANCH  15  19
ENDBRANCH  10  15
TORSDOF 8
ENDMDL
MODEL 5
REMARK VINA RESULT:      -6.2     27.820     30.332
REMARK  Name = 51136610
REMARK  10 active torsions:
REMARK  status: ('A' for Active; 'I' for Inactive)
REMARK    1  A    between atoms: O_3  and  C_19
REMARK    2  A    between atoms: O_5  and  C_26
REMARK    3  A    between atoms: O_5  and  C_31
REMARK    4  A    between atoms: O_6  and  C_27
REMARK    5  A    between atoms: O_6  and  C_32
REMARK    6  A    between atoms: C_9  and  C_13
REMARK    7  A    between atoms: C_10  and  C_15
REMARK    8  A    between atoms: C_13  and  C_16
REMARK    9  A    between atoms: C_15  and  C_19
REMARK   10  A    between atoms: C_17  and  C_23
REMARK                            x       y       z     vdW  Elec       q    Type
REMARK                         _______ _______ _______ _____ _____    ______ ____
ROOT
ATOM      2  O   UNL     1      11.589   6.304  20.666  0.00  0.00    -0.269 OA
ATOM      7  N   UNL     1      11.503   8.641  20.657  0.00  0.00    -0.297 N 
ATOM      9  C   UNL     1      12.489  10.832  21.294  0.00  0.00    +0.016 C 
ATOM     10  C   UNL     1      11.417  10.948  22.407  0.00  0.00    +0.006 C 
ATOM     11  C   UNL     1      10.930   9.564  22.869  0.00  0.00    +0.023 C 
ATOM     12  C   UNL     1      11.966   9.941  20.152  0.00  0.00    +0.112 C 
ATOM     14  C   UNL     1      10.467   8.718  21.687  0.00  0.00    +0.108 C 
ATOM     17  C   UNL     1      11.970   7.393  20.241  0.00  0.00    +0.253 C 
ENDROOT
BRANCH  17  23
ATOM      1  S   UNL     1      14.629   7.037  19.664  0.00  0.00    -0.092 S 
ATOM     23  C   UNL     1      13.011   7.357  19.206  0.00  0.00    +0.074 A 
ATOM     28  C   UNL     1      12.885   7.549  17.849  0.00  0.00    +0.021 A 
ATOM     29  C   UNL     1      14.134   7.432  17.174  0.00  0.00    +0.008 A 
ATOM     30  C   UNL     1      15.166   7.155  18.042  0.00  0.00    +0.046 A 
ENDBRANCH  17  23
BRANCH   9  13
ATOM     13  C   UNL     1      13.848  10.319  21.788  0.00  0.00    +0.061 C 
BRANCH  13  16
ATOM      8  N   UNL     1      14.545  12.588  21.430  0.00  0.00    -0.287 NA
ATOM     16  C   UNL     1      14.914  11.354  21.525  0.00  0.00    +0.044 C 
ATOM     18  C   UNL     1      16.324  10.909  21.384  0.00  0.00    +0.003 A 
ATOM     20  C   UNL     1      17.210  11.804  20.770  0.00  0.00    -0.033 A 
ATOM     21  C   UNL     1      16.682  13.124  20.290  0.00  0.00    +0.059 C 
ATOM     22  C   UNL     1      15.587  13.601  21.235  0.00  0.00    +0.146 C 
ATOM     24  C   UNL     1      16.769   9.660  21.819  0.00  0.00    +0.059 A 
ATOM     25  C   UNL     1      18.541  11.429  20.570  0.00  0.00    +0.053 A 
ATOM     26  C   UNL     1      18.105   9.301  21.630  0.00  0.00    +0.162 A 
ATOM     27  C   UNL     1      18.987  10.181  21.004  0.00  0.00    +0.162 A 
BRANCH  26   5
ATOM      5  O   UNL     1      18.535   8.081  22.058  0.00  0.00    -0.491 OA
ATOM     31  C   UNL     1      18.245   6.963  21.221  0.00  0.00    +0.277 C 
ENDBRANCH  26   5
BRANCH  27   6
ATOM      6  O   UNL     1      20.290   9.833  20.809  0.00  0.00    -0.491 OA
ATOM     32  C   UNL     1      21.245  10.358  21.729  0.00  0.00    +0.277 C 
ENDBRANCH  27   6
ENDBRANCH  13  16
ENDBRANCH   9  13
BRANCH  10  15
ATOM     15  C   UNL     1      11.879  11.783  23.601  0.00  0.00    +0.124 C 
BRANCH  15  19
ATOM      4  O   UNL     1      10.736  11.567  25.743  0.00  0.00    -0.251 OA
ATOM     19  C   UNL     1      10.770  11.987  24.597  0.00  0.00    +0.305 C 
BRANCH  19   3
ATOM      3  O   UNL     1       9.780  12.726  24.033  0.00  0.00    -0.481 OA
ATOM     33  H   UNL     1       9.460  12.329  23.194  0.00  0.00    +0.295 HD
ENDBRANCH  19   3
ENDBRANCH  15  19
ENDBRANCH  10  15
TORSDOF 8
ENDMDL
MODEL 6
REMARK VINA RESULT:      -6.1      2.277      4.356
REMARK  Name = 51136610
REMARK  10 active torsions:
REMARK  status: ('A' for Active; 'I' for Inactive)
REMARK    1  A    between atoms: O_3  and  C_19
REMARK    2  A    between atoms: O_5  and  C_26
REMARK    3  A    between atoms: O_5  and  C_31
REMARK    4  A    between atoms: O_6  and  C_27
REMARK    5  A    between atoms: O_6  and  C_32
REMARK    6  A    between atoms: C_9  and  C_13
REMARK    7  A    between atoms: C_10  and  C_15
REMARK    8  A    between atoms: C_13  and  C_16
REMARK    9  A    between atoms: C_15  and  C_19
REMARK   10  A    between atoms: C_17  and  C_23
REMARK                            x       y       z     vdW  Elec       q    Type
REMARK                         _______ _______ _______ _____ _____    ______ ____
ROOT
ATOM      2  O   UNL     1      -7.766  -9.810  11.203  0.00  0.00    -0.269 OA
ATOM      7  N   UNL     1      -6.184 -11.148  12.291  0.00  0.00    -0.297 N 
ATOM      9  C   UNL     1      -4.693 -11.563  14.235  0.00  0.00    +0.016 C 
ATOM     10  C   UNL     1      -3.493 -11.122  13.359  0.00  0.00    +0.006 C 
ATOM     11  C   UNL     1      -3.930 -10.153  12.247  0.00  0.00    +0.023 C 
ATOM     12  C   UNL     1      -5.821 -12.109  13.342  0.00  0.00    +0.112 C 
ATOM     14  C   UNL     1      -5.078 -10.736  11.428  0.00  0.00    +0.108 C 
ATOM     17  C   UNL     1      -7.459 -10.620  12.077  0.00  0.00    +0.253 C 
ENDROOT
BRANCH  17  23
ATOM      1  S   UNL     1      -9.459 -12.441  12.543  0.00  0.00    -0.092 S 
ATOM     23  C   UNL     1      -8.544 -11.056  12.964  0.00  0.00    +0.074 A 
ATOM     28  C   UNL     1      -8.967 -10.498  14.150  0.00  0.00    +0.021 A 
ATOM     29  C   UNL     1     -10.057 -11.216  14.721  0.00  0.00    +0.008 A 
ATOM     30  C   UNL     1     -10.424 -12.296  13.950  0.00  0.00    +0.046 A 
ENDBRANCH  17  23
BRANCH   9  13
ATOM     13  C   UNL     1      -5.231 -10.460  15.157  0.00  0.00    +0.061 C 
BRANCH  13  16
ATOM      8  N   UNL     1      -3.884 -11.250  16.982  0.00  0.00    -0.287 NA
ATOM     16  C   UNL     1      -5.057 -10.869  16.600  0.00  0.00    +0.044 C 
ATOM     18  C   UNL     1      -6.236 -10.820  17.502  0.00  0.00    +0.003 A 
ATOM     20  C   UNL     1      -6.148 -11.552  18.694  0.00  0.00    -0.033 A 
ATOM     21  C   UNL     1      -4.899 -12.336  18.967  0.00  0.00    +0.059 C 
ATOM     22  C   UNL     1      -3.701 -11.588  18.397  0.00  0.00    +0.146 C 
ATOM     24  C   UNL     1      -7.392 -10.100  17.198  0.00  0.00    +0.059 A 
ATOM     25  C   UNL     1      -7.239 -11.581  19.568  0.00  0.00    +0.053 A 
ATOM     26  C   UNL     1      -8.470 -10.121  18.085  0.00  0.00    +0.162 A 
ATOM     27  C   UNL     1      -8.395 -10.862  19.264  0.00  0.00    +0.162 A 
BRANCH  26   5
ATOM      5  O   UNL     1      -9.596  -9.415  17.783  0.00  0.00    -0.491 OA
ATOM     31  C   UNL     1      -9.420  -8.187  17.078  0.00  0.00    +0.277 C 
ENDBRANCH  26   5
BRANCH  27   6
ATOM      6  O   UNL     1      -9.447 -10.893  20.129  0.00  0.00    -0.491 OA
ATOM     32  C   UNL     1     -10.259 -12.066  20.120  0.00  0.00    +0.277 C 
ENDBRANCH  27   6
ENDBRANCH  13  16
ENDBRANCH   9  13
BRANCH  10  15
ATOM     15  C   UNL     1      -2.343 -10.524  14.172  0.00  0.00    +0.124 C 
BRANCH  15  19
ATOM      4  O   UNL     1      -1.164 -12.655  14.271  0.00  0.00    -0.251 OA
ATOM     19  C   UNL     1      -1.483 -11.594  14.786  0.00  0.00    +0.305 C 
BRANCH  19   3
ATOM      3  O   UNL     1      -1.095 -11.211  16.029  0.00  0.00    -0.481 OA
ATOM     33  H   UNL     1      -0.555 -10.392  16.008  0.00  0.00    +0.295 HD
ENDBRANCH  19   3
ENDBRANCH  15  19
ENDBRANCH  10  15
TORSDOF 8
ENDMDL
MODEL 7
REMARK VINA RESULT:      -6.0      2.715      6.730
REMARK  Name = 51136610
REMARK  10 active torsions:
REMARK  status: ('A' for Active; 'I' for Inactive)
REMARK    1  A    between atoms: O_3  and  C_19
REMARK    2  A    between atoms: O_5  and  C_26
REMARK    3  A    between atoms: O_5  and  C_31
REMARK    4  A    between atoms: O_6  and  C_27
REMARK    5  A    between atoms: O_6  and  C_32
REMARK    6  A    between atoms: C_9  and  C_13
REMARK    7  A    between atoms: C_10  and  C_15
REMARK    8  A    between atoms: C_13  and  C_16
REMARK    9  A    between atoms: C_15  and  C_19
REMARK   10  A    between atoms: C_17  and  C_23
REMARK                            x       y       z     vdW  Elec       q    Type
REMARK                         _______ _______ _______ _____ _____    ______ ____
ROOT
ATOM      2  O   UNL     1      -7.997 -11.549  18.559  0.00  0.00    -0.269 OA
ATOM      7  N   UNL     1      -6.319 -10.424  17.380  0.00  0.00    -0.297 N 
ATOM      9  C   UNL     1      -4.673 -10.359  15.519  0.00  0.00    +0.016 C 
ATOM     10  C   UNL     1      -3.551 -10.633  16.553  0.00  0.00    +0.006 C 
ATOM     11  C   UNL     1      -4.087 -11.388  17.781  0.00  0.00    +0.023 C 
ATOM     12  C   UNL     1      -5.862  -9.665  16.207  0.00  0.00    +0.112 C 
ATOM     14  C   UNL     1      -5.289 -10.671  18.389  0.00  0.00    +0.108 C 
ATOM     17  C   UNL     1      -7.613 -10.908  17.582  0.00  0.00    +0.253 C 
ENDROOT
BRANCH  17  23
ATOM      1  S   UNL     1      -9.513  -9.183  16.612  0.00  0.00    -0.092 S 
ATOM     23  C   UNL     1      -8.618 -10.641  16.547  0.00  0.00    +0.074 A 
ATOM     28  C   UNL     1      -8.977 -11.421  15.470  0.00  0.00    +0.021 A 
ATOM     29  C   UNL     1     -10.000 -10.813  14.687  0.00  0.00    +0.008 A 
ATOM     30  C   UNL     1     -10.384  -9.592  15.196  0.00  0.00    +0.046 A 
ENDBRANCH  17  23
BRANCH   9  13
ATOM     13  C   UNL     1      -5.149 -11.610  14.769  0.00  0.00    +0.061 C 
BRANCH  13  16
ATOM      8  N   UNL     1      -3.490 -12.413  13.230  0.00  0.00    -0.287 NA
ATOM     16  C   UNL     1      -4.522 -11.655  13.396  0.00  0.00    +0.044 C 
ATOM     18  C   UNL     1      -5.112 -10.827  12.314  0.00  0.00    +0.003 A 
ATOM     20  C   UNL     1      -4.307 -10.588  11.193  0.00  0.00    -0.033 A 
ATOM     21  C   UNL     1      -2.920 -11.159  11.166  0.00  0.00    +0.059 C 
ATOM     22  C   UNL     1      -2.917 -12.503  11.883  0.00  0.00    +0.146 C 
ATOM     24  C   UNL     1      -6.398 -10.289  12.390  0.00  0.00    +0.059 A 
ATOM     25  C   UNL     1      -4.789  -9.782  10.157  0.00  0.00    +0.053 A 
ATOM     26  C   UNL     1      -6.877  -9.500  11.342  0.00  0.00    +0.162 A 
ATOM     27  C   UNL     1      -6.073  -9.244  10.232  0.00  0.00    +0.162 A 
BRANCH  26   5
ATOM      5  O   UNL     1      -8.133  -8.979  11.420  0.00  0.00    -0.491 OA
ATOM     31  C   UNL     1      -9.221  -9.880  11.218  0.00  0.00    +0.277 C 
ENDBRANCH  26   5
BRANCH  27   6
ATOM      6  O   UNL     1      -6.532  -8.467   9.210  0.00  0.00    -0.491 OA
ATOM     32  C   UNL     1      -7.038  -9.143   8.060  0.00  0.00    +0.277 C 
ENDBRANCH  27   6
ENDBRANCH  13  16
ENDBRANCH   9  13
BRANCH  10  15
ATOM     15  C   UNL     1      -2.348 -11.363  15.955  0.00  0.00    +0.124 C 
BRANCH  15  19
ATOM      4  O   UNL     1      -1.457  -9.872  14.244  0.00  0.00    -0.251 OA
ATOM     19  C   UNL     1      -1.366 -10.403  15.341  0.00  0.00    +0.305 C 
BRANCH  19   3
ATOM      3  O   UNL     1      -0.332 -10.198  16.196  0.00  0.00    -0.481 OA
ATOM     33  H   UNL     1      -0.465 -10.664  17.050  0.00  0.00    +0.295 HD
ENDBRANCH  19   3
ENDBRANCH  15  19
ENDBRANCH  10  15
TORSDOF 8
ENDMDL
MODEL 8
REMARK VINA RESULT:      -5.9      2.552      6.904
REMARK  Name = 51136610
REMARK  10 active torsions:
REMARK  status: ('A' for Active; 'I' for Inactive)
REMARK    1  A    between atoms: O_3  and  C_19
REMARK    2  A    between atoms: O_5  and  C_26
REMARK    3  A    between atoms: O_5  and  C_31
REMARK    4  A    between atoms: O_6  and  C_27
REMARK    5  A    between atoms: O_6  and  C_32
REMARK    6  A    between atoms: C_9  and  C_13
REMARK    7  A    between atoms: C_10  and  C_15
REMARK    8  A    between atoms: C_13  and  C_16
REMARK    9  A    between atoms: C_15  and  C_19
REMARK   10  A    between atoms: C_17  and  C_23
REMARK                            x       y       z     vdW  Elec       q    Type
REMARK                         _______ _______ _______ _____ _____    ______ ____
ROOT
ATOM      2  O   UNL     1      -7.945 -11.428  19.659  0.00  0.00    -0.269 OA
ATOM      7  N   UNL     1      -6.593 -10.298  18.121  0.00  0.00    -0.297 N 
ATOM      9  C   UNL     1      -5.521 -10.179  15.882  0.00  0.00    +0.016 C 
ATOM     10  C   UNL     1      -4.176 -10.569  16.547  0.00  0.00    +0.006 C 
ATOM     11  C   UNL     1      -4.397 -11.380  17.835  0.00  0.00    +0.023 C 
ATOM     12  C   UNL     1      -6.432  -9.483  16.908  0.00  0.00    +0.112 C 
ATOM     14  C   UNL     1      -5.342 -10.655  18.789  0.00  0.00    +0.108 C 
ATOM     17  C   UNL     1      -7.807 -10.740  18.649  0.00  0.00    +0.253 C 
ENDROOT
BRANCH  17  23
ATOM      1  S   UNL     1      -9.934 -11.569  17.125  0.00  0.00    -0.092 S 
ATOM     23  C   UNL     1      -9.041 -10.363  17.949  0.00  0.00    +0.074 A 
ATOM     28  C   UNL     1      -9.630  -9.122  17.845  0.00  0.00    +0.021 A 
ATOM     29  C   UNL     1     -10.830  -9.161  17.078  0.00  0.00    +0.008 A 
ATOM     30  C   UNL     1     -11.112 -10.431  16.626  0.00  0.00    +0.046 A 
ENDBRANCH  17  23
BRANCH   9  13
ATOM     13  C   UNL     1      -6.257 -11.357  15.229  0.00  0.00    +0.061 C 
BRANCH  13  16
ATOM      8  N   UNL     1      -8.263 -10.469  14.253  0.00  0.00    -0.287 NA
ATOM     16  C   UNL     1      -7.054 -10.870  14.043  0.00  0.00    +0.044 C 
ATOM     18  C   UNL     1      -6.416 -10.880  12.702  0.00  0.00    +0.003 A 
ATOM     20  C   UNL     1      -7.273 -10.799  11.596  0.00  0.00    -0.033 A 
ATOM     21  C   UNL     1      -8.752 -10.725  11.834  0.00  0.00    +0.059 C 
ATOM     22  C   UNL     1      -9.016  -9.939  13.111  0.00  0.00    +0.146 C 
ATOM     24  C   UNL     1      -5.035 -10.978  12.522  0.00  0.00    +0.059 A 
ATOM     25  C   UNL     1      -6.738 -10.845  10.305  0.00  0.00    +0.053 A 
ATOM     26  C   UNL     1      -4.510 -11.006  11.229  0.00  0.00    +0.162 A 
ATOM     27  C   UNL     1      -5.359 -10.944  10.124  0.00  0.00    +0.162 A 
BRANCH  26   5
ATOM      5  O   UNL     1      -3.161 -11.101  11.058  0.00  0.00    -0.491 OA
ATOM     31  C   UNL     1      -2.420  -9.882  11.078  0.00  0.00    +0.277 C 
ENDBRANCH  26   5
BRANCH  27   6
ATOM      6  O   UNL     1      -4.852 -10.979   8.859  0.00  0.00    -0.491 OA
ATOM     32  C   UNL     1      -4.963  -9.787   8.084  0.00  0.00    +0.277 C 
ENDBRANCH  27   6
ENDBRANCH  13  16
ENDBRANCH   9  13
BRANCH  10  15
ATOM     15  C   UNL     1      -3.229 -11.307  15.601  0.00  0.00    +0.124 C 
BRANCH  15  19
ATOM      4  O   UNL     1      -1.514  -9.872  14.633  0.00  0.00    -0.251 OA
ATOM     19  C   UNL     1      -1.890 -10.628  15.515  0.00  0.00    +0.305 C 
BRANCH  19   3
ATOM      3  O   UNL     1      -1.131 -10.978  16.584  0.00  0.00    -0.481 OA
ATOM     33  H   UNL     1      -1.643 -11.494  17.244  0.00  0.00    +0.295 HD
ENDBRANCH  19   3
ENDBRANCH  15  19
ENDBRANCH  10  15
TORSDOF 8
ENDMDL
MODEL 9
REMARK VINA RESULT:      -5.9      2.388      5.873
REMARK  Name = 51136610
REMARK  10 active torsions:
REMARK  status: ('A' for Active; 'I' for Inactive)
REMARK    1  A    between atoms: O_3  and  C_19
REMARK    2  A    between atoms: O_5  and  C_26
REMARK    3  A    between atoms: O_5  and  C_31
REMARK    4  A    between atoms: O_6  and  C_27
REMARK    5  A    between atoms: O_6  and  C_32
REMARK    6  A    between atoms: C_9  and  C_13
REMARK    7  A    between atoms: C_10  and  C_15
REMARK    8  A    between atoms: C_13  and  C_16
REMARK    9  A    between atoms: C_15  and  C_19
REMARK   10  A    between atoms: C_17  and  C_23
REMARK                            x       y       z     vdW  Elec       q    Type
REMARK                         _______ _______ _______ _____ _____    ______ ____
ROOT
ATOM      2  O   UNL     1      -1.678 -11.432  15.405  0.00  0.00    -0.269 OA
ATOM      7  N   UNL     1      -3.938 -11.830  15.861  0.00  0.00    -0.297 N 
ATOM      9  C   UNL     1      -6.320 -11.148  15.676  0.00  0.00    +0.016 C 
ATOM     10  C   UNL     1      -6.261 -10.681  17.152  0.00  0.00    +0.006 C 
ATOM     11  C   UNL     1      -4.832 -10.291  17.565  0.00  0.00    +0.023 C 
ATOM     12  C   UNL     1      -5.278 -12.255  15.434  0.00  0.00    +0.112 C 
ATOM     14  C   UNL     1      -3.844 -11.413  17.260  0.00  0.00    +0.108 C 
ATOM     17  C   UNL     1      -2.799 -11.793  15.053  0.00  0.00    +0.253 C 
ENDROOT
BRANCH  17  23
ATOM      1  S   UNL     1      -2.615 -13.851  13.246  0.00  0.00    -0.092 S 
ATOM     23  C   UNL     1      -2.933 -12.218  13.655  0.00  0.00    +0.074 A 
ATOM     28  C   UNL     1      -3.296 -11.471  12.556  0.00  0.00    +0.021 A 
ATOM     29  C   UNL     1      -3.312 -12.249  11.362  0.00  0.00    +0.008 A 
ATOM     30  C   UNL     1      -2.962 -13.560  11.595  0.00  0.00    +0.046 A 
ENDBRANCH  17  23
BRANCH   9  13
ATOM     13  C   UNL     1      -6.140 -10.015  14.656  0.00  0.00    +0.061 C 
BRANCH  13  16
ATOM      8  N   UNL     1      -8.515 -10.134  14.327  0.00  0.00    -0.287 NA
ATOM     16  C   UNL     1      -7.366  -9.913  13.781  0.00  0.00    +0.044 C 
ATOM     18  C   UNL     1      -7.193  -9.573  12.346  0.00  0.00    +0.003 A 
ATOM     20  C   UNL     1      -8.269  -9.861  11.495  0.00  0.00    -0.033 A 
ATOM     21  C   UNL     1      -9.496 -10.497  12.077  0.00  0.00    +0.059 C 
ATOM     22  C   UNL     1      -9.711  -9.975  13.492  0.00  0.00    +0.146 C 
ATOM     24  C   UNL     1      -6.022  -9.007  11.839  0.00  0.00    +0.059 A 
ATOM     25  C   UNL     1      -8.154  -9.602  10.127  0.00  0.00    +0.053 A 
ATOM     26  C   UNL     1      -5.924  -8.737  10.473  0.00  0.00    +0.162 A 
ATOM     27  C   UNL     1      -6.984  -9.037   9.619  0.00  0.00    +0.162 A 
BRANCH  26   5
ATOM      5  O   UNL     1      -4.779  -8.182   9.983  0.00  0.00    -0.491 OA
ATOM     31  C   UNL     1      -3.733  -9.079   9.613  0.00  0.00    +0.277 C 
ENDBRANCH  26   5
BRANCH  27   6
ATOM      6  O   UNL     1      -6.891  -8.783   8.283  0.00  0.00    -0.491 OA
ATOM     32  C   UNL     1      -7.832  -7.865   7.731  0.00  0.00    +0.277 C 
ENDBRANCH  27   6
ENDBRANCH  13  16
ENDBRANCH   9  13
BRANCH  10  15
ATOM     15  C   UNL     1      -7.240  -9.547  17.464  0.00  0.00    +0.124 C 
BRANCH  15  19
ATOM      4  O   UNL     1      -8.778 -10.765  18.910  0.00  0.00    -0.251 OA
ATOM     19  C   UNL     1      -8.571 -10.075  17.924  0.00  0.00    +0.305 C 
BRANCH  19   3
ATOM      3  O   UNL     1      -9.544  -9.667  17.070  0.00  0.00    -0.481 OA
ATOM     33  H   UNL     1      -9.493  -8.703  16.889  0.00  0.00    +0.295 HD
ENDBRANCH  19   3
ENDBRANCH  15  19
ENDBRANCH  10  15
TORSDOF 8
ENDMDL
MODEL 10
REMARK VINA RESULT:      -5.8     24.566     27.854
REMARK  Name = 51136610
REMARK  10 active torsions:
REMARK  status: ('A' for Active; 'I' for Inactive)
REMARK    1  A    between atoms: O_3  and  C_19
REMARK    2  A    between atoms: O_5  and  C_26
REMARK    3  A    between atoms: O_5  and  C_31
REMARK    4  A    between atoms: O_6  and  C_27
REMARK    5  A    between atoms: O_6  and  C_32
REMARK    6  A    between atoms: C_9  and  C_13
REMARK    7  A    between atoms: C_10  and  C_15
REMARK    8  A    between atoms: C_13  and  C_16
REMARK    9  A    between atoms: C_15  and  C_19
REMARK   10  A    between atoms: C_17  and  C_23
REMARK                            x       y       z     vdW  Elec       q    Type
REMARK                         _______ _______ _______ _____ _____    ______ ____
ROOT
ATOM      2  O   UNL     1       9.734   6.487   2.972  0.00  0.00    -0.269 OA
ATOM      7  N   UNL     1       8.902   6.663   5.152  0.00  0.00    -0.297 N 
ATOM      9  C   UNL     1       9.246   7.244   7.543  0.00  0.00    +0.016 C 
ATOM     10  C   UNL     1       9.327   5.729   7.860  0.00  0.00    +0.006 C 
ATOM     11  C   UNL     1       9.809   4.922   6.642  0.00  0.00    +0.023 C 
ATOM     12  C   UNL     1       8.404   7.470   6.274  0.00  0.00    +0.112 C 
ATOM     14  C   UNL     1       8.961   5.225   5.410  0.00  0.00    +0.108 C 
ATOM     17  C   UNL     1       9.311   7.158   3.912  0.00  0.00    +0.253 C 
ENDROOT
BRANCH  17  23
ATOM      1  S   UNL     1       7.857   9.265   2.921  0.00  0.00    -0.092 S 
ATOM     23  C   UNL     1       9.238   8.608   3.691  0.00  0.00    +0.074 A 
ATOM     28  C   UNL     1      10.156   9.579   4.024  0.00  0.00    +0.021 A 
ATOM     29  C   UNL     1       9.720  10.880   3.642  0.00  0.00    +0.008 A 
ATOM     30  C   UNL     1       8.485  10.853   3.032  0.00  0.00    +0.046 A 
ENDBRANCH  17  23
BRANCH   9  13
ATOM     13  C   UNL     1      10.613   7.927   7.404  0.00  0.00    +0.061 C 
BRANCH  13  16
ATOM      8  N   UNL     1       9.428   9.766   8.393  0.00  0.00    -0.287 NA
ATOM     16  C   UNL     1      10.500   9.383   7.783  0.00  0.00    +0.044 C 
ATOM     18  C   UNL     1      11.615  10.300   7.434  0.00  0.00    +0.003 A 
ATOM     20  C   UNL     1      11.329  11.672   7.442  0.00  0.00    -0.033 A 
ATOM     21  C   UNL     1       9.937  12.115   7.781  0.00  0.00    +0.059 C 
ATOM     22  C   UNL     1       9.345  11.168   8.816  0.00  0.00    +0.146 C 
ATOM     24  C   UNL     1      12.891   9.845   7.097  0.00  0.00    +0.059 A 
ATOM     25  C   UNL     1      12.324  12.586   7.084  0.00  0.00    +0.053 A 
ATOM     26  C   UNL     1      13.883  10.767   6.757  0.00  0.00    +0.162 A 
ATOM     27  C   UNL     1      13.599  12.133   6.747  0.00  0.00    +0.162 A 
BRANCH  26   5
ATOM      5  O   UNL     1      15.127  10.318   6.431  0.00  0.00    -0.491 OA
ATOM     31  C   UNL     1      15.223   9.434   5.315  0.00  0.00    +0.277 C 
ENDBRANCH  26   5
BRANCH  27   6
ATOM      6  O   UNL     1      14.561  13.036   6.407  0.00  0.00    -0.491 OA
ATOM     32  C   UNL     1      15.173  13.762   7.472  0.00  0.00    +0.277 C 
ENDBRANCH  27   6
ENDBRANCH  13  16
ENDBRANCH   9  13
BRANCH  10  15
ATOM     15  C   UNL     1      10.186   5.417   9.086  0.00  0.00    +0.124 C 
BRANCH  15  19
ATOM      4  O   UNL     1       8.183   4.792  10.326  0.00  0.00    -0.251 OA
ATOM     19  C   UNL     1       9.391   4.724  10.158  0.00  0.00    +0.305 C 
BRANCH  19   3
ATOM      3  O   UNL     1      10.222   3.988  10.939  0.00  0.00    -0.481 OA
ATOM     33  H   UNL     1      11.018   4.496  11.208  0.00  0.00    +0.295 HD
ENDBRANCH  19   3
ENDBRANCH  15  19
ENDBRANCH  10  15
TORSDOF 8
ENDMDL
