MODEL 1
REMARK VINA RESULT:      -6.2      0.000      0.000
REMARK  Name = 38027663
REMARK  13 active torsions:
REMARK  status: ('A' for Active; 'I' for Inactive)
REMARK    1  A    between atoms: O_3  and  C_23
REMARK    2  A    between atoms: O_3  and  C_28
REMARK    3  A    between atoms: N_4  and  C_14
REMARK    4  A    between atoms: N_5  and  C_21
REMARK    5  A    between atoms: C_7  and  C_11
REMARK    6  A    between atoms: C_8  and  C_14
REMARK    7  A    between atoms: C_10  and  C_15
REMARK    8  A    between atoms: C_11  and  C_16
REMARK    9  A    between atoms: C_11  and  C_17
REMARK   10  A    between atoms: C_12  and  C_18
REMARK   11  A    between atoms: C_15  and  C_19
REMARK   12  A    between atoms: C_20  and  C_22
REMARK   13  A    between atoms: C_21  and  C_23
REMARK                            x       y       z     vdW  Elec       q    Type
REMARK                         _______ _______ _______ _____ _____    ______ ____
ROOT
ATOM      7  C   UNL     1      13.093  10.127  20.538  0.00  0.00    +0.000 C 
ATOM      8  C   UNL     1      13.212   9.595  21.988  0.00  0.00    +0.032 C 
ATOM      9  C   UNL     1      11.749   9.706  19.922  0.00  0.00    +0.012 C 
ATOM     10  C   UNL     1      11.575   8.176  19.896  0.00  0.00    +0.023 C 
ATOM     12  C   UNL     1      11.936   7.545  21.226  0.00  0.00    -0.073 C 
ATOM     13  C   UNL     1      12.657   8.199  22.155  0.00  0.00    -0.022 C 
ATOM     18  C   UNL     1      11.411   6.161  21.484  0.00  0.00    +0.039 C 
ENDROOT
BRANCH   7  11
ATOM     11  C   UNL     1      13.235  11.651  20.478  0.00  0.00    -0.013 C 
ATOM     16  C   UNL     1      13.486  12.105  19.044  0.00  0.00    +0.007 C 
ATOM     17  C   UNL     1      11.992  12.325  21.049  0.00  0.00    +0.007 C 
ENDBRANCH   7  11
BRANCH   8  14
ATOM     14  C   UNL     1      14.667   9.626  22.470  0.00  0.00    +0.112 C 
BRANCH  14   4
ATOM      2  O   UNL     1      17.027   9.911  20.861  0.00  0.00    -0.270 OA
ATOM      4  N   UNL     1      15.423   8.572  21.871  0.00  0.00    -0.311 N 
ATOM     20  C   UNL     1      16.563   8.800  21.100  0.00  0.00    +0.246 C 
ATOM     29  H   UNL     1      15.152   7.620  22.095  0.00  0.00    +0.149 HD
BRANCH  20  22
ATOM      6  N   UNL     1      19.172   6.176  20.396  0.00  0.00    -0.263 NA
ATOM     22  C   UNL     1      17.222   7.599  20.525  0.00  0.00    +0.055 A 
ATOM     24  C   UNL     1      16.559   6.787  19.610  0.00  0.00    +0.016 A 
ATOM     25  C   UNL     1      18.515   7.253  20.882  0.00  0.00    +0.123 A 
ATOM     26  C   UNL     1      17.203   5.670  19.089  0.00  0.00    +0.020 A 
ATOM     27  C   UNL     1      18.497   5.410  19.510  0.00  0.00    +0.111 A 
ENDBRANCH  20  22
ENDBRANCH  14   4
ENDBRANCH   8  14
BRANCH  10  15
ATOM     15  C   UNL     1      12.380   7.546  18.754  0.00  0.00    +0.103 C 
BRANCH  15  19
ATOM      1  O   UNL     1      11.032   8.039  16.806  0.00  0.00    -0.276 OA
ATOM      5  N   UNL     1      13.147   8.984  17.005  0.00  0.00    -0.313 N 
ATOM     19  C   UNL     1      12.083   8.198  17.423  0.00  0.00    +0.214 C 
ATOM     30  H   UNL     1      13.977   9.053  17.586  0.00  0.00    +0.149 HD
BRANCH   5  21
ATOM     21  C   UNL     1      13.141   9.725  15.764  0.00  0.00    +0.132 C 
BRANCH  21  23
ATOM     23  C   UNL     1      14.478  10.395  15.508  0.00  0.00    +0.178 C 
BRANCH  23   3
ATOM      3  O   UNL     1      14.296  11.804  15.445  0.00  0.00    -0.381 OA
ATOM     28  C   UNL     1      13.700  12.198  14.217  0.00  0.00    +0.194 C 
ENDBRANCH  23   3
ENDBRANCH  21  23
ENDBRANCH   5  21
ENDBRANCH  15  19
ENDBRANCH  10  15
TORSDOF 9
ENDMDL
MODEL 2
REMARK VINA RESULT:      -6.1      1.707      2.659
REMARK  Name = 38027663
REMARK  13 active torsions:
REMARK  status: ('A' for Active; 'I' for Inactive)
REMARK    1  A    between atoms: O_3  and  C_23
REMARK    2  A    between atoms: O_3  and  C_28
REMARK    3  A    between atoms: N_4  and  C_14
REMARK    4  A    between atoms: N_5  and  C_21
REMARK    5  A    between atoms: C_7  and  C_11
REMARK    6  A    between atoms: C_8  and  C_14
REMARK    7  A    between atoms: C_10  and  C_15
REMARK    8  A    between atoms: C_11  and  C_16
REMARK    9  A    between atoms: C_11  and  C_17
REMARK   10  A    between atoms: C_12  and  C_18
REMARK   11  A    between atoms: C_15  and  C_19
REMARK   12  A    between atoms: C_20  and  C_22
REMARK   13  A    between atoms: C_21  and  C_23
REMARK                            x       y       z     vdW  Elec       q    Type
REMARK                         _______ _______ _______ _____ _____    ______ ____
ROOT
ATOM      7  C   UNL     1      12.418   8.489  21.005  0.00  0.00    +0.000 C 
ATOM      8  C   UNL     1      13.549   7.439  21.129  0.00  0.00    +0.032 C 
ATOM      9  C   UNL     1      11.590   8.239  19.734  0.00  0.00    +0.012 C 
ATOM     10  C   UNL     1      12.451   8.296  18.459  0.00  0.00    +0.023 C 
ATOM     12  C   UNL     1      13.728   7.492  18.604  0.00  0.00    -0.073 C 
ATOM     13  C   UNL     1      14.196   7.106  19.804  0.00  0.00    -0.022 C 
ATOM     18  C   UNL     1      14.430   7.102  17.334  0.00  0.00    +0.039 C 
ENDROOT
BRANCH   7  11
ATOM     11  C   UNL     1      11.499   8.483  22.231  0.00  0.00    -0.013 C 
ATOM     16  C   UNL     1      10.946   9.882  22.488  0.00  0.00    +0.007 C 
ATOM     17  C   UNL     1      10.366   7.480  22.043  0.00  0.00    +0.007 C 
ENDBRANCH   7  11
BRANCH   8  14
ATOM     14  C   UNL     1      14.624   7.899  22.121  0.00  0.00    +0.112 C 
BRANCH  14   4
ATOM      2  O   UNL     1      17.093   9.109  21.296  0.00  0.00    -0.270 OA
ATOM      4  N   UNL     1      15.862   7.228  21.874  0.00  0.00    -0.311 N 
ATOM     20  C   UNL     1      17.019   7.896  21.475  0.00  0.00    +0.246 C 
ATOM     29  H   UNL     1      15.902   6.236  22.084  0.00  0.00    +0.149 HD
BRANCH  20  22
ATOM      6  N   UNL     1      20.468   6.433  21.865  0.00  0.00    -0.263 NA
ATOM     22  C   UNL     1      18.218   7.052  21.234  0.00  0.00    +0.055 A 
ATOM     24  C   UNL     1      18.244   6.123  20.199  0.00  0.00    +0.016 A 
ATOM     25  C   UNL     1      19.345   7.167  22.031  0.00  0.00    +0.123 A 
ATOM     26  C   UNL     1      19.381   5.348  19.998  0.00  0.00    +0.020 A 
ATOM     27  C   UNL     1      20.456   5.539  20.851  0.00  0.00    +0.111 A 
ENDBRANCH  20  22
ENDBRANCH  14   4
ENDBRANCH   8  14
BRANCH  10  15
ATOM     15  C   UNL     1      12.756   9.744  18.061  0.00  0.00    +0.103 C 
BRANCH  15  19
ATOM      1  O   UNL     1      12.309   9.166  15.754  0.00  0.00    -0.276 OA
ATOM      5  N   UNL     1      13.644  11.008  16.236  0.00  0.00    -0.313 N 
ATOM     19  C   UNL     1      12.857   9.912  16.562  0.00  0.00    +0.214 C 
ATOM     30  H   UNL     1      14.056  11.567  16.977  0.00  0.00    +0.149 HD
BRANCH   5  21
ATOM     21  C   UNL     1      13.915  11.407  14.874  0.00  0.00    +0.132 C 
BRANCH  21  23
ATOM     23  C   UNL     1      15.266  10.900  14.403  0.00  0.00    +0.178 C 
BRANCH  23   3
ATOM      3  O   UNL     1      15.387  11.112  13.002  0.00  0.00    -0.381 OA
ATOM     28  C   UNL     1      16.239  12.213  12.715  0.00  0.00    +0.194 C 
ENDBRANCH  23   3
ENDBRANCH  21  23
ENDBRANCH   5  21
ENDBRANCH  15  19
ENDBRANCH  10  15
TORSDOF 9
ENDMDL
MODEL 3
REMARK VINA RESULT:      -6.0      3.060      5.753
REMARK  Name = 38027663
REMARK  13 active torsions:
REMARK  status: ('A' for Active; 'I' for Inactive)
REMARK    1  A    between atoms: O_3  and  C_23
REMARK    2  A    between atoms: O_3  and  C_28
REMARK    3  A    between atoms: N_4  and  C_14
REMARK    4  A    between atoms: N_5  and  C_21
REMARK    5  A    between atoms: C_7  and  C_11
REMARK    6  A    between atoms: C_8  and  C_14
REMARK    7  A    between atoms: C_10  and  C_15
REMARK    8  A    between atoms: C_11  and  C_16
REMARK    9  A    between atoms: C_11  and  C_17
REMARK   10  A    between atoms: C_12  and  C_18
REMARK   11  A    between atoms: C_15  and  C_19
REMARK   12  A    between atoms: C_20  and  C_22
REMARK   13  A    between atoms: C_21  and  C_23
REMARK                            x       y       z     vdW  Elec       q    Type
REMARK                         _______ _______ _______ _____ _____    ______ ____
ROOT
ATOM      7  C   UNL     1      13.091   8.600  20.408  0.00  0.00    +0.000 C 
ATOM      8  C   UNL     1      14.193   8.435  19.332  0.00  0.00    +0.032 C 
ATOM      9  C   UNL     1      12.899  10.085  20.756  0.00  0.00    +0.012 C 
ATOM     10  C   UNL     1      14.195  10.731  21.281  0.00  0.00    +0.023 C 
ATOM     12  C   UNL     1      15.388  10.388  20.412  0.00  0.00    -0.073 C 
ATOM     13  C   UNL     1      15.365   9.367  19.537  0.00  0.00    -0.022 C 
ATOM     18  C   UNL     1      16.595  11.275  20.538  0.00  0.00    +0.039 C 
ENDROOT
BRANCH   7  11
ATOM     11  C   UNL     1      11.757   7.999  19.953  0.00  0.00    -0.013 C 
ATOM     16  C   UNL     1      10.702   8.159  21.044  0.00  0.00    +0.007 C 
ATOM     17  C   UNL     1      11.295   8.649  18.654  0.00  0.00    +0.007 C 
ENDBRANCH   7  11
BRANCH   8  14
ATOM     14  C   UNL     1      14.696   6.987  19.274  0.00  0.00    +0.112 C 
BRANCH  14   4
ATOM      2  O   UNL     1      16.933   5.470  18.311  0.00  0.00    -0.270 OA
ATOM      4  N   UNL     1      15.978   6.871  19.895  0.00  0.00    -0.311 N 
ATOM     20  C   UNL     1      17.014   6.108  19.356  0.00  0.00    +0.246 C 
ATOM     29  H   UNL     1      16.149   7.439  20.718  0.00  0.00    +0.149 HD
BRANCH  20  22
ATOM      6  N   UNL     1      20.413   5.015  20.556  0.00  0.00    -0.263 NA
ATOM     22  C   UNL     1      18.278   6.069  20.136  0.00  0.00    +0.055 A 
ATOM     24  C   UNL     1      18.528   6.994  21.143  0.00  0.00    +0.016 A 
ATOM     25  C   UNL     1      19.244   5.108  19.883  0.00  0.00    +0.123 A 
ATOM     26  C   UNL     1      19.720   6.931  21.856  0.00  0.00    +0.020 A 
ATOM     27  C   UNL     1      20.622   5.932  21.527  0.00  0.00    +0.111 A 
ENDBRANCH  20  22
ENDBRANCH  14   4
ENDBRANCH   8  14
BRANCH  10  15
ATOM     15  C   UNL     1      14.452  10.347  22.742  0.00  0.00    +0.103 C 
BRANCH  15  19
ATOM      1  O   UNL     1      14.943  12.418  23.893  0.00  0.00    -0.276 OA
ATOM      5  N   UNL     1      12.920  11.342  24.284  0.00  0.00    -0.313 N 
ATOM     19  C   UNL     1      14.164  11.490  23.689  0.00  0.00    +0.214 C 
ATOM     30  H   UNL     1      12.345  10.538  24.051  0.00  0.00    +0.149 HD
BRANCH   5  21
ATOM     21  C   UNL     1      12.384  12.287  25.237  0.00  0.00    +0.132 C 
BRANCH  21  23
ATOM     23  C   UNL     1      10.895  12.082  25.449  0.00  0.00    +0.178 C 
BRANCH  23   3
ATOM      3  O   UNL     1      10.207  12.318  24.228  0.00  0.00    -0.381 OA
ATOM     28  C   UNL     1      10.160  13.704  23.916  0.00  0.00    +0.194 C 
ENDBRANCH  23   3
ENDBRANCH  21  23
ENDBRANCH   5  21
ENDBRANCH  15  19
ENDBRANCH  10  15
TORSDOF 9
ENDMDL
MODEL 4
REMARK VINA RESULT:      -6.0      2.753      6.501
REMARK  Name = 38027663
REMARK  13 active torsions:
REMARK  status: ('A' for Active; 'I' for Inactive)
REMARK    1  A    between atoms: O_3  and  C_23
REMARK    2  A    between atoms: O_3  and  C_28
REMARK    3  A    between atoms: N_4  and  C_14
REMARK    4  A    between atoms: N_5  and  C_21
REMARK    5  A    between atoms: C_7  and  C_11
REMARK    6  A    between atoms: C_8  and  C_14
REMARK    7  A    between atoms: C_10  and  C_15
REMARK    8  A    between atoms: C_11  and  C_16
REMARK    9  A    between atoms: C_11  and  C_17
REMARK   10  A    between atoms: C_12  and  C_18
REMARK   11  A    between atoms: C_15  and  C_19
REMARK   12  A    between atoms: C_20  and  C_22
REMARK   13  A    between atoms: C_21  and  C_23
REMARK                            x       y       z     vdW  Elec       q    Type
REMARK                         _______ _______ _______ _____ _____    ______ ____
ROOT
ATOM      7  C   UNL     1      15.016   8.252  20.629  0.00  0.00    +0.000 C 
ATOM      8  C   UNL     1      14.335   6.953  20.129  0.00  0.00    +0.032 C 
ATOM      9  C   UNL     1      14.473   8.644  22.012  0.00  0.00    +0.012 C 
ATOM     10  C   UNL     1      12.949   8.867  21.997  0.00  0.00    +0.023 C 
ATOM     12  C   UNL     1      12.223   7.748  21.277  0.00  0.00    -0.073 C 
ATOM     13  C   UNL     1      12.861   6.894  20.457  0.00  0.00    -0.022 C 
ATOM     18  C   UNL     1      10.753   7.603  21.557  0.00  0.00    +0.039 C 
ENDROOT
BRANCH   7  11
ATOM     11  C   UNL     1      16.540   8.107  20.694  0.00  0.00    -0.013 C 
ATOM     16  C   UNL     1      17.152   9.266  21.473  0.00  0.00    +0.007 C 
ATOM     17  C   UNL     1      16.922   6.771  21.322  0.00  0.00    +0.007 C 
ENDBRANCH   7  11
BRANCH   8  14
ATOM     14  C   UNL     1      14.530   6.773  18.619  0.00  0.00    +0.112 C 
BRANCH  14   4
ATOM      2  O   UNL     1      12.467   7.937  16.998  0.00  0.00    -0.270 OA
ATOM      4  N   UNL     1      14.577   8.040  17.959  0.00  0.00    -0.311 N 
ATOM     20  C   UNL     1      13.524   8.531  17.187  0.00  0.00    +0.246 C 
ATOM     29  H   UNL     1      15.384   8.628  18.138  0.00  0.00    +0.149 HD
BRANCH  20  22
ATOM      6  N   UNL     1      13.619  11.230  14.561  0.00  0.00    -0.263 NA
ATOM     22  C   UNL     1      13.739   9.854  16.545  0.00  0.00    +0.055 A 
ATOM     24  C   UNL     1      14.241  10.929  17.270  0.00  0.00    +0.016 A 
ATOM     25  C   UNL     1      13.446  10.055  15.206  0.00  0.00    +0.123 A 
ATOM     26  C   UNL     1      14.432  12.155  16.641  0.00  0.00    +0.020 A 
ATOM     27  C   UNL     1      14.108  12.253  15.297  0.00  0.00    +0.111 A 
ENDBRANCH  20  22
ENDBRANCH  14   4
ENDBRANCH   8  14
BRANCH  10  15
ATOM     15  C   UNL     1      12.594  10.229  21.391  0.00  0.00    +0.103 C 
BRANCH  15  19
ATOM      1  O   UNL     1      11.041  11.999  21.947  0.00  0.00    -0.276 OA
ATOM      5  N   UNL     1      11.854  10.617  23.631  0.00  0.00    -0.313 N 
ATOM     19  C   UNL     1      11.739  11.059  22.321  0.00  0.00    +0.214 C 
ATOM     30  H   UNL     1      12.458   9.829  23.843  0.00  0.00    +0.149 HD
BRANCH   5  21
ATOM     21  C   UNL     1      11.148  11.228  24.734  0.00  0.00    +0.132 C 
BRANCH  21  23
ATOM     23  C   UNL     1      11.980  12.309  25.398  0.00  0.00    +0.178 C 
BRANCH  23   3
ATOM      3  O   UNL     1      13.214  11.755  25.834  0.00  0.00    -0.381 OA
ATOM     28  C   UNL     1      14.295  12.652  25.616  0.00  0.00    +0.194 C 
ENDBRANCH  23   3
ENDBRANCH  21  23
ENDBRANCH   5  21
ENDBRANCH  15  19
ENDBRANCH  10  15
TORSDOF 9
ENDMDL
MODEL 5
REMARK VINA RESULT:      -5.9      1.964      3.250
REMARK  Name = 38027663
REMARK  13 active torsions:
REMARK  status: ('A' for Active; 'I' for Inactive)
REMARK    1  A    between atoms: O_3  and  C_23
REMARK    2  A    between atoms: O_3  and  C_28
REMARK    3  A    between atoms: N_4  and  C_14
REMARK    4  A    between atoms: N_5  and  C_21
REMARK    5  A    between atoms: C_7  and  C_11
REMARK    6  A    between atoms: C_8  and  C_14
REMARK    7  A    between atoms: C_10  and  C_15
REMARK    8  A    between atoms: C_11  and  C_16
REMARK    9  A    between atoms: C_11  and  C_17
REMARK   10  A    between atoms: C_12  and  C_18
REMARK   11  A    between atoms: C_15  and  C_19
REMARK   12  A    between atoms: C_20  and  C_22
REMARK   13  A    between atoms: C_21  and  C_23
REMARK                            x       y       z     vdW  Elec       q    Type
REMARK                         _______ _______ _______ _____ _____    ______ ____
ROOT
ATOM      7  C   UNL     1      12.965  10.006  20.295  0.00  0.00    +0.000 C 
ATOM      8  C   UNL     1      11.987   8.912  19.802  0.00  0.00    +0.032 C 
ATOM      9  C   UNL     1      12.942  11.214  19.346  0.00  0.00    +0.012 C 
ATOM     10  C   UNL     1      13.327  10.829  17.905  0.00  0.00    +0.023 C 
ATOM     12  C   UNL     1      12.594   9.587  17.438  0.00  0.00    -0.073 C 
ATOM     13  C   UNL     1      11.989   8.749  18.299  0.00  0.00    -0.022 C 
ATOM     18  C   UNL     1      12.532   9.355  15.955  0.00  0.00    +0.039 C 
ENDROOT
BRANCH   7  11
ATOM     11  C   UNL     1      12.637  10.462  21.721  0.00  0.00    -0.013 C 
ATOM     16  C   UNL     1      13.883  11.020  22.401  0.00  0.00    +0.007 C 
ATOM     17  C   UNL     1      11.519  11.499  21.705  0.00  0.00    +0.007 C 
ENDBRANCH   7  11
BRANCH   8  14
ATOM     14  C   UNL     1      12.289   7.561  20.462  0.00  0.00    +0.112 C 
BRANCH  14   4
ATOM      2  O   UNL     1      14.551   7.529  22.229  0.00  0.00    -0.270 OA
ATOM      4  N   UNL     1      13.613   7.127  20.144  0.00  0.00    -0.311 N 
ATOM     20  C   UNL     1      14.658   7.145  21.067  0.00  0.00    +0.246 C 
ATOM     29  H   UNL     1      13.760   6.714  19.229  0.00  0.00    +0.149 HD
BRANCH  20  22
ATOM      6  N   UNL     1      18.328   6.295  21.012  0.00  0.00    -0.263 NA
ATOM     22  C   UNL     1      15.982   6.684  20.574  0.00  0.00    +0.055 A 
ATOM     24  C   UNL     1      16.142   6.228  19.270  0.00  0.00    +0.016 A 
ATOM     25  C   UNL     1      17.096   6.698  21.398  0.00  0.00    +0.123 A 
ATOM     26  C   UNL     1      17.394   5.805  18.837  0.00  0.00    +0.020 A 
ATOM     27  C   UNL     1      18.445   5.857  19.739  0.00  0.00    +0.111 A 
ENDBRANCH  20  22
ENDBRANCH  14   4
ENDBRANCH   8  14
BRANCH  10  15
ATOM     15  C   UNL     1      14.843  10.656  17.765  0.00  0.00    +0.103 C 
BRANCH  15  19
ATOM      1  O   UNL     1      15.835  12.765  17.116  0.00  0.00    -0.276 OA
ATOM      5  N   UNL     1      15.477  11.124  15.508  0.00  0.00    -0.313 N 
ATOM     19  C   UNL     1      15.441  11.647  16.793  0.00  0.00    +0.214 C 
ATOM     30  H   UNL     1      15.126  10.187  15.338  0.00  0.00    +0.149 HD
BRANCH   5  21
ATOM     21  C   UNL     1      15.997  11.854  14.374  0.00  0.00    +0.132 C 
BRANCH  21  23
ATOM     23  C   UNL     1      14.889  12.546  13.601  0.00  0.00    +0.178 C 
BRANCH  23   3
ATOM      3  O   UNL     1      13.778  11.666  13.478  0.00  0.00    -0.381 OA
ATOM     28  C   UNL     1      12.579  12.376  13.204  0.00  0.00    +0.194 C 
ENDBRANCH  23   3
ENDBRANCH  21  23
ENDBRANCH   5  21
ENDBRANCH  15  19
ENDBRANCH  10  15
TORSDOF 9
ENDMDL
MODEL 6
REMARK VINA RESULT:      -5.9     26.147     28.481
REMARK  Name = 38027663
REMARK  13 active torsions:
REMARK  status: ('A' for Active; 'I' for Inactive)
REMARK    1  A    between atoms: O_3  and  C_23
REMARK    2  A    between atoms: O_3  and  C_28
REMARK    3  A    between atoms: N_4  and  C_14
REMARK    4  A    between atoms: N_5  and  C_21
REMARK    5  A    between atoms: C_7  and  C_11
REMARK    6  A    between atoms: C_8  and  C_14
REMARK    7  A    between atoms: C_10  and  C_15
REMARK    8  A    between atoms: C_11  and  C_16
REMARK    9  A    between atoms: C_11  and  C_17
REMARK   10  A    between atoms: C_12  and  C_18
REMARK   11  A    between atoms: C_15  and  C_19
REMARK   12  A    between atoms: C_20  and  C_22
REMARK   13  A    between atoms: C_21  and  C_23
REMARK                            x       y       z     vdW  Elec       q    Type
REMARK                         _______ _______ _______ _____ _____    ______ ____
ROOT
ATOM      7  C   UNL     1      -3.295 -12.149  12.633  0.00  0.00    +0.000 C 
ATOM      8  C   UNL     1      -2.151 -11.115  12.490  0.00  0.00    +0.032 C 
ATOM      9  C   UNL     1      -3.887 -12.489  11.256  0.00  0.00    +0.012 C 
ATOM     10  C   UNL     1      -4.441 -11.244  10.537  0.00  0.00    +0.023 C 
ATOM     12  C   UNL     1      -3.466 -10.084  10.588  0.00  0.00    -0.073 C 
ATOM     13  C   UNL     1      -2.441 -10.050  11.458  0.00  0.00    -0.022 C 
ATOM     18  C   UNL     1      -3.670  -8.985   9.584  0.00  0.00    +0.039 C 
ENDROOT
BRANCH   7  11
ATOM     11  C   UNL     1      -2.821 -13.431  13.323  0.00  0.00    -0.013 C 
ATOM     16  C   UNL     1      -3.869 -13.920  14.317  0.00  0.00    +0.007 C 
ATOM     17  C   UNL     1      -2.510 -14.509  12.290  0.00  0.00    +0.007 C 
ENDBRANCH   7  11
BRANCH   8  14
ATOM     14  C   UNL     1      -1.835 -10.450  13.835  0.00  0.00    +0.112 C 
BRANCH  14   4
ATOM      2  O   UNL     1      -2.086 -11.007  16.640  0.00  0.00    -0.270 OA
ATOM      4  N   UNL     1      -3.017 -10.321  14.627  0.00  0.00    -0.311 N 
ATOM     20  C   UNL     1      -3.051 -10.615  15.990  0.00  0.00    +0.246 C 
ATOM     29  H   UNL     1      -3.835  -9.920  14.180  0.00  0.00    +0.149 HD
BRANCH  20  22
ATOM      6  N   UNL     1      -6.615  -9.572  16.624  0.00  0.00    -0.263 NA
ATOM     22  C   UNL     1      -4.364 -10.454  16.667  0.00  0.00    +0.055 A 
ATOM     24  C   UNL     1      -4.594 -11.000  17.926  0.00  0.00    +0.016 A 
ATOM     25  C   UNL     1      -5.399  -9.756  16.064  0.00  0.00    +0.123 A 
ATOM     26  C   UNL     1      -5.833 -10.832  18.533  0.00  0.00    +0.020 A 
ATOM     27  C   UNL     1      -6.802 -10.117  17.847  0.00  0.00    +0.111 A 
ENDBRANCH  20  22
ENDBRANCH  14   4
ENDBRANCH   8  14
BRANCH  10  15
ATOM     15  C   UNL     1      -5.805 -10.839  11.104  0.00  0.00    +0.103 C 
BRANCH  15  19
ATOM      1  O   UNL     1      -6.992 -11.015   9.002  0.00  0.00    -0.276 OA
ATOM      5  N   UNL     1      -7.305  -9.140  10.341  0.00  0.00    -0.313 N 
ATOM     19  C   UNL     1      -6.754 -10.374  10.023  0.00  0.00    +0.214 C 
ATOM     30  H   UNL     1      -7.046  -8.685  11.211  0.00  0.00    +0.149 HD
BRANCH   5  21
ATOM     21  C   UNL     1      -8.246  -8.453   9.486  0.00  0.00    +0.132 C 
BRANCH  21  23
ATOM     23  C   UNL     1      -7.540  -7.538   8.502  0.00  0.00    +0.178 C 
BRANCH  23   3
ATOM      3  O   UNL     1      -8.408  -6.469   8.146  0.00  0.00    -0.381 OA
ATOM     28  C   UNL     1      -9.669  -6.586   8.789  0.00  0.00    +0.194 C 
ENDBRANCH  23   3
ENDBRANCH  21  23
ENDBRANCH   5  21
ENDBRANCH  15  19
ENDBRANCH  10  15
TORSDOF 9
ENDMDL
MODEL 7
REMARK VINA RESULT:      -5.8      2.146      3.667
REMARK  Name = 38027663
REMARK  13 active torsions:
REMARK  status: ('A' for Active; 'I' for Inactive)
REMARK    1  A    between atoms: O_3  and  C_23
REMARK    2  A    between atoms: O_3  and  C_28
REMARK    3  A    between atoms: N_4  and  C_14
REMARK    4  A    between atoms: N_5  and  C_21
REMARK    5  A    between atoms: C_7  and  C_11
REMARK    6  A    between atoms: C_8  and  C_14
REMARK    7  A    between atoms: C_10  and  C_15
REMARK    8  A    between atoms: C_11  and  C_16
REMARK    9  A    between atoms: C_11  and  C_17
REMARK   10  A    between atoms: C_12  and  C_18
REMARK   11  A    between atoms: C_15  and  C_19
REMARK   12  A    between atoms: C_20  and  C_22
REMARK   13  A    between atoms: C_21  and  C_23
REMARK                            x       y       z     vdW  Elec       q    Type
REMARK                         _______ _______ _______ _____ _____    ______ ____
ROOT
ATOM      7  C   UNL     1      12.995   9.115  19.878  0.00  0.00    +0.000 C 
ATOM      8  C   UNL     1      12.912   7.720  19.210  0.00  0.00    +0.032 C 
ATOM      9  C   UNL     1      12.615  10.214  18.873  0.00  0.00    +0.012 C 
ATOM     10  C   UNL     1      13.531  10.211  17.635  0.00  0.00    +0.023 C 
ATOM     12  C   UNL     1      13.716   8.815  17.074  0.00  0.00    -0.073 C 
ATOM     13  C   UNL     1      13.421   7.714  17.787  0.00  0.00    -0.022 C 
ATOM     18  C   UNL     1      14.204   8.714  15.656  0.00  0.00    +0.039 C 
ENDROOT
BRANCH   7  11
ATOM     11  C   UNL     1      12.092   9.209  21.112  0.00  0.00    -0.013 C 
ATOM     16  C   UNL     1      11.863  10.668  21.494  0.00  0.00    +0.007 C 
ATOM     17  C   UNL     1      10.765   8.502  20.858  0.00  0.00    +0.007 C 
ENDBRANCH   7  11
BRANCH   8  14
ATOM     14  C   UNL     1      13.673   6.670  20.029  0.00  0.00    +0.112 C 
BRANCH  14   4
ATOM      2  O   UNL     1      16.240   5.846  19.045  0.00  0.00    -0.270 OA
ATOM      4  N   UNL     1      14.945   7.172  20.442  0.00  0.00    -0.311 N 
ATOM     20  C   UNL     1      16.150   6.714  19.909  0.00  0.00    +0.246 C 
ATOM     29  H   UNL     1      14.949   7.953  21.090  0.00  0.00    +0.149 HD
BRANCH  20  22
ATOM      6  N   UNL     1      19.742   7.103  20.976  0.00  0.00    -0.263 NA
ATOM     22  C   UNL     1      17.389   7.319  20.462  0.00  0.00    +0.055 A 
ATOM     24  C   UNL     1      17.388   8.612  20.975  0.00  0.00    +0.016 A 
ATOM     25  C   UNL     1      18.581   6.613  20.486  0.00  0.00    +0.123 A 
ATOM     26  C   UNL     1      18.563   9.151  21.487  0.00  0.00    +0.020 A 
ATOM     27  C   UNL     1      19.703   8.363  21.464  0.00  0.00    +0.111 A 
ENDBRANCH  20  22
ENDBRANCH  14   4
ENDBRANCH   8  14
BRANCH  10  15
ATOM     15  C   UNL     1      14.884  10.861  17.945  0.00  0.00    +0.103 C 
BRANCH  15  19
ATOM      1  O   UNL     1      16.278  12.577  16.962  0.00  0.00    -0.276 OA
ATOM      5  N   UNL     1      14.077  12.342  16.251  0.00  0.00    -0.313 N 
ATOM     19  C   UNL     1      15.187  12.015  17.016  0.00  0.00    +0.214 C 
ATOM     30  H   UNL     1      13.215  11.817  16.367  0.00  0.00    +0.149 HD
BRANCH   5  21
ATOM     21  C   UNL     1      14.078  13.410  15.277  0.00  0.00    +0.132 C 
BRANCH  21  23
ATOM     23  C   UNL     1      13.619  12.922  13.915  0.00  0.00    +0.178 C 
BRANCH  23   3
ATOM      3  O   UNL     1      14.218  11.663  13.637  0.00  0.00    -0.381 OA
ATOM     28  C   UNL     1      15.424  11.811  12.901  0.00  0.00    +0.194 C 
ENDBRANCH  23   3
ENDBRANCH  21  23
ENDBRANCH   5  21
ENDBRANCH  15  19
ENDBRANCH  10  15
TORSDOF 9
ENDMDL
MODEL 8
REMARK VINA RESULT:      -5.6      3.631      8.707
REMARK  Name = 38027663
REMARK  13 active torsions:
REMARK  status: ('A' for Active; 'I' for Inactive)
REMARK    1  A    between atoms: O_3  and  C_23
REMARK    2  A    between atoms: O_3  and  C_28
REMARK    3  A    between atoms: N_4  and  C_14
REMARK    4  A    between atoms: N_5  and  C_21
REMARK    5  A    between atoms: C_7  and  C_11
REMARK    6  A    between atoms: C_8  and  C_14
REMARK    7  A    between atoms: C_10  and  C_15
REMARK    8  A    between atoms: C_11  and  C_16
REMARK    9  A    between atoms: C_11  and  C_17
REMARK   10  A    between atoms: C_12  and  C_18
REMARK   11  A    between atoms: C_15  and  C_19
REMARK   12  A    between atoms: C_20  and  C_22
REMARK   13  A    between atoms: C_21  and  C_23
REMARK                            x       y       z     vdW  Elec       q    Type
REMARK                         _______ _______ _______ _____ _____    ______ ____
ROOT
ATOM      7  C   UNL     1      17.562   8.078  21.053  0.00  0.00    +0.000 C 
ATOM      8  C   UNL     1      17.339   7.119  19.858  0.00  0.00    +0.032 C 
ATOM      9  C   UNL     1      19.063   8.337  21.261  0.00  0.00    +0.012 C 
ATOM     10  C   UNL     1      19.845   7.037  21.526  0.00  0.00    +0.023 C 
ATOM     12  C   UNL     1      19.477   5.946  20.540  0.00  0.00    -0.073 C 
ATOM     13  C   UNL     1      18.359   6.006  19.793  0.00  0.00    -0.022 C 
ATOM     18  C   UNL     1      20.445   4.806  20.399  0.00  0.00    +0.039 C 
ENDROOT
BRANCH   7  11
ATOM     11  C   UNL     1      16.830   9.410  20.858  0.00  0.00    -0.013 C 
ATOM     16  C   UNL     1      15.761   9.591  21.931  0.00  0.00    +0.007 C 
ATOM     17  C   UNL     1      17.819  10.570  20.879  0.00  0.00    +0.007 C 
ENDBRANCH   7  11
BRANCH   8  14
ATOM     14  C   UNL     1      15.929   6.518  19.887  0.00  0.00    +0.112 C 
BRANCH  14   4
ATOM      2  O   UNL     1      13.353   7.750  20.182  0.00  0.00    -0.270 OA
ATOM      4  N   UNL     1      15.122   7.067  18.844  0.00  0.00    -0.311 N 
ATOM     20  C   UNL     1      13.876   7.650  19.076  0.00  0.00    +0.246 C 
ATOM     29  H   UNL     1      15.524   7.099  17.913  0.00  0.00    +0.149 HD
BRANCH  20  22
ATOM      6  N   UNL     1      13.218   8.870  15.574  0.00  0.00    -0.263 NA
ATOM     22  C   UNL     1      13.149   8.151  17.881  0.00  0.00    +0.055 A 
ATOM     24  C   UNL     1      11.777   8.375  17.918  0.00  0.00    +0.016 A 
ATOM     25  C   UNL     1      13.817   8.412  16.695  0.00  0.00    +0.123 A 
ATOM     26  C   UNL     1      11.125   8.846  16.784  0.00  0.00    +0.020 A 
ATOM     27  C   UNL     1      11.883   9.075  15.647  0.00  0.00    +0.111 A 
ENDBRANCH  20  22
ENDBRANCH  14   4
ENDBRANCH   8  14
BRANCH  10  15
ATOM     15  C   UNL     1      19.653   6.560  22.969  0.00  0.00    +0.103 C 
BRANCH  15  19
ATOM      1  O   UNL     1      21.535   7.930  23.630  0.00  0.00    -0.276 OA
ATOM      5  N   UNL     1      19.960   7.303  25.221  0.00  0.00    -0.313 N 
ATOM     19  C   UNL     1      20.502   7.344  23.945  0.00  0.00    +0.214 C 
ATOM     30  H   UNL     1      19.099   6.790  25.384  0.00  0.00    +0.149 HD
BRANCH   5  21
ATOM     21  C   UNL     1      20.563   7.964  26.355  0.00  0.00    +0.132 C 
BRANCH  21  23
ATOM     23  C   UNL     1      21.361   6.995  27.207  0.00  0.00    +0.178 C 
BRANCH  23   3
ATOM      3  O   UNL     1      21.175   7.308  28.581  0.00  0.00    -0.381 OA
ATOM     28  C   UNL     1      19.975   8.041  28.790  0.00  0.00    +0.194 C 
ENDBRANCH  23   3
ENDBRANCH  21  23
ENDBRANCH   5  21
ENDBRANCH  15  19
ENDBRANCH  10  15
TORSDOF 9
ENDMDL
MODEL 9
REMARK VINA RESULT:      -5.5     25.583     28.671
REMARK  Name = 38027663
REMARK  13 active torsions:
REMARK  status: ('A' for Active; 'I' for Inactive)
REMARK    1  A    between atoms: O_3  and  C_23
REMARK    2  A    between atoms: O_3  and  C_28
REMARK    3  A    between atoms: N_4  and  C_14
REMARK    4  A    between atoms: N_5  and  C_21
REMARK    5  A    between atoms: C_7  and  C_11
REMARK    6  A    between atoms: C_8  and  C_14
REMARK    7  A    between atoms: C_10  and  C_15
REMARK    8  A    between atoms: C_11  and  C_16
REMARK    9  A    between atoms: C_11  and  C_17
REMARK   10  A    between atoms: C_12  and  C_18
REMARK   11  A    between atoms: C_15  and  C_19
REMARK   12  A    between atoms: C_20  and  C_22
REMARK   13  A    between atoms: C_21  and  C_23
REMARK                            x       y       z     vdW  Elec       q    Type
REMARK                         _______ _______ _______ _____ _____    ______ ____
ROOT
ATOM      7  C   UNL     1      -4.969 -12.201  16.220  0.00  0.00    +0.000 C 
ATOM      8  C   UNL     1      -4.185 -11.636  17.430  0.00  0.00    +0.032 C 
ATOM      9  C   UNL     1      -3.999 -12.718  15.146  0.00  0.00    +0.012 C 
ATOM     10  C   UNL     1      -3.050 -11.615  14.641  0.00  0.00    +0.023 C 
ATOM     12  C   UNL     1      -2.438 -10.830  15.784  0.00  0.00    -0.073 C 
ATOM     13  C   UNL     1      -2.951 -10.862  17.027  0.00  0.00    -0.022 C 
ATOM     18  C   UNL     1      -1.196 -10.042  15.477  0.00  0.00    +0.039 C 
ENDROOT
BRANCH   7  11
ATOM     11  C   UNL     1      -5.926 -13.323  16.636  0.00  0.00    -0.013 C 
ATOM     16  C   UNL     1      -7.131 -13.367  15.702  0.00  0.00    +0.007 C 
ATOM     17  C   UNL     1      -5.201 -14.665  16.647  0.00  0.00    +0.007 C 
ENDBRANCH   7  11
BRANCH   8  14
ATOM     14  C   UNL     1      -5.081 -10.750  18.304  0.00  0.00    +0.112 C 
BRANCH  14   4
ATOM      2  O   UNL     1      -7.899 -10.697  18.845  0.00  0.00    -0.270 OA
ATOM      4  N   UNL     1      -6.089 -10.114  17.516  0.00  0.00    -0.311 N 
ATOM     20  C   UNL     1      -7.442 -10.137  17.853  0.00  0.00    +0.246 C 
ATOM     29  H   UNL     1      -5.779  -9.557  16.726  0.00  0.00    +0.149 HD
BRANCH  20  22
ATOM      6  N   UNL     1     -10.038  -7.742  16.543  0.00  0.00    -0.263 NA
ATOM     22  C   UNL     1      -8.368  -9.450  16.915  0.00  0.00    +0.055 A 
ATOM     24  C   UNL     1      -8.453  -9.835  15.581  0.00  0.00    +0.016 A 
ATOM     25  C   UNL     1      -9.174  -8.407  17.342  0.00  0.00    +0.123 A 
ATOM     26  C   UNL     1      -9.329  -9.173  14.729  0.00  0.00    +0.020 A 
ATOM     27  C   UNL     1     -10.092  -8.142  15.253  0.00  0.00    +0.111 A 
ENDBRANCH  20  22
ENDBRANCH  14   4
ENDBRANCH   8  14
BRANCH  10  15
ATOM     15  C   UNL     1      -3.760 -10.683  13.654  0.00  0.00    +0.103 C 
BRANCH  15  19
ATOM      1  O   UNL     1      -1.974 -11.082  12.071  0.00  0.00    -0.276 OA
ATOM      5  N   UNL     1      -4.027 -10.301  11.309  0.00  0.00    -0.313 N 
ATOM     19  C   UNL     1      -3.130 -10.723  12.280  0.00  0.00    +0.214 C 
ATOM     30  H   UNL     1      -4.965 -10.022  11.579  0.00  0.00    +0.149 HD
BRANCH   5  21
ATOM     21  C   UNL     1      -3.694 -10.235   9.904  0.00  0.00    +0.132 C 
BRANCH  21  23
ATOM     23  C   UNL     1      -4.060  -8.889   9.306  0.00  0.00    +0.178 C 
BRANCH  23   3
ATOM      3  O   UNL     1      -5.121  -8.312  10.056  0.00  0.00    -0.381 OA
ATOM     28  C   UNL     1      -6.344  -8.339   9.333  0.00  0.00    +0.194 C 
ENDBRANCH  23   3
ENDBRANCH  21  23
ENDBRANCH   5  21
ENDBRANCH  15  19
ENDBRANCH  10  15
TORSDOF 9
ENDMDL
MODEL 10
REMARK VINA RESULT:      -5.5      3.894      8.738
REMARK  Name = 38027663
REMARK  13 active torsions:
REMARK  status: ('A' for Active; 'I' for Inactive)
REMARK    1  A    between atoms: O_3  and  C_23
REMARK    2  A    between atoms: O_3  and  C_28
REMARK    3  A    between atoms: N_4  and  C_14
REMARK    4  A    between atoms: N_5  and  C_21
REMARK    5  A    between atoms: C_7  and  C_11
REMARK    6  A    between atoms: C_8  and  C_14
REMARK    7  A    between atoms: C_10  and  C_15
REMARK    8  A    between atoms: C_11  and  C_16
REMARK    9  A    between atoms: C_11  and  C_17
REMARK   10  A    between atoms: C_12  and  C_18
REMARK   11  A    between atoms: C_15  and  C_19
REMARK   12  A    between atoms: C_20  and  C_22
REMARK   13  A    between atoms: C_21  and  C_23
REMARK                            x       y       z     vdW  Elec       q    Type
REMARK                         _______ _______ _______ _____ _____    ______ ____
ROOT
ATOM      7  C   UNL     1      18.717   8.740  21.864  0.00  0.00    +0.000 C 
ATOM      8  C   UNL     1      17.760   8.096  20.830  0.00  0.00    +0.032 C 
ATOM      9  C   UNL     1      20.180   8.468  21.482  0.00  0.00    +0.012 C 
ATOM     10  C   UNL     1      20.490   6.962  21.403  0.00  0.00    +0.023 C 
ATOM     12  C   UNL     1      19.435   6.210  20.616  0.00  0.00    -0.073 C 
ATOM     13  C   UNL     1      18.225   6.738  20.359  0.00  0.00    -0.022 C 
ATOM     18  C   UNL     1      19.818   4.854  20.093  0.00  0.00    +0.039 C 
ENDROOT
BRANCH   7  11
ATOM     11  C   UNL     1      18.487  10.250  21.989  0.00  0.00    -0.013 C 
ATOM     16  C   UNL     1      19.517  10.869  22.928  0.00  0.00    +0.007 C 
ATOM     17  C   UNL     1      18.539  10.912  20.617  0.00  0.00    +0.007 C 
ENDBRANCH   7  11
BRANCH   8  14
ATOM     14  C   UNL     1      16.337   7.982  21.390  0.00  0.00    +0.112 C 
BRANCH  14   4
ATOM      2  O   UNL     1      14.956   6.250  19.566  0.00  0.00    -0.270 OA
ATOM      4  N   UNL     1      15.373   8.371  20.409  0.00  0.00    -0.311 N 
ATOM     20  C   UNL     1      14.747   7.460  19.559  0.00  0.00    +0.246 C 
ATOM     29  H   UNL     1      15.085   9.344  20.401  0.00  0.00    +0.149 HD
BRANCH  20  22
ATOM      6  N   UNL     1      11.691   7.831  17.389  0.00  0.00    -0.263 NA
ATOM     22  C   UNL     1      13.788   8.026  18.576  0.00  0.00    +0.055 A 
ATOM     24  C   UNL     1      14.051   9.229  17.930  0.00  0.00    +0.016 A 
ATOM     25  C   UNL     1      12.605   7.372  18.273  0.00  0.00    +0.123 A 
ATOM     26  C   UNL     1      13.134   9.733  17.014  0.00  0.00    +0.020 A 
ATOM     27  C   UNL     1      11.979   9.003  16.781  0.00  0.00    +0.111 A 
ENDBRANCH  20  22
ENDBRANCH  14   4
ENDBRANCH   8  14
BRANCH  10  15
ATOM     15  C   UNL     1      20.667   6.358  22.800  0.00  0.00    +0.103 C 
BRANCH  15  19
ATOM      1  O   UNL     1      21.829   4.256  23.092  0.00  0.00    -0.276 OA
ATOM      5  N   UNL     1      23.050   6.195  22.699  0.00  0.00    -0.313 N 
ATOM     19  C   UNL     1      21.884   5.465  22.884  0.00  0.00    +0.214 C 
ATOM     30  H   UNL     1      22.994   7.195  22.533  0.00  0.00    +0.149 HD
BRANCH   5  21
ATOM     21  C   UNL     1      24.366   5.599  22.730  0.00  0.00    +0.132 C 
BRANCH  21  23
ATOM     23  C   UNL     1      24.726   4.973  21.395  0.00  0.00    +0.178 C 
BRANCH  23   3
ATOM      3  O   UNL     1      24.783   3.559  21.537  0.00  0.00    -0.381 OA
ATOM     28  C   UNL     1      24.519   2.901  20.305  0.00  0.00    +0.194 C 
ENDBRANCH  23   3
ENDBRANCH  21  23
ENDBRANCH   5  21
ENDBRANCH  15  19
ENDBRANCH  10  15
TORSDOF 9
ENDMDL
