MODEL 1
REMARK VINA RESULT:      -7.3      0.000      0.000
REMARK  Name = 86768994
REMARK  10 active torsions:
REMARK  status: ('A' for Active; 'I' for Inactive)
REMARK    1  A    between atoms: O_2  and  C_11
REMARK    2  A    between atoms: O_5  and  C_26
REMARK    3  A    between atoms: O_5  and  C_27
REMARK    4  A    between atoms: N_6  and  C_10
REMARK    5  A    between atoms: N_6  and  C_13
REMARK    6  A    between atoms: C_9  and  C_13
REMARK    7  A    between atoms: C_12  and  C_20
REMARK    8  A    between atoms: C_20  and  C_21
REMARK    9  A    between atoms: C_22  and  C_24
REMARK   10  A    between atoms: C_25  and  C_26
REMARK                            x       y       z     vdW  Elec       q    Type
REMARK                         _______ _______ _______ _____ _____    ______ ____
ROOT
ATOM      1  O   UNL     1      10.683   8.307  19.680  0.00  0.00    -0.369 OA
ATOM      9  C   UNL     1      10.880   8.194  21.096  0.00  0.00    +0.161 C 
ATOM     11  C   UNL     1      11.690   6.940  21.448  0.00  0.00    +0.145 C 
ATOM     12  C   UNL     1      11.878   8.294  18.897  0.00  0.00    +0.125 C 
ATOM     14  C   UNL     1      12.962   6.816  20.614  0.00  0.00    +0.036 C 
ATOM     15  C   UNL     1      12.661   7.003  19.129  0.00  0.00    +0.034 C 
ENDROOT
BRANCH  11   2
ATOM      2  O   UNL     1      10.886   5.785  21.192  0.00  0.00    -0.389 OA
ATOM     29  H   UNL     1       9.954   6.052  21.272  0.00  0.00    +0.210 HD
ENDBRANCH  11   2
BRANCH   9  13
ATOM     13  C   UNL     1      11.481   9.474  21.672  0.00  0.00    +0.115 C 
BRANCH  13   6
ATOM      6  N   UNL     1      11.297   9.540  23.114  0.00  0.00    -0.311 NA
ATOM     28  H   UNL     1      12.190   9.358  23.572  0.00  0.00    +0.122 HD
BRANCH   6  10
ATOM      3  O   UNL     1      12.255  15.578  23.766  0.00  0.00    -0.276 OA
ATOM      7  N   UNL     1      11.209  13.584  24.337  0.00  0.00    -0.302 N 
ATOM     10  C   UNL     1      10.772  10.843  23.510  0.00  0.00    +0.057 C 
ATOM     16  C   UNL     1      11.238  11.190  24.931  0.00  0.00    +0.037 C 
ATOM     17  C   UNL     1      11.232  11.920  22.518  0.00  0.00    +0.037 C 
ATOM     18  C   UNL     1      10.780  12.592  25.331  0.00  0.00    +0.109 C 
ATOM     19  C   UNL     1      10.774  13.306  22.966  0.00  0.00    +0.109 C 
ATOM     22  C   UNL     1      11.937  14.740  24.613  0.00  0.00    +0.212 C 
ATOM     24  C   UNL     1      12.350  14.953  26.049  0.00  0.00    +0.109 C 
ENDBRANCH   6  10
ENDBRANCH  13   6
ENDBRANCH   9  13
BRANCH  12  20
ATOM     20  C   UNL     1      11.470   8.425  17.435  0.00  0.00    +0.090 C 
BRANCH  20  21
ATOM      4  O   UNL     1      13.423  10.119  14.924  0.00  0.00    -0.357 OA
ATOM      8  N   UNL     1      12.393   9.274  15.318  0.00  0.00    -0.083 NA
ATOM     21  C   UNL     1      12.454   9.253  16.652  0.00  0.00    +0.086 A 
ATOM     23  C   UNL     1      13.492  10.059  17.152  0.00  0.00    +0.073 A 
ATOM     25  C   UNL     1      14.070  10.580  16.025  0.00  0.00    +0.163 A 
BRANCH  25  26
ATOM     26  C   UNL     1      15.195  11.494  15.789  0.00  0.00    +0.236 C 
BRANCH  26   5
ATOM      5  O   UNL     1      16.060  10.966  14.781  0.00  0.00    -0.375 OA
ATOM     27  C   UNL     1      16.158  11.848  13.676  0.00  0.00    +0.194 C 
ENDBRANCH  26   5
ENDBRANCH  25  26
ENDBRANCH  20  21
ENDBRANCH  12  20
TORSDOF 8
ENDMDL
MODEL 2
REMARK VINA RESULT:      -6.6     15.925     20.412
REMARK  Name = 86768994
REMARK  10 active torsions:
REMARK  status: ('A' for Active; 'I' for Inactive)
REMARK    1  A    between atoms: O_2  and  C_11
REMARK    2  A    between atoms: O_5  and  C_26
REMARK    3  A    between atoms: O_5  and  C_27
REMARK    4  A    between atoms: N_6  and  C_10
REMARK    5  A    between atoms: N_6  and  C_13
REMARK    6  A    between atoms: C_9  and  C_13
REMARK    7  A    between atoms: C_12  and  C_20
REMARK    8  A    between atoms: C_20  and  C_21
REMARK    9  A    between atoms: C_22  and  C_24
REMARK   10  A    between atoms: C_25  and  C_26
REMARK                            x       y       z     vdW  Elec       q    Type
REMARK                         _______ _______ _______ _____ _____    ______ ____
ROOT
ATOM      1  O   UNL     1      12.807   2.739   0.479  0.00  0.00    -0.369 OA
ATOM      9  C   UNL     1      13.065   3.497   1.668  0.00  0.00    +0.161 C 
ATOM     11  C   UNL     1      14.439   4.177   1.611  0.00  0.00    +0.145 C 
ATOM     12  C   UNL     1      12.909   3.473  -0.744  0.00  0.00    +0.125 C 
ATOM     14  C   UNL     1      14.656   4.940   0.307  0.00  0.00    +0.036 C 
ATOM     15  C   UNL     1      14.306   4.071  -0.898  0.00  0.00    +0.034 C 
ENDROOT
BRANCH  11   2
ATOM      2  O   UNL     1      15.454   3.172   1.702  0.00  0.00    -0.389 OA
ATOM     29  H   UNL     1      15.372   2.752   2.575  0.00  0.00    +0.210 HD
ENDBRANCH  11   2
BRANCH   9  13
ATOM     13  C   UNL     1      11.927   4.475   1.955  0.00  0.00    +0.115 C 
BRANCH  13   6
ATOM      6  N   UNL     1      12.380   5.579   2.787  0.00  0.00    -0.311 NA
ATOM     28  H   UNL     1      12.572   6.387   2.195  0.00  0.00    +0.122 HD
BRANCH   6  10
ATOM      3  O   UNL     1      10.887   5.935   8.741  0.00  0.00    -0.276 OA
ATOM      7  N   UNL     1      10.355   5.668   6.496  0.00  0.00    -0.302 N 
ATOM     10  C   UNL     1      11.378   5.910   3.798  0.00  0.00    +0.057 C 
ATOM     16  C   UNL     1      10.674   4.634   4.279  0.00  0.00    +0.037 C 
ATOM     17  C   UNL     1      12.040   6.634   4.977  0.00  0.00    +0.037 C 
ATOM     18  C   UNL     1       9.689   4.944   5.406  0.00  0.00    +0.109 C 
ATOM     19  C   UNL     1      11.028   6.904   6.089  0.00  0.00    +0.109 C 
ATOM     22  C   UNL     1      10.351   5.289   7.838  0.00  0.00    +0.212 C 
ATOM     24  C   UNL     1       9.638   4.003   8.175  0.00  0.00    +0.109 C 
ENDBRANCH   6  10
ENDBRANCH  13   6
ENDBRANCH   9  13
BRANCH  12  20
ATOM     20  C   UNL     1      12.603   2.509  -1.883  0.00  0.00    +0.090 C 
BRANCH  20  21
ATOM      4  O   UNL     1       9.285   2.496  -3.293  0.00  0.00    -0.357 OA
ATOM      8  N   UNL     1      10.350   1.880  -2.646  0.00  0.00    -0.083 NA
ATOM     21  C   UNL     1      11.288   2.825  -2.543  0.00  0.00    +0.086 A 
ATOM     23  C   UNL     1      10.875   4.048  -3.103  0.00  0.00    +0.073 A 
ATOM     25  C   UNL     1       9.611   3.787  -3.559  0.00  0.00    +0.163 A 
BRANCH  25  26
ATOM     26  C   UNL     1       8.592   4.591  -4.246  0.00  0.00    +0.236 C 
BRANCH  26   5
ATOM      5  O   UNL     1       9.102   5.082  -5.489  0.00  0.00    -0.375 OA
ATOM     27  C   UNL     1       9.081   4.073  -6.485  0.00  0.00    +0.194 C 
ENDBRANCH  26   5
ENDBRANCH  25  26
ENDBRANCH  20  21
ENDBRANCH  12  20
TORSDOF 8
ENDMDL
MODEL 3
REMARK VINA RESULT:      -6.6      4.654      8.648
REMARK  Name = 86768994
REMARK  10 active torsions:
REMARK  status: ('A' for Active; 'I' for Inactive)
REMARK    1  A    between atoms: O_2  and  C_11
REMARK    2  A    between atoms: O_5  and  C_26
REMARK    3  A    between atoms: O_5  and  C_27
REMARK    4  A    between atoms: N_6  and  C_10
REMARK    5  A    between atoms: N_6  and  C_13
REMARK    6  A    between atoms: C_9  and  C_13
REMARK    7  A    between atoms: C_12  and  C_20
REMARK    8  A    between atoms: C_20  and  C_21
REMARK    9  A    between atoms: C_22  and  C_24
REMARK   10  A    between atoms: C_25  and  C_26
REMARK                            x       y       z     vdW  Elec       q    Type
REMARK                         _______ _______ _______ _____ _____    ______ ____
ROOT
ATOM      1  O   UNL     1      12.488   8.283  22.037  0.00  0.00    -0.369 OA
ATOM      9  C   UNL     1      13.483   7.577  21.283  0.00  0.00    +0.161 C 
ATOM     11  C   UNL     1      12.897   7.002  19.987  0.00  0.00    +0.145 C 
ATOM     12  C   UNL     1      11.818   9.329  21.330  0.00  0.00    +0.125 C 
ATOM     14  C   UNL     1      12.111   8.041  19.193  0.00  0.00    +0.036 C 
ATOM     15  C   UNL     1      11.118   8.777  20.089  0.00  0.00    +0.034 C 
ENDROOT
BRANCH  11   2
ATOM      2  O   UNL     1      11.999   5.938  20.320  0.00  0.00    -0.389 OA
ATOM     29  H   UNL     1      12.441   5.376  20.979  0.00  0.00    +0.210 HD
ENDBRANCH  11   2
BRANCH   9  13
ATOM     13  C   UNL     1      14.715   8.447  21.046  0.00  0.00    +0.115 C 
BRANCH  13   6
ATOM      6  N   UNL     1      15.834   8.010  21.868  0.00  0.00    -0.311 NA
ATOM     28  H   UNL     1      15.573   7.155  22.359  0.00  0.00    +0.122 HD
BRANCH   6  10
ATOM      3  O   UNL     1      20.562   4.365  20.398  0.00  0.00    -0.276 OA
ATOM      7  N   UNL     1      19.546   6.445  20.591  0.00  0.00    -0.302 N 
ATOM     10  C   UNL     1      17.023   7.790  21.048  0.00  0.00    +0.057 C 
ATOM     16  C   UNL     1      18.285   8.156  21.841  0.00  0.00    +0.037 C 
ATOM     17  C   UNL     1      17.083   6.326  20.592  0.00  0.00    +0.037 C 
ATOM     18  C   UNL     1      19.547   7.843  21.038  0.00  0.00    +0.109 C 
ATOM     19  C   UNL     1      18.369   6.050  19.815  0.00  0.00    +0.109 C 
ATOM     22  C   UNL     1      20.570   5.526  20.816  0.00  0.00    +0.212 C 
ATOM     24  C   UNL     1      21.747   6.008  21.627  0.00  0.00    +0.109 C 
ENDBRANCH   6  10
ENDBRANCH  13   6
ENDBRANCH   9  13
BRANCH  12  20
ATOM     20  C   UNL     1      10.812   9.956  22.285  0.00  0.00    +0.090 C 
BRANCH  20  21
ATOM      4  O   UNL     1      11.797  11.541  25.370  0.00  0.00    -0.357 OA
ATOM      8  N   UNL     1      10.921  10.786  24.600  0.00  0.00    -0.083 NA
ATOM     21  C   UNL     1      11.493  10.713  23.395  0.00  0.00    +0.086 A 
ATOM     23  C   UNL     1      12.721  11.396  23.345  0.00  0.00    +0.073 A 
ATOM     25  C   UNL     1      12.865  11.898  24.611  0.00  0.00    +0.163 A 
BRANCH  25  26
ATOM     26  C   UNL     1      13.898  12.706  25.273  0.00  0.00    +0.236 C 
BRANCH  26   5
ATOM      5  O   UNL     1      14.028  12.319  26.643  0.00  0.00    -0.375 OA
ATOM     27  C   UNL     1      15.201  11.550  26.849  0.00  0.00    +0.194 C 
ENDBRANCH  26   5
ENDBRANCH  25  26
ENDBRANCH  20  21
ENDBRANCH  12  20
TORSDOF 8
ENDMDL
MODEL 4
REMARK VINA RESULT:      -6.3      5.650      7.910
REMARK  Name = 86768994
REMARK  10 active torsions:
REMARK  status: ('A' for Active; 'I' for Inactive)
REMARK    1  A    between atoms: O_2  and  C_11
REMARK    2  A    between atoms: O_5  and  C_26
REMARK    3  A    between atoms: O_5  and  C_27
REMARK    4  A    between atoms: N_6  and  C_10
REMARK    5  A    between atoms: N_6  and  C_13
REMARK    6  A    between atoms: C_9  and  C_13
REMARK    7  A    between atoms: C_12  and  C_20
REMARK    8  A    between atoms: C_20  and  C_21
REMARK    9  A    between atoms: C_22  and  C_24
REMARK   10  A    between atoms: C_25  and  C_26
REMARK                            x       y       z     vdW  Elec       q    Type
REMARK                         _______ _______ _______ _____ _____    ______ ____
ROOT
ATOM      1  O   UNL     1      14.929   8.990  20.489  0.00  0.00    -0.369 OA
ATOM      9  C   UNL     1      15.830   8.064  21.110  0.00  0.00    +0.161 C 
ATOM     11  C   UNL     1      15.623   6.641  20.577  0.00  0.00    +0.145 C 
ATOM     12  C   UNL     1      14.977   9.021  19.061  0.00  0.00    +0.125 C 
ATOM     14  C   UNL     1      15.603   6.589  19.051  0.00  0.00    +0.036 C 
ATOM     15  C   UNL     1      14.659   7.644  18.481  0.00  0.00    +0.034 C 
ENDROOT
BRANCH  11   2
ATOM      2  O   UNL     1      14.363   6.152  21.046  0.00  0.00    -0.389 OA
ATOM     29  H   UNL     1      14.411   5.180  21.055  0.00  0.00    +0.210 HD
ENDBRANCH  11   2
BRANCH   9  13
ATOM     13  C   UNL     1      17.276   8.541  20.993  0.00  0.00    +0.115 C 
BRANCH  13   6
ATOM      6  N   UNL     1      18.056   8.146  22.156  0.00  0.00    -0.311 NA
ATOM     28  H   UNL     1      17.531   7.456  22.691  0.00  0.00    +0.122 HD
BRANCH   6  10
ATOM      3  O   UNL     1      21.530   3.200  21.030  0.00  0.00    -0.276 OA
ATOM      7  N   UNL     1      21.245   5.417  21.664  0.00  0.00    -0.302 N 
ATOM     10  C   UNL     1      19.352   7.606  21.752  0.00  0.00    +0.057 C 
ATOM     16  C   UNL     1      20.159   7.191  22.989  0.00  0.00    +0.037 C 
ATOM     17  C   UNL     1      19.152   6.407  20.816  0.00  0.00    +0.037 C 
ATOM     18  C   UNL     1      21.479   6.534  22.587  0.00  0.00    +0.109 C 
ATOM     19  C   UNL     1      20.491   5.766  20.458  0.00  0.00    +0.109 C 
ATOM     22  C   UNL     1      21.709   4.114  21.839  0.00  0.00    +0.212 C 
ATOM     24  C   UNL     1      22.474   3.834  23.109  0.00  0.00    +0.109 C 
ENDBRANCH   6  10
ENDBRANCH  13   6
ENDBRANCH   9  13
BRANCH  12  20
ATOM     20  C   UNL     1      13.962  10.054  18.590  0.00  0.00    +0.090 C 
BRANCH  20  21
ATOM      4  O   UNL     1      13.541  10.241  15.015  0.00  0.00    -0.357 OA
ATOM      8  N   UNL     1      13.143   9.827  16.281  0.00  0.00    -0.083 NA
ATOM     21  C   UNL     1      14.071  10.311  17.111  0.00  0.00    +0.086 A 
ATOM     23  C   UNL     1      15.070  11.033  16.433  0.00  0.00    +0.073 A 
ATOM     25  C   UNL     1      14.690  10.958  15.120  0.00  0.00    +0.163 A 
BRANCH  25  26
ATOM     26  C   UNL     1      15.254  11.477  13.867  0.00  0.00    +0.236 C 
BRANCH  26   5
ATOM      5  O   UNL     1      14.207  11.845  12.966  0.00  0.00    -0.375 OA
ATOM     27  C   UNL     1      14.719  12.548  11.846  0.00  0.00    +0.194 C 
ENDBRANCH  26   5
ENDBRANCH  25  26
ENDBRANCH  20  21
ENDBRANCH  12  20
TORSDOF 8
ENDMDL
MODEL 5
REMARK VINA RESULT:      -6.2     26.415     28.968
REMARK  Name = 86768994
REMARK  10 active torsions:
REMARK  status: ('A' for Active; 'I' for Inactive)
REMARK    1  A    between atoms: O_2  and  C_11
REMARK    2  A    between atoms: O_5  and  C_26
REMARK    3  A    between atoms: O_5  and  C_27
REMARK    4  A    between atoms: N_6  and  C_10
REMARK    5  A    between atoms: N_6  and  C_13
REMARK    6  A    between atoms: C_9  and  C_13
REMARK    7  A    between atoms: C_12  and  C_20
REMARK    8  A    between atoms: C_20  and  C_21
REMARK    9  A    between atoms: C_22  and  C_24
REMARK   10  A    between atoms: C_25  and  C_26
REMARK                            x       y       z     vdW  Elec       q    Type
REMARK                         _______ _______ _______ _____ _____    ______ ____
ROOT
ATOM      1  O   UNL     1      -6.320 -10.386  18.137  0.00  0.00    -0.369 OA
ATOM      9  C   UNL     1      -5.046 -10.885  17.707  0.00  0.00    +0.161 C 
ATOM     11  C   UNL     1      -5.111 -12.386  17.398  0.00  0.00    +0.145 C 
ATOM     12  C   UNL     1      -7.403 -10.625  17.235  0.00  0.00    +0.125 C 
ATOM     14  C   UNL     1      -6.280 -12.742  16.482  0.00  0.00    +0.036 C 
ATOM     15  C   UNL     1      -7.579 -12.123  16.990  0.00  0.00    +0.034 C 
ENDROOT
BRANCH  11   2
ATOM      2  O   UNL     1      -5.285 -13.102  18.624  0.00  0.00    -0.389 OA
ATOM     29  H   UNL     1      -5.490 -14.025  18.398  0.00  0.00    +0.210 HD
ENDBRANCH  11   2
BRANCH   9  13
ATOM     13  C   UNL     1      -4.495 -10.060  16.546  0.00  0.00    +0.115 C 
BRANCH  13   6
ATOM      6  N   UNL     1      -3.167 -10.513  16.163  0.00  0.00    -0.311 NA
ATOM     28  H   UNL     1      -2.883 -11.274  16.780  0.00  0.00    +0.122 HD
BRANCH   6  10
ATOM      3  O   UNL     1      -2.334  -9.068  10.245  0.00  0.00    -0.276 OA
ATOM      7  N   UNL     1      -3.283 -10.339  11.942  0.00  0.00    -0.302 N 
ATOM     10  C   UNL     1      -3.151 -10.950  14.769  0.00  0.00    +0.057 C 
ATOM     16  C   UNL     1      -4.476 -10.583  14.087  0.00  0.00    +0.037 C 
ATOM     17  C   UNL     1      -1.971 -10.307  14.029  0.00  0.00    +0.037 C 
ATOM     18  C   UNL     1      -4.446 -10.944  12.602  0.00  0.00    +0.109 C 
ATOM     19  C   UNL     1      -1.992 -10.674  12.547  0.00  0.00    +0.109 C 
ATOM     22  C   UNL     1      -3.329  -9.536  10.803  0.00  0.00    +0.212 C 
ATOM     24  C   UNL     1      -4.697  -9.234  10.243  0.00  0.00    +0.109 C 
ENDBRANCH   6  10
ENDBRANCH  13   6
ENDBRANCH   9  13
BRANCH  12  20
ATOM     20  C   UNL     1      -8.658 -10.027  17.857  0.00  0.00    +0.090 C 
BRANCH  20  21
ATOM      4  O   UNL     1      -9.846  -7.979  15.139  0.00  0.00    -0.357 OA
ATOM      8  N   UNL     1      -9.182  -9.091  15.643  0.00  0.00    -0.083 NA
ATOM     21  C   UNL     1      -9.275  -8.979  16.970  0.00  0.00    +0.086 A 
ATOM     23  C   UNL     1      -9.982  -7.827  17.359  0.00  0.00    +0.073 A 
ATOM     25  C   UNL     1     -10.318  -7.235  16.172  0.00  0.00    +0.163 A 
BRANCH  25  26
ATOM     26  C   UNL     1     -11.052  -6.014  15.817  0.00  0.00    +0.236 C 
BRANCH  26   5
ATOM      5  O   UNL     1     -12.002  -6.288  14.784  0.00  0.00    -0.375 OA
ATOM     27  C   UNL     1     -13.320  -6.349  15.305  0.00  0.00    +0.194 C 
ENDBRANCH  26   5
ENDBRANCH  25  26
ENDBRANCH  20  21
ENDBRANCH  12  20
TORSDOF 8
ENDMDL
MODEL 6
REMARK VINA RESULT:      -6.2      3.427      7.267
REMARK  Name = 86768994
REMARK  10 active torsions:
REMARK  status: ('A' for Active; 'I' for Inactive)
REMARK    1  A    between atoms: O_2  and  C_11
REMARK    2  A    between atoms: O_5  and  C_26
REMARK    3  A    between atoms: O_5  and  C_27
REMARK    4  A    between atoms: N_6  and  C_10
REMARK    5  A    between atoms: N_6  and  C_13
REMARK    6  A    between atoms: C_9  and  C_13
REMARK    7  A    between atoms: C_12  and  C_20
REMARK    8  A    between atoms: C_20  and  C_21
REMARK    9  A    between atoms: C_22  and  C_24
REMARK   10  A    between atoms: C_25  and  C_26
REMARK                            x       y       z     vdW  Elec       q    Type
REMARK                         _______ _______ _______ _____ _____    ______ ____
ROOT
ATOM      1  O   UNL     1      12.891  10.377  17.882  0.00  0.00    -0.369 OA
ATOM      9  C   UNL     1      13.201   9.245  17.058  0.00  0.00    +0.161 C 
ATOM     11  C   UNL     1      13.740   9.682  15.689  0.00  0.00    +0.145 C 
ATOM     12  C   UNL     1      13.967  11.297  18.081  0.00  0.00    +0.125 C 
ATOM     14  C   UNL     1      14.859  10.714  15.807  0.00  0.00    +0.036 C 
ATOM     15  C   UNL     1      14.458  11.850  16.744  0.00  0.00    +0.034 C 
ENDROOT
BRANCH  11   2
ATOM      2  O   UNL     1      12.674  10.279  14.944  0.00  0.00    -0.389 OA
ATOM     29  H   UNL     1      12.332   9.606  14.332  0.00  0.00    +0.210 HD
ENDBRANCH  11   2
BRANCH   9  13
ATOM     13  C   UNL     1      14.132   8.275  17.782  0.00  0.00    +0.115 C 
BRANCH  13   6
ATOM      6  N   UNL     1      13.422   7.542  18.820  0.00  0.00    -0.311 NA
ATOM     28  H   UNL     1      13.108   6.649  18.442  0.00  0.00    +0.122 HD
BRANCH   6  10
ATOM      3  O   UNL     1      18.376   9.259  22.033  0.00  0.00    -0.276 OA
ATOM      7  N   UNL     1      16.819   7.684  21.331  0.00  0.00    -0.302 N 
ATOM     10  C   UNL     1      14.279   7.334  19.985  0.00  0.00    +0.057 C 
ATOM     16  C   UNL     1      15.518   6.519  19.589  0.00  0.00    +0.037 C 
ATOM     17  C   UNL     1      14.695   8.686  20.580  0.00  0.00    +0.037 C 
ATOM     18  C   UNL     1      16.477   6.371  20.770  0.00  0.00    +0.109 C 
ATOM     19  C   UNL     1      15.670   8.494  21.740  0.00  0.00    +0.109 C 
ATOM     22  C   UNL     1      18.113   8.166  21.525  0.00  0.00    +0.212 C 
ATOM     24  C   UNL     1      19.242   7.273  21.074  0.00  0.00    +0.109 C 
ENDBRANCH   6  10
ENDBRANCH  13   6
ENDBRANCH   9  13
BRANCH  12  20
ATOM     20  C   UNL     1      13.451  12.418  18.975  0.00  0.00    +0.090 C 
BRANCH  20  21
ATOM      4  O   UNL     1      13.429  11.543  22.471  0.00  0.00    -0.357 OA
ATOM      8  N   UNL     1      14.024  12.102  21.347  0.00  0.00    -0.083 NA
ATOM     21  C   UNL     1      13.138  11.926  20.363  0.00  0.00    +0.086 A 
ATOM     23  C   UNL     1      11.976  11.269  20.803  0.00  0.00    +0.073 A 
ATOM     25  C   UNL     1      12.209  11.050  22.134  0.00  0.00    +0.163 A 
BRANCH  25  26
ATOM     26  C   UNL     1      11.437  10.420  23.211  0.00  0.00    +0.236 C 
BRANCH  26   5
ATOM      5  O   UNL     1      10.384   9.621  22.665  0.00  0.00    -0.375 OA
ATOM     27  C   UNL     1      10.790   8.271  22.516  0.00  0.00    +0.194 C 
ENDBRANCH  26   5
ENDBRANCH  25  26
ENDBRANCH  20  21
ENDBRANCH  12  20
TORSDOF 8
ENDMDL
MODEL 7
REMARK VINA RESULT:      -6.1      4.414      7.715
REMARK  Name = 86768994
REMARK  10 active torsions:
REMARK  status: ('A' for Active; 'I' for Inactive)
REMARK    1  A    between atoms: O_2  and  C_11
REMARK    2  A    between atoms: O_5  and  C_26
REMARK    3  A    between atoms: O_5  and  C_27
REMARK    4  A    between atoms: N_6  and  C_10
REMARK    5  A    between atoms: N_6  and  C_13
REMARK    6  A    between atoms: C_9  and  C_13
REMARK    7  A    between atoms: C_12  and  C_20
REMARK    8  A    between atoms: C_20  and  C_21
REMARK    9  A    between atoms: C_22  and  C_24
REMARK   10  A    between atoms: C_25  and  C_26
REMARK                            x       y       z     vdW  Elec       q    Type
REMARK                         _______ _______ _______ _____ _____    ______ ____
ROOT
ATOM      1  O   UNL     1      12.959   8.988  19.486  0.00  0.00    -0.369 OA
ATOM      9  C   UNL     1      13.218   7.657  19.022  0.00  0.00    +0.161 C 
ATOM     11  C   UNL     1      12.983   7.537  17.510  0.00  0.00    +0.145 C 
ATOM     12  C   UNL     1      13.694  10.018  18.822  0.00  0.00    +0.125 C 
ATOM     14  C   UNL     1      13.689   8.638  16.723  0.00  0.00    +0.036 C 
ATOM     15  C   UNL     1      13.398  10.011  17.323  0.00  0.00    +0.034 C 
ENDROOT
BRANCH  11   2
ATOM      2  O   UNL     1      11.580   7.648  17.252  0.00  0.00    -0.389 OA
ATOM     29  H   UNL     1      11.116   7.101  17.909  0.00  0.00    +0.210 HD
ENDBRANCH  11   2
BRANCH   9  13
ATOM     13  C   UNL     1      14.606   7.185  19.449  0.00  0.00    +0.115 C 
BRANCH  13   6
ATOM      6  N   UNL     1      15.127   8.000  20.537  0.00  0.00    -0.311 NA
ATOM     28  H   UNL     1      14.778   7.634  21.423  0.00  0.00    +0.122 HD
BRANCH   6  10
ATOM      3  O   UNL     1      20.385   5.995  23.014  0.00  0.00    -0.276 OA
ATOM      7  N   UNL     1      19.116   7.564  21.862  0.00  0.00    -0.302 N 
ATOM     10  C   UNL     1      16.587   8.009  20.523  0.00  0.00    +0.057 C 
ATOM     16  C   UNL     1      17.118   8.983  21.583  0.00  0.00    +0.037 C 
ATOM     17  C   UNL     1      17.124   6.595  20.779  0.00  0.00    +0.037 C 
ATOM     18  C   UNL     1      18.644   8.938  21.654  0.00  0.00    +0.109 C 
ATOM     19  C   UNL     1      18.649   6.598  20.865  0.00  0.00    +0.109 C 
ATOM     22  C   UNL     1      19.973   7.151  22.881  0.00  0.00    +0.212 C 
ATOM     24  C   UNL     1      20.406   8.205  23.870  0.00  0.00    +0.109 C 
ENDBRANCH   6  10
ENDBRANCH  13   6
ENDBRANCH   9  13
BRANCH  12  20
ATOM     20  C   UNL     1      13.290  11.347  19.447  0.00  0.00    +0.090 C 
BRANCH  20  21
ATOM      4  O   UNL     1      13.138  10.778  23.004  0.00  0.00    -0.357 OA
ATOM      8  N   UNL     1      13.821  10.832  21.795  0.00  0.00    -0.083 NA
ATOM     21  C   UNL     1      12.901  11.187  20.893  0.00  0.00    +0.086 A 
ATOM     23  C   UNL     1      11.632  11.370  21.470  0.00  0.00    +0.073 A 
ATOM     25  C   UNL     1      11.835  11.101  22.797  0.00  0.00    +0.163 A 
BRANCH  25  26
ATOM     26  C   UNL     1      10.963  11.093  23.978  0.00  0.00    +0.236 C 
BRANCH  26   5
ATOM      5  O   UNL     1      11.728  11.341  25.161  0.00  0.00    -0.375 OA
ATOM     27  C   UNL     1      11.551  12.673  25.615  0.00  0.00    +0.194 C 
ENDBRANCH  26   5
ENDBRANCH  25  26
ENDBRANCH  20  21
ENDBRANCH  12  20
TORSDOF 8
ENDMDL
MODEL 8
REMARK VINA RESULT:      -6.0     27.064     29.606
REMARK  Name = 86768994
REMARK  10 active torsions:
REMARK  status: ('A' for Active; 'I' for Inactive)
REMARK    1  A    between atoms: O_2  and  C_11
REMARK    2  A    between atoms: O_5  and  C_26
REMARK    3  A    between atoms: O_5  and  C_27
REMARK    4  A    between atoms: N_6  and  C_10
REMARK    5  A    between atoms: N_6  and  C_13
REMARK    6  A    between atoms: C_9  and  C_13
REMARK    7  A    between atoms: C_12  and  C_20
REMARK    8  A    between atoms: C_20  and  C_21
REMARK    9  A    between atoms: C_22  and  C_24
REMARK   10  A    between atoms: C_25  and  C_26
REMARK                            x       y       z     vdW  Elec       q    Type
REMARK                         _______ _______ _______ _____ _____    ______ ____
ROOT
ATOM      1  O   UNL     1     -16.186   2.006  24.907  0.00  0.00    -0.369 OA
ATOM      9  C   UNL     1     -16.178   2.991  23.865  0.00  0.00    +0.161 C 
ATOM     11  C   UNL     1     -17.432   2.886  22.987  0.00  0.00    +0.145 C 
ATOM     12  C   UNL     1     -17.342   2.020  25.748  0.00  0.00    +0.125 C 
ATOM     14  C   UNL     1     -18.716   2.837  23.811  0.00  0.00    +0.036 C 
ATOM     15  C   UNL     1     -18.610   1.799  24.926  0.00  0.00    +0.034 C 
ENDROOT
BRANCH  11   2
ATOM      2  O   UNL     1     -17.359   1.679  22.222  0.00  0.00    -0.389 OA
ATOM     29  H   UNL     1     -17.559   1.906  21.298  0.00  0.00    +0.210 HD
ENDBRANCH  11   2
BRANCH   9  13
ATOM     13  C   UNL     1     -15.964   4.392  24.434  0.00  0.00    +0.115 C 
BRANCH  13   6
ATOM      6  N   UNL     1     -14.608   4.858  24.188  0.00  0.00    -0.311 NA
ATOM     28  H   UNL     1     -13.973   4.061  24.208  0.00  0.00    +0.122 HD
BRANCH   6  10
ATOM      3  O   UNL     1     -11.297   8.305  20.320  0.00  0.00    -0.276 OA
ATOM      7  N   UNL     1     -13.310   7.556  21.205  0.00  0.00    -0.302 N 
ATOM     10  C   UNL     1     -14.524   5.550  22.904  0.00  0.00    +0.057 C 
ATOM     16  C   UNL     1     -14.816   7.045  23.090  0.00  0.00    +0.037 C 
ATOM     17  C   UNL     1     -13.133   5.348  22.289  0.00  0.00    +0.037 C 
ATOM     18  C   UNL     1     -14.639   7.805  21.777  0.00  0.00    +0.109 C 
ATOM     19  C   UNL     1     -12.990   6.143  20.992  0.00  0.00    +0.109 C 
ATOM     22  C   UNL     1     -12.394   8.539  20.833  0.00  0.00    +0.212 C 
ATOM     24  C   UNL     1     -12.797   9.970  21.087  0.00  0.00    +0.109 C 
ENDBRANCH   6  10
ENDBRANCH  13   6
ENDBRANCH   9  13
BRANCH  12  20
ATOM     20  C   UNL     1     -17.168   0.916  26.783  0.00  0.00    +0.090 C 
BRANCH  20  21
ATOM      4  O   UNL     1     -15.014   1.175  29.662  0.00  0.00    -0.357 OA
ATOM      8  N   UNL     1     -15.748   0.443  28.736  0.00  0.00    -0.083 NA
ATOM     21  C   UNL     1     -16.292   1.355  27.926  0.00  0.00    +0.086 A 
ATOM     23  C   UNL     1     -15.940   2.668  28.288  0.00  0.00    +0.073 A 
ATOM     25  C   UNL     1     -15.136   2.499  29.383  0.00  0.00    +0.163 A 
BRANCH  25  26
ATOM     26  C   UNL     1     -14.419   3.423  30.270  0.00  0.00    +0.236 C 
BRANCH  26   5
ATOM      5  O   UNL     1     -14.760   3.167  31.635  0.00  0.00    -0.375 OA
ATOM     27  C   UNL     1     -13.672   3.458  32.498  0.00  0.00    +0.194 C 
ENDBRANCH  26   5
ENDBRANCH  25  26
ENDBRANCH  20  21
ENDBRANCH  12  20
TORSDOF 8
ENDMDL
MODEL 9
REMARK VINA RESULT:      -6.0     26.796     29.467
REMARK  Name = 86768994
REMARK  10 active torsions:
REMARK  status: ('A' for Active; 'I' for Inactive)
REMARK    1  A    between atoms: O_2  and  C_11
REMARK    2  A    between atoms: O_5  and  C_26
REMARK    3  A    between atoms: O_5  and  C_27
REMARK    4  A    between atoms: N_6  and  C_10
REMARK    5  A    between atoms: N_6  and  C_13
REMARK    6  A    between atoms: C_9  and  C_13
REMARK    7  A    between atoms: C_12  and  C_20
REMARK    8  A    between atoms: C_20  and  C_21
REMARK    9  A    between atoms: C_22  and  C_24
REMARK   10  A    between atoms: C_25  and  C_26
REMARK                            x       y       z     vdW  Elec       q    Type
REMARK                         _______ _______ _______ _____ _____    ______ ____
ROOT
ATOM      1  O   UNL     1     -16.535   2.935  24.421  0.00  0.00    -0.369 OA
ATOM      9  C   UNL     1     -16.187   4.006  23.534  0.00  0.00    +0.161 C 
ATOM     11  C   UNL     1     -17.163   5.182  23.669  0.00  0.00    +0.145 C 
ATOM     12  C   UNL     1     -16.635   3.296  25.801  0.00  0.00    +0.125 C 
ATOM     14  C   UNL     1     -17.374   5.599  25.123  0.00  0.00    +0.036 C 
ATOM     15  C   UNL     1     -17.685   4.387  25.997  0.00  0.00    +0.034 C 
ENDROOT
BRANCH  11   2
ATOM      2  O   UNL     1     -18.433   4.791  23.139  0.00  0.00    -0.389 OA
ATOM     29  H   UNL     1     -18.762   5.525  22.593  0.00  0.00    +0.210 HD
ENDBRANCH  11   2
BRANCH   9  13
ATOM     13  C   UNL     1     -14.728   4.418  23.714  0.00  0.00    +0.115 C 
BRANCH  13   6
ATOM      6  N   UNL     1     -14.008   4.371  22.450  0.00  0.00    -0.311 NA
ATOM     28  H   UNL     1     -14.556   3.840  21.774  0.00  0.00    +0.122 HD
BRANCH   6  10
ATOM      3  O   UNL     1     -13.532   8.161  17.632  0.00  0.00    -0.276 OA
ATOM      7  N   UNL     1     -13.003   7.503  19.796  0.00  0.00    -0.302 N 
ATOM     10  C   UNL     1     -13.746   5.719  21.953  0.00  0.00    +0.057 C 
ATOM     16  C   UNL     1     -12.296   5.827  21.463  0.00  0.00    +0.037 C 
ATOM     17  C   UNL     1     -14.722   6.061  20.820  0.00  0.00    +0.037 C 
ATOM     18  C   UNL     1     -12.026   7.201  20.849  0.00  0.00    +0.109 C 
ATOM     19  C   UNL     1     -14.403   7.429  20.220  0.00  0.00    +0.109 C 
ATOM     22  C   UNL     1     -12.692   7.877  18.490  0.00  0.00    +0.212 C 
ATOM     24  C   UNL     1     -11.228   7.926  18.130  0.00  0.00    +0.109 C 
ENDBRANCH   6  10
ENDBRANCH  13   6
ENDBRANCH   9  13
BRANCH  12  20
ATOM     20  C   UNL     1     -17.007   2.039  26.577  0.00  0.00    +0.090 C 
BRANCH  20  21
ATOM      4  O   UNL     1     -15.209   0.884  29.480  0.00  0.00    -0.357 OA
ATOM      8  N   UNL     1     -16.030   0.676  28.378  0.00  0.00    -0.083 NA
ATOM     21  C   UNL     1     -16.168   1.881  27.817  0.00  0.00    +0.086 A 
ATOM     23  C   UNL     1     -15.464   2.878  28.515  0.00  0.00    +0.073 A 
ATOM     25  C   UNL     1     -14.879   2.199  29.551  0.00  0.00    +0.163 A 
BRANCH  25  26
ATOM     26  C   UNL     1     -14.010   2.597  30.665  0.00  0.00    +0.236 C 
BRANCH  26   5
ATOM      5  O   UNL     1     -14.002   1.585  31.675  0.00  0.00    -0.375 OA
ATOM     27  C   UNL     1     -14.764   1.982  32.803  0.00  0.00    +0.194 C 
ENDBRANCH  26   5
ENDBRANCH  25  26
ENDBRANCH  20  21
ENDBRANCH  12  20
TORSDOF 8
ENDMDL
MODEL 10
REMARK VINA RESULT:      -6.0     26.648     28.213
REMARK  Name = 86768994
REMARK  10 active torsions:
REMARK  status: ('A' for Active; 'I' for Inactive)
REMARK    1  A    between atoms: O_2  and  C_11
REMARK    2  A    between atoms: O_5  and  C_26
REMARK    3  A    between atoms: O_5  and  C_27
REMARK    4  A    between atoms: N_6  and  C_10
REMARK    5  A    between atoms: N_6  and  C_13
REMARK    6  A    between atoms: C_9  and  C_13
REMARK    7  A    between atoms: C_12  and  C_20
REMARK    8  A    between atoms: C_20  and  C_21
REMARK    9  A    between atoms: C_22  and  C_24
REMARK   10  A    between atoms: C_25  and  C_26
REMARK                            x       y       z     vdW  Elec       q    Type
REMARK                         _______ _______ _______ _____ _____    ______ ____
ROOT
ATOM      1  O   UNL     1      -4.084 -11.704  12.993  0.00  0.00    -0.369 OA
ATOM      9  C   UNL     1      -3.943 -11.686  14.420  0.00  0.00    +0.161 C 
ATOM     11  C   UNL     1      -2.469 -11.592  14.834  0.00  0.00    +0.145 C 
ATOM     12  C   UNL     1      -3.481 -10.604  12.308  0.00  0.00    +0.125 C 
ATOM     14  C   UNL     1      -1.730 -10.473  14.104  0.00  0.00    +0.036 C 
ATOM     15  C   UNL     1      -1.983 -10.542  12.601  0.00  0.00    +0.034 C 
ENDROOT
BRANCH  11   2
ATOM      2  O   UNL     1      -1.819 -12.825  14.511  0.00  0.00    -0.389 OA
ATOM     29  H   UNL     1      -0.947 -12.609  14.139  0.00  0.00    +0.210 HD
ENDBRANCH  11   2
BRANCH   9  13
ATOM     13  C   UNL     1      -4.809 -10.595  15.044  0.00  0.00    +0.115 C 
BRANCH  13   6
ATOM      6  N   UNL     1      -4.212 -10.087  16.271  0.00  0.00    -0.311 NA
ATOM     28  H   UNL     1      -3.635  -9.276  16.050  0.00  0.00    +0.122 HD
BRANCH   6  10
ATOM      3  O   UNL     1      -8.663 -11.958  20.078  0.00  0.00    -0.276 OA
ATOM      7  N   UNL     1      -7.669 -10.388  18.683  0.00  0.00    -0.302 N 
ATOM     10  C   UNL     1      -5.245  -9.733  17.241  0.00  0.00    +0.057 C 
ATOM     16  C   UNL     1      -6.620  -9.701  16.559  0.00  0.00    +0.037 C 
ATOM     17  C   UNL     1      -5.245 -10.738  18.400  0.00  0.00    +0.037 C 
ATOM     18  C   UNL     1      -7.729  -9.427  17.575  0.00  0.00    +0.109 C 
ATOM     19  C   UNL     1      -6.380 -10.444  19.377  0.00  0.00    +0.109 C 
ATOM     22  C   UNL     1      -8.727 -11.184  19.119  0.00  0.00    +0.212 C 
ATOM     24  C   UNL     1     -10.020 -11.071  18.350  0.00  0.00    +0.109 C 
ENDBRANCH   6  10
ENDBRANCH  13   6
ENDBRANCH   9  13
BRANCH  12  20
ATOM     20  C   UNL     1      -3.735 -10.796  10.819  0.00  0.00    +0.090 C 
BRANCH  20  21
ATOM      4  O   UNL     1      -5.491  -7.930   9.516  0.00  0.00    -0.357 OA
ATOM      8  N   UNL     1      -4.340  -8.572   9.958  0.00  0.00    -0.083 NA
ATOM     21  C   UNL     1      -4.736  -9.803  10.291  0.00  0.00    +0.086 A 
ATOM     23  C   UNL     1      -6.113  -9.995  10.082  0.00  0.00    +0.073 A 
ATOM     25  C   UNL     1      -6.540  -8.789   9.595  0.00  0.00    +0.163 A 
BRANCH  25  26
ATOM     26  C   UNL     1      -7.844  -8.271   9.165  0.00  0.00    +0.236 C 
BRANCH  26   5
ATOM      5  O   UNL     1      -7.700  -7.491   7.974  0.00  0.00    -0.375 OA
ATOM     27  C   UNL     1      -8.405  -6.265   8.076  0.00  0.00    +0.194 C 
ENDBRANCH  26   5
ENDBRANCH  25  26
ENDBRANCH  20  21
ENDBRANCH  12  20
TORSDOF 8
ENDMDL
