MODEL 1
REMARK VINA RESULT:      -7.1      0.000      0.000
REMARK  Name = 28963128
REMARK  8 active torsions:
REMARK  status: ('A' for Active; 'I' for Inactive)
REMARK    1  A    between atoms: O_1  and  C_11
REMARK    2  A    between atoms: N_4  and  C_15
REMARK    3  A    between atoms: C_8  and  C_18
REMARK    4  A    between atoms: C_10  and  C_20
REMARK    5  A    between atoms: C_13  and  C_19
REMARK    6  A    between atoms: C_19  and  C_21
REMARK    7  A    between atoms: C_19  and  C_22
REMARK    8  A    between atoms: C_23  and  C_28
REMARK                            x       y       z     vdW  Elec       q    Type
REMARK                         _______ _______ _______ _____ _____    ______ ____
ROOT
ATOM      8  C   UNL     1      -5.258 -11.242  17.619  0.00  0.00    -0.027 C 
ATOM      9  C   UNL     1      -5.837 -10.523  16.356  0.00  0.00    +0.028 C 
ATOM     10  C   UNL     1      -7.408 -10.528  16.381  0.00  0.00    +0.012 C 
ATOM     11  C   UNL     1      -5.187 -11.064  15.050  0.00  0.00    +0.122 C 
ATOM     12  C   UNL     1      -3.715 -11.121  17.620  0.00  0.00    +0.007 C 
ATOM     13  C   UNL     1      -3.642 -11.036  15.099  0.00  0.00    +0.029 C 
ATOM     14  C   UNL     1      -5.787 -10.538  18.889  0.00  0.00    +0.009 C 
ATOM     15  C   UNL     1      -7.928  -9.883  17.696  0.00  0.00    +0.076 C 
ATOM     16  C   UNL     1      -3.073 -11.686  16.361  0.00  0.00    +0.007 C 
ATOM     17  C   UNL     1      -7.307 -10.489  18.955  0.00  0.00    +0.023 C 
ATOM     18  C   UNL     1      -5.639 -12.744  17.673  0.00  0.00    +0.011 C 
ATOM     20  C   UNL     1      -8.045  -9.808  15.179  0.00  0.00    +0.010 C 
ENDROOT
BRANCH  15   4
ATOM      3  O   UNL     1      -9.804  -7.718  17.511  0.00  0.00    -0.270 OA
ATOM      4  N   UNL     1      -9.369  -9.977  17.805  0.00  0.00    -0.308 N 
ATOM     23  C   UNL     1     -10.192  -8.869  17.702  0.00  0.00    +0.247 C 
ATOM     33  H   UNL     1      -9.756 -10.878  18.063  0.00  0.00    +0.149 HD
BRANCH  23  28
ATOM      6  N   UNL     1     -13.899  -8.938  17.036  0.00  0.00    -0.243 NA
ATOM      7  N   UNL     1     -13.473 -10.036  19.139  0.00  0.00    -0.243 NA
ATOM     28  C   UNL     1     -11.647  -9.127  17.861  0.00  0.00    +0.073 A 
ATOM     30  C   UNL     1     -12.572  -8.721  16.923  0.00  0.00    +0.127 A 
ATOM     31  C   UNL     1     -12.159  -9.786  18.960  0.00  0.00    +0.127 A 
ATOM     32  C   UNL     1     -14.275  -9.590  18.152  0.00  0.00    +0.221 A 
ENDBRANCH  23  28
ENDBRANCH  15   4
BRANCH  11   1
ATOM      1  O   UNL     1      -5.575 -10.242  13.948  0.00  0.00    -0.391 OA
ATOM     34  H   UNL     1      -5.278  -9.335  14.129  0.00  0.00    +0.210 HD
ENDBRANCH  11   1
BRANCH  13  19
ATOM     19  C   UNL     1      -3.021 -11.692  13.861  0.00  0.00    +0.078 C 
ATOM     21  C   UNL     1      -1.960 -12.706  14.251  0.00  0.00    +0.017 C 
BRANCH  19  22
ATOM      2  O   UNL     1      -1.651  -9.791  13.506  0.00  0.00    -0.275 OA
ATOM      5  N   UNL     1      -2.769 -10.624  11.648  0.00  0.00    -0.301 N 
ATOM     22  C   UNL     1      -2.415 -10.615  12.996  0.00  0.00    +0.219 C 
ATOM     24  C   UNL     1      -2.223  -9.609  10.744  0.00  0.00    +0.108 C 
ATOM     25  C   UNL     1      -3.638 -11.618  11.003  0.00  0.00    +0.108 C 
ATOM     26  C   UNL     1      -3.342  -8.887   9.997  0.00  0.00    +0.019 C 
ATOM     27  C   UNL     1      -4.782 -10.934  10.259  0.00  0.00    +0.019 C 
ATOM     29  C   UNL     1      -4.261  -9.879   9.286  0.00  0.00    +0.003 C 
ENDBRANCH  19  22
ENDBRANCH  13  19
TORSDOF 5
ENDMDL
MODEL 2
REMARK VINA RESULT:      -6.9     28.586     31.957
REMARK  Name = 28963128
REMARK  8 active torsions:
REMARK  status: ('A' for Active; 'I' for Inactive)
REMARK    1  A    between atoms: O_1  and  C_11
REMARK    2  A    between atoms: N_4  and  C_15
REMARK    3  A    between atoms: C_8  and  C_18
REMARK    4  A    between atoms: C_10  and  C_20
REMARK    5  A    between atoms: C_13  and  C_19
REMARK    6  A    between atoms: C_19  and  C_21
REMARK    7  A    between atoms: C_19  and  C_22
REMARK    8  A    between atoms: C_23  and  C_28
REMARK                            x       y       z     vdW  Elec       q    Type
REMARK                         _______ _______ _______ _____ _____    ______ ____
ROOT
ATOM      8  C   UNL     1      18.545   9.421  21.705  0.00  0.00    -0.027 C 
ATOM      9  C   UNL     1      17.858   8.118  21.180  0.00  0.00    +0.028 C 
ATOM     10  C   UNL     1      18.921   7.126  20.585  0.00  0.00    +0.012 C 
ATOM     11  C   UNL     1      16.657   8.449  20.247  0.00  0.00    +0.122 C 
ATOM     12  C   UNL     1      17.488  10.325  22.384  0.00  0.00    +0.007 C 
ATOM     13  C   UNL     1      15.656   9.435  20.894  0.00  0.00    +0.029 C 
ATOM     14  C   UNL     1      19.597   9.043  22.773  0.00  0.00    +0.009 C 
ATOM     15  C   UNL     1      20.014   6.810  21.644  0.00  0.00    +0.076 C 
ATOM     16  C   UNL     1      16.332  10.684  21.461  0.00  0.00    +0.007 C 
ATOM     17  C   UNL     1      20.641   8.060  22.260  0.00  0.00    +0.023 C 
ATOM     18  C   UNL     1      19.234  10.226  20.574  0.00  0.00    +0.011 C 
ATOM     20  C   UNL     1      18.315   5.807  20.076  0.00  0.00    +0.010 C 
ENDROOT
BRANCH  15   4
ATOM      3  O   UNL     1      21.425   4.701  22.988  0.00  0.00    -0.270 OA
ATOM      4  N   UNL     1      21.074   5.991  21.092  0.00  0.00    -0.308 N 
ATOM     23  C   UNL     1      21.695   4.994  21.825  0.00  0.00    +0.247 C 
ATOM     33  H   UNL     1      21.420   6.240  20.172  0.00  0.00    +0.149 HD
BRANCH  23  28
ATOM      6  N   UNL     1      23.902   2.194  20.610  0.00  0.00    -0.243 NA
ATOM      7  N   UNL     1      24.707   4.267  19.682  0.00  0.00    -0.243 NA
ATOM     28  C   UNL     1      22.781   4.259  21.125  0.00  0.00    +0.073 A 
ATOM     30  C   UNL     1      22.928   2.892  21.230  0.00  0.00    +0.127 A 
ATOM     31  C   UNL     1      23.708   4.902  20.330  0.00  0.00    +0.127 A 
ATOM     32  C   UNL     1      24.745   2.933  19.863  0.00  0.00    +0.221 A 
ENDBRANCH  23  28
ENDBRANCH  15   4
BRANCH  11   1
ATOM      1  O   UNL     1      15.928   7.254  19.965  0.00  0.00    -0.391 OA
ATOM     34  H   UNL     1      15.176   7.486  19.395  0.00  0.00    +0.210 HD
ENDBRANCH  11   1
BRANCH  13  19
ATOM     19  C   UNL     1      14.553   9.850  19.913  0.00  0.00    +0.078 C 
ATOM     21  C   UNL     1      14.945  11.099  19.145  0.00  0.00    +0.017 C 
BRANCH  19  22
ATOM      2  O   UNL     1      13.144  11.166  21.291  0.00  0.00    -0.275 OA
ATOM      5  N   UNL     1      12.336   9.075  20.679  0.00  0.00    -0.301 N 
ATOM     22  C   UNL     1      13.284  10.097  20.691  0.00  0.00    +0.219 C 
ATOM     24  C   UNL     1      11.079   9.239  21.413  0.00  0.00    +0.108 C 
ATOM     25  C   UNL     1      12.456   7.813  19.938  0.00  0.00    +0.108 C 
ATOM     26  C   UNL     1      10.851   8.072  22.371  0.00  0.00    +0.019 C 
ATOM     27  C   UNL     1      12.253   6.618  20.868  0.00  0.00    +0.019 C 
ATOM     29  C   UNL     1      10.940   6.733  21.641  0.00  0.00    +0.003 C 
ENDBRANCH  19  22
ENDBRANCH  13  19
TORSDOF 5
ENDMDL
MODEL 3
REMARK VINA RESULT:      -6.7      1.864      2.155
REMARK  Name = 28963128
REMARK  8 active torsions:
REMARK  status: ('A' for Active; 'I' for Inactive)
REMARK    1  A    between atoms: O_1  and  C_11
REMARK    2  A    between atoms: N_4  and  C_15
REMARK    3  A    between atoms: C_8  and  C_18
REMARK    4  A    between atoms: C_10  and  C_20
REMARK    5  A    between atoms: C_13  and  C_19
REMARK    6  A    between atoms: C_19  and  C_21
REMARK    7  A    between atoms: C_19  and  C_22
REMARK    8  A    between atoms: C_23  and  C_28
REMARK                            x       y       z     vdW  Elec       q    Type
REMARK                         _______ _______ _______ _____ _____    ______ ____
ROOT
ATOM      8  C   UNL     1      -4.627 -11.332  17.182  0.00  0.00    -0.027 C 
ATOM      9  C   UNL     1      -5.610 -10.601  16.209  0.00  0.00    +0.028 C 
ATOM     10  C   UNL     1      -7.077 -10.630  16.771  0.00  0.00    +0.012 C 
ATOM     11  C   UNL     1      -5.444 -11.111  14.749  0.00  0.00    +0.122 C 
ATOM     12  C   UNL     1      -3.179 -11.187  16.657  0.00  0.00    +0.007 C 
ATOM     13  C   UNL     1      -3.975 -11.060  14.266  0.00  0.00    +0.029 C 
ATOM     14  C   UNL     1      -4.694 -10.656  18.570  0.00  0.00    +0.009 C 
ATOM     15  C   UNL     1      -7.120 -10.015  18.198  0.00  0.00    +0.076 C 
ATOM     16  C   UNL     1      -3.002 -11.723  15.243  0.00  0.00    +0.007 C 
ATOM     17  C   UNL     1      -6.100 -10.631  19.155  0.00  0.00    +0.023 C 
ATOM     18  C   UNL     1      -4.953 -12.839  17.333  0.00  0.00    +0.011 C 
ATOM     20  C   UNL     1      -8.094  -9.901  15.876  0.00  0.00    +0.010 C 
ENDROOT
BRANCH  15   4
ATOM      3  O   UNL     1      -8.320 -12.403  19.246  0.00  0.00    -0.270 OA
ATOM      4  N   UNL     1      -8.435 -10.132  18.793  0.00  0.00    -0.308 N 
ATOM     23  C   UNL     1      -8.926 -11.334  19.271  0.00  0.00    +0.247 C 
ATOM     33  H   UNL     1      -9.034  -9.313  18.758  0.00  0.00    +0.149 HD
BRANCH  23  28
ATOM      6  N   UNL     1     -12.293 -10.059  20.378  0.00  0.00    -0.243 NA
ATOM      7  N   UNL     1     -12.171 -12.419  20.849  0.00  0.00    -0.243 NA
ATOM     28  C   UNL     1     -10.303 -11.294  19.829  0.00  0.00    +0.073 A 
ATOM     30  C   UNL     1     -11.042 -10.131  19.878  0.00  0.00    +0.127 A 
ATOM     31  C   UNL     1     -10.924 -12.419  20.334  0.00  0.00    +0.127 A 
ATOM     32  C   UNL     1     -12.789 -11.222  20.840  0.00  0.00    +0.221 A 
ENDBRANCH  23  28
ENDBRANCH  15   4
BRANCH  11   1
ATOM      1  O   UNL     1      -6.193 -10.278  13.863  0.00  0.00    -0.391 OA
ATOM     34  H   UNL     1      -6.920 -10.807  13.493  0.00  0.00    +0.210 HD
ENDBRANCH  11   1
BRANCH  13  19
ATOM     19  C   UNL     1      -3.812 -11.688  12.876  0.00  0.00    +0.078 C 
ATOM     21  C   UNL     1      -2.842 -12.855  12.913  0.00  0.00    +0.017 C 
BRANCH  19  22
ATOM      2  O   UNL     1      -2.235 -10.073  12.153  0.00  0.00    -0.275 OA
ATOM      5  N   UNL     1      -4.123 -10.344  10.827  0.00  0.00    -0.301 N 
ATOM     22  C   UNL     1      -3.313 -10.629  11.925  0.00  0.00    +0.219 C 
ATOM     24  C   UNL     1      -3.708  -9.326   9.859  0.00  0.00    +0.108 C 
ATOM     25  C   UNL     1      -5.387 -11.019  10.505  0.00  0.00    +0.108 C 
ATOM     26  C   UNL     1      -4.802  -8.278   9.667  0.00  0.00    +0.019 C 
ATOM     27  C   UNL     1      -6.513 -10.004  10.323  0.00  0.00    +0.019 C 
ATOM     29  C   UNL     1      -6.135  -8.931   9.303  0.00  0.00    +0.003 C 
ENDBRANCH  19  22
ENDBRANCH  13  19
TORSDOF 5
ENDMDL
MODEL 4
REMARK VINA RESULT:      -6.7     29.602     32.028
REMARK  Name = 28963128
REMARK  8 active torsions:
REMARK  status: ('A' for Active; 'I' for Inactive)
REMARK    1  A    between atoms: O_1  and  C_11
REMARK    2  A    between atoms: N_4  and  C_15
REMARK    3  A    between atoms: C_8  and  C_18
REMARK    4  A    between atoms: C_10  and  C_20
REMARK    5  A    between atoms: C_13  and  C_19
REMARK    6  A    between atoms: C_19  and  C_21
REMARK    7  A    between atoms: C_19  and  C_22
REMARK    8  A    between atoms: C_23  and  C_28
REMARK                            x       y       z     vdW  Elec       q    Type
REMARK                         _______ _______ _______ _____ _____    ______ ____
ROOT
ATOM      8  C   UNL     1      19.842   9.607  21.604  0.00  0.00    -0.027 C 
ATOM      9  C   UNL     1      19.602   8.125  21.165  0.00  0.00    +0.028 C 
ATOM     10  C   UNL     1      18.126   7.682  21.476  0.00  0.00    +0.012 C 
ATOM     11  C   UNL     1      20.712   7.185  21.718  0.00  0.00    +0.122 C 
ATOM     12  C   UNL     1      21.265  10.046  21.183  0.00  0.00    +0.007 C 
ATOM     13  C   UNL     1      22.136   7.685  21.381  0.00  0.00    +0.029 C 
ATOM     14  C   UNL     1      18.832  10.521  20.873  0.00  0.00    +0.009 C 
ATOM     15  C   UNL     1      17.119   8.652  20.796  0.00  0.00    +0.076 C 
ATOM     16  C   UNL     1      22.357   9.152  21.755  0.00  0.00    +0.007 C 
ATOM     17  C   UNL     1      17.382  10.123  21.116  0.00  0.00    +0.023 C 
ATOM     18  C   UNL     1      19.693   9.805  23.134  0.00  0.00    +0.011 C 
ATOM     20  C   UNL     1      17.812   6.240  21.041  0.00  0.00    +0.010 C 
ENDROOT
BRANCH  15   4
ATOM      3  O   UNL     1      14.936   8.177  18.992  0.00  0.00    -0.270 OA
ATOM      4  N   UNL     1      15.751   8.342  21.157  0.00  0.00    -0.308 N 
ATOM     23  C   UNL     1      14.766   8.129  20.208  0.00  0.00    +0.247 C 
ATOM     33  H   UNL     1      15.511   8.385  22.142  0.00  0.00    +0.149 HD
BRANCH  23  28
ATOM      6  N   UNL     1      11.626   8.348  22.278  0.00  0.00    -0.243 NA
ATOM      7  N   UNL     1      11.379   6.551  20.692  0.00  0.00    -0.243 NA
ATOM     28  C   UNL     1      13.407   7.847  20.739  0.00  0.00    +0.073 A 
ATOM     30  C   UNL     1      12.856   8.578  21.771  0.00  0.00    +0.127 A 
ATOM     31  C   UNL     1      12.616   6.836  20.233  0.00  0.00    +0.127 A 
ATOM     32  C   UNL     1      10.953   7.335  21.701  0.00  0.00    +0.221 A 
ENDBRANCH  23  28
ENDBRANCH  15   4
BRANCH  11   1
ATOM      1  O   UNL     1      20.582   5.892  21.124  0.00  0.00    -0.391 OA
ATOM     34  H   UNL     1      19.729   5.857  20.659  0.00  0.00    +0.210 HD
ENDBRANCH  11   1
BRANCH  13  19
ATOM     19  C   UNL     1      23.214   6.820  22.044  0.00  0.00    +0.078 C 
ATOM     21  C   UNL     1      23.980   7.607  23.092  0.00  0.00    +0.017 C 
BRANCH  19  22
ATOM      2  O   UNL     1      24.524   7.097  20.089  0.00  0.00    -0.275 OA
ATOM      5  N   UNL     1      24.557   4.991  21.069  0.00  0.00    -0.301 N 
ATOM     22  C   UNL     1      24.157   6.323  20.978  0.00  0.00    +0.219 C 
ATOM     24  C   UNL     1      25.470   4.433  20.069  0.00  0.00    +0.108 C 
ATOM     25  C   UNL     1      24.173   4.060  22.138  0.00  0.00    +0.108 C 
ATOM     26  C   UNL     1      24.888   3.167  19.446  0.00  0.00    +0.019 C 
ATOM     27  C   UNL     1      23.568   2.785  21.555  0.00  0.00    +0.019 C 
ATOM     29  C   UNL     1      24.496   2.152  20.519  0.00  0.00    +0.003 C 
ENDBRANCH  19  22
ENDBRANCH  13  19
TORSDOF 5
ENDMDL
MODEL 5
REMARK VINA RESULT:      -6.6     28.092     31.176
REMARK  Name = 28963128
REMARK  8 active torsions:
REMARK  status: ('A' for Active; 'I' for Inactive)
REMARK    1  A    between atoms: O_1  and  C_11
REMARK    2  A    between atoms: N_4  and  C_15
REMARK    3  A    between atoms: C_8  and  C_18
REMARK    4  A    between atoms: C_10  and  C_20
REMARK    5  A    between atoms: C_13  and  C_19
REMARK    6  A    between atoms: C_19  and  C_21
REMARK    7  A    between atoms: C_19  and  C_22
REMARK    8  A    between atoms: C_23  and  C_28
REMARK                            x       y       z     vdW  Elec       q    Type
REMARK                         _______ _______ _______ _____ _____    ______ ____
ROOT
ATOM      8  C   UNL     1      15.762   7.198  19.601  0.00  0.00    -0.027 C 
ATOM      9  C   UNL     1      16.322   8.600  20.013  0.00  0.00    +0.028 C 
ATOM     10  C   UNL     1      17.166   8.498  21.335  0.00  0.00    +0.012 C 
ATOM     11  C   UNL     1      15.200   9.678  20.017  0.00  0.00    +0.122 C 
ATOM     12  C   UNL     1      15.035   7.313  18.240  0.00  0.00    +0.007 C 
ATOM     13  C   UNL     1      14.409   9.717  18.689  0.00  0.00    +0.029 C 
ATOM     14  C   UNL     1      16.941   6.215  19.423  0.00  0.00    +0.009 C 
ATOM     15  C   UNL     1      18.303   7.452  21.169  0.00  0.00    +0.076 C 
ATOM     16  C   UNL     1      13.909   8.339  18.252  0.00  0.00    +0.007 C 
ATOM     17  C   UNL     1      17.812   6.095  20.667  0.00  0.00    +0.023 C 
ATOM     18  C   UNL     1      14.773   6.624  20.647  0.00  0.00    +0.011 C 
ATOM     20  C   UNL     1      17.773   9.839  21.782  0.00  0.00    +0.010 C 
ENDROOT
BRANCH  15   4
ATOM      3  O   UNL     1      21.140   7.118  21.458  0.00  0.00    -0.270 OA
ATOM      4  N   UNL     1      19.028   7.248  22.406  0.00  0.00    -0.308 N 
ATOM     23  C   UNL     1      20.403   7.096  22.441  0.00  0.00    +0.247 C 
ATOM     33  H   UNL     1      18.478   7.117  23.249  0.00  0.00    +0.149 HD
BRANCH  23  28
ATOM      6  N   UNL     1      21.050   7.342  26.144  0.00  0.00    -0.243 NA
ATOM      7  N   UNL     1      22.600   5.760  25.195  0.00  0.00    -0.243 NA
ATOM     28  C   UNL     1      20.994   6.869  23.785  0.00  0.00    +0.073 A 
ATOM     30  C   UNL     1      20.536   7.523  24.909  0.00  0.00    +0.127 A 
ATOM     31  C   UNL     1      22.039   5.990  23.990  0.00  0.00    +0.127 A 
ATOM     32  C   UNL     1      22.065   6.460  26.213  0.00  0.00    +0.221 A 
ENDBRANCH  23  28
ENDBRANCH  15   4
BRANCH  11   1
ATOM      1  O   UNL     1      15.782  10.972  20.183  0.00  0.00    -0.391 OA
ATOM     34  H   UNL     1      16.183  11.012  21.068  0.00  0.00    +0.210 HD
ENDBRANCH  11   1
BRANCH  13  19
ATOM     19  C   UNL     1      13.227  10.691  18.759  0.00  0.00    +0.078 C 
ATOM     21  C   UNL     1      13.613  12.059  18.228  0.00  0.00    +0.017 C 
BRANCH  19  22
ATOM      2  O   UNL     1      13.289  11.656  20.923  0.00  0.00    -0.275 OA
ATOM      5  N   UNL     1      11.792   9.907  20.611  0.00  0.00    -0.301 N 
ATOM     22  C   UNL     1      12.777  10.801  20.195  0.00  0.00    +0.219 C 
ATOM     24  C   UNL     1      11.305   9.949  21.991  0.00  0.00    +0.108 C 
ATOM     25  C   UNL     1      11.134   8.910  19.757  0.00  0.00    +0.108 C 
ATOM     26  C   UNL     1      11.412   8.576  22.650  0.00  0.00    +0.019 C 
ATOM     27  C   UNL     1      11.235   7.516  20.373  0.00  0.00    +0.019 C 
ATOM     29  C   UNL     1      10.717   7.505  21.810  0.00  0.00    +0.003 C 
ENDBRANCH  19  22
ENDBRANCH  13  19
TORSDOF 5
ENDMDL
MODEL 6
REMARK VINA RESULT:      -6.5     18.278     20.158
REMARK  Name = 28963128
REMARK  8 active torsions:
REMARK  status: ('A' for Active; 'I' for Inactive)
REMARK    1  A    between atoms: O_1  and  C_11
REMARK    2  A    between atoms: N_4  and  C_15
REMARK    3  A    between atoms: C_8  and  C_18
REMARK    4  A    between atoms: C_10  and  C_20
REMARK    5  A    between atoms: C_13  and  C_19
REMARK    6  A    between atoms: C_19  and  C_21
REMARK    7  A    between atoms: C_19  and  C_22
REMARK    8  A    between atoms: C_23  and  C_28
REMARK                            x       y       z     vdW  Elec       q    Type
REMARK                         _______ _______ _______ _____ _____    ______ ____
ROOT
ATOM      8  C   UNL     1     -15.231   7.724  20.629  0.00  0.00    -0.027 C 
ATOM      9  C   UNL     1     -13.890   6.970  20.914  0.00  0.00    +0.028 C 
ATOM     10  C   UNL     1     -14.087   5.881  22.029  0.00  0.00    +0.012 C 
ATOM     11  C   UNL     1     -12.721   7.968  21.153  0.00  0.00    +0.122 C 
ATOM     12  C   UNL     1     -15.031   8.707  19.452  0.00  0.00    +0.007 C 
ATOM     13  C   UNL     1     -12.591   9.014  20.021  0.00  0.00    +0.029 C 
ATOM     14  C   UNL     1     -16.308   6.698  20.208  0.00  0.00    +0.009 C 
ATOM     15  C   UNL     1     -15.222   4.898  21.628  0.00  0.00    +0.076 C 
ATOM     16  C   UNL     1     -13.914   9.712  19.699  0.00  0.00    +0.007 C 
ATOM     17  C   UNL     1     -16.524   5.600  21.241  0.00  0.00    +0.023 C 
ATOM     18  C   UNL     1     -15.738   8.518  21.860  0.00  0.00    +0.011 C 
ATOM     20  C   UNL     1     -12.810   5.079  22.338  0.00  0.00    +0.010 C 
ENDROOT
BRANCH  15   4
ATOM      3  O   UNL     1     -16.292   5.501  24.223  0.00  0.00    -0.270 OA
ATOM      4  N   UNL     1     -15.510   3.951  22.686  0.00  0.00    -0.308 N 
ATOM     23  C   UNL     1     -16.027   4.343  23.909  0.00  0.00    +0.247 C 
ATOM     33  H   UNL     1     -15.223   2.990  22.537  0.00  0.00    +0.149 HD
BRANCH  23  28
ATOM      6  N   UNL     1     -16.273   2.489  27.178  0.00  0.00    -0.243 NA
ATOM      7  N   UNL     1     -16.814   0.969  25.388  0.00  0.00    -0.243 NA
ATOM     28  C   UNL     1     -16.243   3.255  24.897  0.00  0.00    +0.073 A 
ATOM     30  C   UNL     1     -16.086   3.453  26.253  0.00  0.00    +0.127 A 
ATOM     31  C   UNL     1     -16.611   1.980  24.518  0.00  0.00    +0.127 A 
ATOM     32  C   UNL     1     -16.630   1.288  26.683  0.00  0.00    +0.221 A 
ENDBRANCH  23  28
ENDBRANCH  15   4
BRANCH  11   1
ATOM      1  O   UNL     1     -11.484   7.254  21.192  0.00  0.00    -0.391 OA
ATOM     34  H   UNL     1     -10.765   7.901  21.290  0.00  0.00    +0.210 HD
ENDBRANCH  11   1
BRANCH  13  19
ATOM     19  C   UNL     1     -11.521  10.065  20.338  0.00  0.00    +0.078 C 
ATOM     21  C   UNL     1     -11.957  10.963  21.481  0.00  0.00    +0.017 C 
BRANCH  19  22
ATOM      2  O   UNL     1     -11.630  12.070  19.079  0.00  0.00    -0.275 OA
ATOM      5  N   UNL     1     -10.644  10.244  18.036  0.00  0.00    -0.301 N 
ATOM     22  C   UNL     1     -11.273  10.889  19.099  0.00  0.00    +0.219 C 
ATOM     24  C   UNL     1     -10.370  10.977  16.797  0.00  0.00    +0.108 C 
ATOM     25  C   UNL     1     -10.168   8.855  18.046  0.00  0.00    +0.108 C 
ATOM     26  C   UNL     1     -10.945  10.240  15.590  0.00  0.00    +0.019 C 
ATOM     27  C   UNL     1     -10.738   8.078  16.861  0.00  0.00    +0.019 C 
ATOM     29  C   UNL     1     -10.457   8.793  15.541  0.00  0.00    +0.003 C 
ENDBRANCH  19  22
ENDBRANCH  13  19
TORSDOF 5
ENDMDL
MODEL 7
REMARK VINA RESULT:      -6.5     25.216     27.468
REMARK  Name = 28963128
REMARK  8 active torsions:
REMARK  status: ('A' for Active; 'I' for Inactive)
REMARK    1  A    between atoms: O_1  and  C_11
REMARK    2  A    between atoms: N_4  and  C_15
REMARK    3  A    between atoms: C_8  and  C_18
REMARK    4  A    between atoms: C_10  and  C_20
REMARK    5  A    between atoms: C_13  and  C_19
REMARK    6  A    between atoms: C_19  and  C_21
REMARK    7  A    between atoms: C_19  and  C_22
REMARK    8  A    between atoms: C_23  and  C_28
REMARK                            x       y       z     vdW  Elec       q    Type
REMARK                         _______ _______ _______ _____ _____    ______ ____
ROOT
ATOM      8  C   UNL     1       9.498   6.074   5.960  0.00  0.00    -0.027 C 
ATOM      9  C   UNL     1      10.458   7.227   5.517  0.00  0.00    +0.028 C 
ATOM     10  C   UNL     1       9.954   8.613   6.056  0.00  0.00    +0.012 C 
ATOM     11  C   UNL     1      10.744   7.167   3.988  0.00  0.00    +0.122 C 
ATOM     12  C   UNL     1      10.083   4.713   5.511  0.00  0.00    +0.007 C 
ATOM     13  C   UNL     1      11.230   5.773   3.529  0.00  0.00    +0.029 C 
ATOM     14  C   UNL     1       9.405   6.060   7.503  0.00  0.00    +0.009 C 
ATOM     15  C   UNL     1       9.793   8.564   7.601  0.00  0.00    +0.076 C 
ATOM     16  C   UNL     1      10.326   4.637   4.010  0.00  0.00    +0.007 C 
ATOM     17  C   UNL     1       8.944   7.389   8.086  0.00  0.00    +0.023 C 
ATOM     18  C   UNL     1       8.075   6.225   5.365  0.00  0.00    +0.011 C 
ATOM     20  C   UNL     1      10.870   9.790   5.680  0.00  0.00    +0.010 C 
ENDROOT
BRANCH  15   4
ATOM      3  O   UNL     1      11.142  10.570   9.151  0.00  0.00    -0.270 OA
ATOM      4  N   UNL     1       9.217   9.789   8.119  0.00  0.00    -0.308 N 
ATOM     23  C   UNL     1       9.955  10.697   8.859  0.00  0.00    +0.247 C 
ATOM     33  H   UNL     1       8.217   9.915   8.005  0.00  0.00    +0.149 HD
BRANCH  23  28
ATOM      6  N   UNL     1       8.436  14.141   8.989  0.00  0.00    -0.243 NA
ATOM      7  N   UNL     1       7.917  12.993  11.043  0.00  0.00    -0.243 NA
ATOM     28  C   UNL     1       9.214  11.892   9.340  0.00  0.00    +0.073 A 
ATOM     30  C   UNL     1       9.099  13.038   8.584  0.00  0.00    +0.127 A 
ATOM     31  C   UNL     1       8.596  11.926  10.575  0.00  0.00    +0.127 A 
ATOM     32  C   UNL     1       7.877  14.051  10.211  0.00  0.00    +0.221 A 
ENDBRANCH  23  28
ENDBRANCH  15   4
BRANCH  11   1
ATOM      1  O   UNL     1      11.784   8.090   3.661  0.00  0.00    -0.391 OA
ATOM     34  H   UNL     1      11.374   8.880   3.269  0.00  0.00    +0.210 HD
ENDBRANCH  11   1
BRANCH  13  19
ATOM     19  C   UNL     1      11.380   5.697   2.005  0.00  0.00    +0.078 C 
ATOM     21  C   UNL     1      10.027   5.569   1.327  0.00  0.00    +0.017 C 
BRANCH  19  22
ATOM      2  O   UNL     1      11.992   3.413   2.173  0.00  0.00    -0.275 OA
ATOM      5  N   UNL     1      13.295   4.735   0.776  0.00  0.00    -0.301 N 
ATOM     22  C   UNL     1      12.244   4.509   1.663  0.00  0.00    +0.219 C 
ATOM     24  C   UNL     1      14.180   3.632   0.398  0.00  0.00    +0.108 C 
ATOM     25  C   UNL     1      13.592   6.015   0.119  0.00  0.00    +0.108 C 
ATOM     26  C   UNL     1      15.642   3.996   0.647  0.00  0.00    +0.019 C 
ATOM     27  C   UNL     1      15.043   6.424   0.362  0.00  0.00    +0.019 C 
ATOM     29  C   UNL     1      16.009   5.311  -0.040  0.00  0.00    +0.003 C 
ENDBRANCH  19  22
ENDBRANCH  13  19
TORSDOF 5
ENDMDL
MODEL 8
REMARK VINA RESULT:      -6.5     29.350     31.644
REMARK  Name = 28963128
REMARK  8 active torsions:
REMARK  status: ('A' for Active; 'I' for Inactive)
REMARK    1  A    between atoms: O_1  and  C_11
REMARK    2  A    between atoms: N_4  and  C_15
REMARK    3  A    between atoms: C_8  and  C_18
REMARK    4  A    between atoms: C_10  and  C_20
REMARK    5  A    between atoms: C_13  and  C_19
REMARK    6  A    between atoms: C_19  and  C_21
REMARK    7  A    between atoms: C_19  and  C_22
REMARK    8  A    between atoms: C_23  and  C_28
REMARK                            x       y       z     vdW  Elec       q    Type
REMARK                         _______ _______ _______ _____ _____    ______ ____
ROOT
ATOM      8  C   UNL     1      -1.101   6.581  39.640  0.00  0.00    -0.027 C 
ATOM      9  C   UNL     1      -2.532   7.159  39.382  0.00  0.00    +0.028 C 
ATOM     10  C   UNL     1      -2.465   8.417  38.443  0.00  0.00    +0.012 C 
ATOM     11  C   UNL     1      -3.308   7.360  40.715  0.00  0.00    +0.122 C 
ATOM     12  C   UNL     1      -1.211   5.281  40.473  0.00  0.00    +0.007 C 
ATOM     13  C   UNL     1      -3.327   6.085  41.590  0.00  0.00    +0.029 C 
ATOM     14  C   UNL     1      -0.450   6.218  38.286  0.00  0.00    +0.009 C 
ATOM     15  C   UNL     1      -1.743   8.059  37.114  0.00  0.00    +0.076 C 
ATOM     16  C   UNL     1      -1.936   5.483  41.797  0.00  0.00    +0.007 C 
ATOM     17  C   UNL     1      -0.382   7.395  37.322  0.00  0.00    +0.023 C 
ATOM     18  C   UNL     1      -0.185   7.579  40.394  0.00  0.00    +0.011 C 
ATOM     20  C   UNL     1      -3.844   9.019  38.123  0.00  0.00    +0.010 C 
ENDROOT
BRANCH  15   4
ATOM      3  O   UNL     1      -0.359  10.476  37.811  0.00  0.00    -0.270 OA
ATOM      4  N   UNL     1      -1.561   9.224  36.273  0.00  0.00    -0.308 N 
ATOM     23  C   UNL     1      -0.874  10.346  36.703  0.00  0.00    +0.247 C 
ATOM     33  H   UNL     1      -2.044   9.232  35.381  0.00  0.00    +0.149 HD
BRANCH  23  28
ATOM      6  N   UNL     1      -1.851  13.279  34.550  0.00  0.00    -0.243 NA
ATOM      7  N   UNL     1       0.482  12.799  34.185  0.00  0.00    -0.243 NA
ATOM     28  C   UNL     1      -0.795  11.468  35.732  0.00  0.00    +0.073 A 
ATOM     30  C   UNL     1      -1.887  12.254  35.427  0.00  0.00    +0.127 A 
ATOM     31  C   UNL     1       0.375  11.789  35.073  0.00  0.00    +0.127 A 
ATOM     32  C   UNL     1      -0.653  13.492  33.973  0.00  0.00    +0.221 A 
ENDBRANCH  23  28
ENDBRANCH  15   4
BRANCH  11   1
ATOM      1  O   UNL     1      -4.672   7.678  40.430  0.00  0.00    -0.391 OA
ATOM     34  H   UNL     1      -4.708   8.088  39.549  0.00  0.00    +0.210 HD
ENDBRANCH  11   1
BRANCH  13  19
ATOM     19  C   UNL     1      -3.981   6.340  42.953  0.00  0.00    +0.078 C 
ATOM     21  C   UNL     1      -3.036   5.993  44.088  0.00  0.00    +0.017 C 
BRANCH  19  22
ATOM      2  O   UNL     1      -5.151   4.279  42.954  0.00  0.00    -0.275 OA
ATOM      5  N   UNL     1      -6.430   6.196  43.243  0.00  0.00    -0.301 N 
ATOM     22  C   UNL     1      -5.235   5.506  43.050  0.00  0.00    +0.219 C 
ATOM     24  C   UNL     1      -7.690   5.457  43.345  0.00  0.00    +0.108 C 
ATOM     25  C   UNL     1      -6.556   7.650  43.406  0.00  0.00    +0.108 C 
ATOM     26  C   UNL     1      -8.715   5.986  42.345  0.00  0.00    +0.019 C 
ATOM     27  C   UNL     1      -7.560   8.222  42.408  0.00  0.00    +0.019 C 
ATOM     29  C   UNL     1      -8.902   7.495  42.492  0.00  0.00    +0.003 C 
ENDBRANCH  19  22
ENDBRANCH  13  19
TORSDOF 5
ENDMDL
MODEL 9
REMARK VINA RESULT:      -6.5     27.456     30.920
REMARK  Name = 28963128
REMARK  8 active torsions:
REMARK  status: ('A' for Active; 'I' for Inactive)
REMARK    1  A    between atoms: O_1  and  C_11
REMARK    2  A    between atoms: N_4  and  C_15
REMARK    3  A    between atoms: C_8  and  C_18
REMARK    4  A    between atoms: C_10  and  C_20
REMARK    5  A    between atoms: C_13  and  C_19
REMARK    6  A    between atoms: C_19  and  C_21
REMARK    7  A    between atoms: C_19  and  C_22
REMARK    8  A    between atoms: C_23  and  C_28
REMARK                            x       y       z     vdW  Elec       q    Type
REMARK                         _______ _______ _______ _____ _____    ______ ____
ROOT
ATOM      8  C   UNL     1      12.516   9.014  17.385  0.00  0.00    -0.027 C 
ATOM      9  C   UNL     1      13.236  10.251  18.015  0.00  0.00    +0.028 C 
ATOM     10  C   UNL     1      14.503  10.649  17.175  0.00  0.00    +0.012 C 
ATOM     11  C   UNL     1      13.483  10.046  19.538  0.00  0.00    +0.122 C 
ATOM     12  C   UNL     1      11.215   8.719  18.169  0.00  0.00    +0.007 C 
ATOM     13  C   UNL     1      12.196   9.650  20.300  0.00  0.00    +0.029 C 
ATOM     14  C   UNL     1      12.122   9.346  15.928  0.00  0.00    +0.009 C 
ATOM     15  C   UNL     1      14.106  10.909  15.695  0.00  0.00    +0.076 C 
ATOM     16  C   UNL     1      11.456   8.478  19.653  0.00  0.00    +0.007 C 
ATOM     17  C   UNL     1      13.308   9.765  15.069  0.00  0.00    +0.023 C 
ATOM     18  C   UNL     1      13.402   7.742  17.395  0.00  0.00    +0.011 C 
ATOM     20  C   UNL     1      15.244  11.880  17.724  0.00  0.00    +0.010 C 
ENDROOT
BRANCH  15   4
ATOM      3  O   UNL     1      14.256  12.711  13.464  0.00  0.00    -0.270 OA
ATOM      4  N   UNL     1      15.267  11.164  14.866  0.00  0.00    -0.308 N 
ATOM     23  C   UNL     1      15.238  12.056  13.808  0.00  0.00    +0.247 C 
ATOM     33  H   UNL     1      16.085  10.587  15.025  0.00  0.00    +0.149 HD
BRANCH  23  28
ATOM      6  N   UNL     1      18.891  12.476  12.990  0.00  0.00    -0.243 NA
ATOM      7  N   UNL     1      17.659  12.272  10.929  0.00  0.00    -0.243 NA
ATOM     28  C   UNL     1      16.502  12.188  13.039  0.00  0.00    +0.073 A 
ATOM     30  C   UNL     1      17.724  12.352  13.657  0.00  0.00    +0.127 A 
ATOM     31  C   UNL     1      16.530  12.155  11.659  0.00  0.00    +0.127 A 
ATOM     32  C   UNL     1      18.786  12.428  11.648  0.00  0.00    +0.221 A 
ENDBRANCH  23  28
ENDBRANCH  15   4
BRANCH  11   1
ATOM      1  O   UNL     1      13.939  11.270  20.117  0.00  0.00    -0.391 OA
ATOM     34  H   UNL     1      14.007  11.142  21.078  0.00  0.00    +0.210 HD
ENDBRANCH  11   1
BRANCH  13  19
ATOM     19  C   UNL     1      12.483   9.325  21.770  0.00  0.00    +0.078 C 
ATOM     21  C   UNL     1      12.547   7.826  21.998  0.00  0.00    +0.017 C 
BRANCH  19  22
ATOM      2  O   UNL     1      10.271   9.422  22.614  0.00  0.00    -0.275 OA
ATOM      5  N   UNL     1      11.740  11.055  23.369  0.00  0.00    -0.301 N 
ATOM     22  C   UNL     1      11.394   9.932  22.620  0.00  0.00    +0.219 C 
ATOM     24  C   UNL     1      10.737  11.702  24.218  0.00  0.00    +0.108 C 
ATOM     25  C   UNL     1      13.078  11.657  23.431  0.00  0.00    +0.108 C 
ATOM     26  C   UNL     1      10.632  13.192  23.898  0.00  0.00    +0.019 C 
ATOM     27  C   UNL     1      13.018  13.146  23.098  0.00  0.00    +0.019 C 
ATOM     29  C   UNL     1      11.998  13.871  23.975  0.00  0.00    +0.003 C 
ENDBRANCH  19  22
ENDBRANCH  13  19
TORSDOF 5
ENDMDL
MODEL 10
REMARK VINA RESULT:      -6.4      3.448      4.135
REMARK  Name = 28963128
REMARK  8 active torsions:
REMARK  status: ('A' for Active; 'I' for Inactive)
REMARK    1  A    between atoms: O_1  and  C_11
REMARK    2  A    between atoms: N_4  and  C_15
REMARK    3  A    between atoms: C_8  and  C_18
REMARK    4  A    between atoms: C_10  and  C_20
REMARK    5  A    between atoms: C_13  and  C_19
REMARK    6  A    between atoms: C_19  and  C_21
REMARK    7  A    between atoms: C_19  and  C_22
REMARK    8  A    between atoms: C_23  and  C_28
REMARK                            x       y       z     vdW  Elec       q    Type
REMARK                         _______ _______ _______ _____ _____    ______ ____
ROOT
ATOM      8  C   UNL     1      -5.111 -11.086  17.863  0.00  0.00    -0.027 C 
ATOM      9  C   UNL     1      -5.955 -12.037  16.951  0.00  0.00    +0.028 C 
ATOM     10  C   UNL     1      -6.677 -13.138  17.808  0.00  0.00    +0.012 C 
ATOM     11  C   UNL     1      -5.112 -12.566  15.755  0.00  0.00    +0.122 C 
ATOM     12  C   UNL     1      -4.507  -9.949  17.004  0.00  0.00    +0.007 C 
ATOM     13  C   UNL     1      -4.426 -11.430  14.962  0.00  0.00    +0.029 C 
ATOM     14  C   UNL     1      -6.040 -10.438  18.914  0.00  0.00    +0.009 C 
ATOM     15  C   UNL     1      -7.551 -12.476  18.910  0.00  0.00    +0.076 C 
ATOM     16  C   UNL     1      -3.648 -10.463  15.856  0.00  0.00    +0.007 C 
ATOM     17  C   UNL     1      -6.789 -11.459  19.760  0.00  0.00    +0.023 C 
ATOM     18  C   UNL     1      -3.960 -11.827  18.589  0.00  0.00    +0.011 C 
ATOM     20  C   UNL     1      -7.550 -14.092  16.975  0.00  0.00    +0.010 C 
ENDROOT
BRANCH  15   4
ATOM      3  O   UNL     1     -10.136 -12.339  20.152  0.00  0.00    -0.270 OA
ATOM      4  N   UNL     1      -8.139 -13.462  19.792  0.00  0.00    -0.308 N 
ATOM     23  C   UNL     1      -9.398 -13.304  20.344  0.00  0.00    +0.247 C 
ATOM     33  H   UNL     1      -7.550 -14.238  20.077  0.00  0.00    +0.149 HD
BRANCH  23  28
ATOM      6  N   UNL     1     -11.628 -15.654  22.266  0.00  0.00    -0.243 NA
ATOM      7  N   UNL     1      -9.332 -16.181  22.775  0.00  0.00    -0.243 NA
ATOM     28  C   UNL     1      -9.849 -14.392  21.249  0.00  0.00    +0.073 A 
ATOM     30  C   UNL     1     -11.183 -14.674  21.451  0.00  0.00    +0.127 A 
ATOM     31  C   UNL     1      -8.958 -15.185  21.945  0.00  0.00    +0.127 A 
ATOM     32  C   UNL     1     -10.662 -16.357  22.888  0.00  0.00    +0.221 A 
ENDBRANCH  23  28
ENDBRANCH  15   4
BRANCH  11   1
ATOM      1  O   UNL     1      -5.966 -13.248  14.834  0.00  0.00    -0.391 OA
ATOM     34  H   UNL     1      -6.768 -12.712  14.713  0.00  0.00    +0.210 HD
ENDBRANCH  11   1
BRANCH  13  19
ATOM     19  C   UNL     1      -3.498 -11.977  13.871  0.00  0.00    +0.078 C 
ATOM     21  C   UNL     1      -2.192 -12.476  14.463  0.00  0.00    +0.017 C 
BRANCH  19  22
ATOM      2  O   UNL     1      -2.150 -10.281  12.911  0.00  0.00    -0.275 OA
ATOM      5  N   UNL     1      -4.240 -10.610  11.953  0.00  0.00    -0.301 N 
ATOM     22  C   UNL     1      -3.228 -10.880  12.872  0.00  0.00    +0.219 C 
ATOM     24  C   UNL     1      -4.054  -9.557  10.952  0.00  0.00    +0.108 C 
ATOM     25  C   UNL     1      -5.514 -11.334  11.853  0.00  0.00    +0.108 C 
ATOM     26  C   UNL     1      -5.205  -8.554  10.994  0.00  0.00    +0.019 C 
ATOM     27  C   UNL     1      -6.693 -10.366  11.911  0.00  0.00    +0.019 C 
ATOM     29  C   UNL     1      -6.555  -9.258  10.868  0.00  0.00    +0.003 C 
ENDBRANCH  19  22
ENDBRANCH  13  19
TORSDOF 5
ENDMDL
