MODEL 1
REMARK VINA RESULT:      -7.8      0.000      0.000
REMARK  Name = 7164917
REMARK  7 active torsions:
REMARK  status: ('A' for Active; 'I' for Inactive)
REMARK    1  A    between atoms: N_6  and  C_18
REMARK    2  A    between atoms: N_10  and  C_29
REMARK    3  A    between atoms: C_11  and  C_14
REMARK    4  A    between atoms: C_14  and  C_18
REMARK    5  A    between atoms: C_18  and  C_24
REMARK    6  A    between atoms: C_19  and  C_21
REMARK    7  A    between atoms: C_25  and  C_27
REMARK                            x       y       z     vdW  Elec       q    Type
REMARK                         _______ _______ _______ _____ _____    ______ ____
ROOT
ATOM      4  O   UNL     1      13.380   7.895  22.076  0.00  0.00    -0.269 OA
ATOM      5  O   UNL     1      13.404   8.946  15.201  0.00  0.00    -0.252 OA
ATOM      7  N   UNL     1      12.957   9.232  20.230  0.00  0.00    -0.283 N 
ATOM      8  N   UNL     1      13.158   9.740  17.360  0.00  0.00    -0.282 N 
ATOM     10  N   UNL     1      13.619  11.231  15.592  0.00  0.00    -0.269 N 
ATOM     19  C   UNL     1      13.434   8.203  19.302  0.00  0.00    +0.179 C 
ATOM     20  C   UNL     1      12.908   8.394  17.882  0.00  0.00    +0.141 C 
ATOM     22  C   UNL     1      12.430  10.468  19.633  0.00  0.00    +0.128 C 
ATOM     23  C   UNL     1      13.131  10.841  18.332  0.00  0.00    +0.128 C 
ATOM     25  C   UNL     1      12.927   8.944  21.612  0.00  0.00    +0.254 C 
ATOM     26  C   UNL     1      13.391   9.907  15.973  0.00  0.00    +0.307 C 
ATOM     40  H   UNL     1      13.667  11.942  16.313  0.00  0.00    +0.156 HD
ENDROOT
BRANCH  10  29
ATOM     29  C   UNL     1      13.882  11.724  14.290  0.00  0.00    +0.035 A 
ATOM     32  C   UNL     1      12.838  12.220  13.508  0.00  0.00    +0.023 A 
ATOM     33  C   UNL     1      15.184  11.713  13.790  0.00  0.00    +0.023 A 
ATOM     34  C   UNL     1      13.097  12.708  12.227  0.00  0.00    +0.002 A 
ATOM     35  C   UNL     1      15.442  12.199  12.508  0.00  0.00    +0.002 A 
ATOM     36  C   UNL     1      14.399  12.697  11.727  0.00  0.00    +0.000 A 
ENDBRANCH  10  29
BRANCH  25  27
ATOM      1  S   UNL     1      13.343  11.200  23.107  0.00  0.00    -0.092 S 
ATOM     27  C   UNL     1      12.345   9.948  22.497  0.00  0.00    +0.074 A 
ATOM     28  C   UNL     1      11.047  10.057  22.945  0.00  0.00    +0.021 A 
ATOM     30  C   UNL     1      10.868  11.183  23.800  0.00  0.00    +0.008 A 
ATOM     31  C   UNL     1      12.037  11.891  23.974  0.00  0.00    +0.046 A 
ENDBRANCH  25  27
BRANCH  19  21
ATOM      2  O   UNL     1      15.563   9.260  19.047  0.00  0.00    -0.274 OA
ATOM      6  N   UNL     1      15.485   7.026  19.698  0.00  0.00    -0.302 N 
ATOM     21  C   UNL     1      14.936   8.244  19.336  0.00  0.00    +0.236 C 
ATOM     37  H   UNL     1      14.870   6.228  19.832  0.00  0.00    +0.150 HD
BRANCH   6  18
ATOM     18  C   UNL     1      16.910   6.794  19.782  0.00  0.00    +0.159 C 
BRANCH  18  24
ATOM      3  O   UNL     1      16.601   5.450  17.782  0.00  0.00    -0.274 OA
ATOM      9  N   UNL     1      18.488   5.114  19.048  0.00  0.00    -0.328 N 
ATOM     24  C   UNL     1      17.294   5.739  18.755  0.00  0.00    +0.231 C 
ATOM     38  H   UNL     1      18.855   4.384  18.446  0.00  0.00    +0.145 HD
ATOM     39  H   UNL     1      19.041   5.349  19.865  0.00  0.00    +0.145 HD
ENDBRANCH  18  24
BRANCH  18  14
ATOM     14  C   UNL     1      17.353   6.430  21.203  0.00  0.00    +0.035 C 
BRANCH  14  11
ATOM     11  C   UNL     1      18.368   7.396  21.809  0.00  0.00    -0.009 C 
ATOM     12  C   UNL     1      19.790   6.829  21.695  0.00  0.00    +0.003 C 
ATOM     13  C   UNL     1      18.274   8.773  21.140  0.00  0.00    +0.003 C 
ATOM     15  C   UNL     1      20.830   7.801  22.248  0.00  0.00    +0.000 C 
ATOM     16  C   UNL     1      19.317   9.742  21.694  0.00  0.00    +0.000 C 
ATOM     17  C   UNL     1      20.727   9.172  21.586  0.00  0.00    +0.000 C 
ENDBRANCH  14  11
ENDBRANCH  18  14
ENDBRANCH   6  18
ENDBRANCH  19  21
TORSDOF 7
ENDMDL
MODEL 2
REMARK VINA RESULT:      -7.5      1.907      2.782
REMARK  Name = 7164917
REMARK  7 active torsions:
REMARK  status: ('A' for Active; 'I' for Inactive)
REMARK    1  A    between atoms: N_6  and  C_18
REMARK    2  A    between atoms: N_10  and  C_29
REMARK    3  A    between atoms: C_11  and  C_14
REMARK    4  A    between atoms: C_14  and  C_18
REMARK    5  A    between atoms: C_18  and  C_24
REMARK    6  A    between atoms: C_19  and  C_21
REMARK    7  A    between atoms: C_25  and  C_27
REMARK                            x       y       z     vdW  Elec       q    Type
REMARK                         _______ _______ _______ _____ _____    ______ ____
ROOT
ATOM      4  O   UNL     1      12.995   7.587  21.933  0.00  0.00    -0.269 OA
ATOM      5  O   UNL     1      13.152   8.943  15.113  0.00  0.00    -0.252 OA
ATOM      7  N   UNL     1      12.818   9.067  20.158  0.00  0.00    -0.283 N 
ATOM      8  N   UNL     1      13.084   9.665  17.310  0.00  0.00    -0.282 N 
ATOM     10  N   UNL     1      13.805  11.123  15.603  0.00  0.00    -0.269 N 
ATOM     19  C   UNL     1      13.080   8.012  19.176  0.00  0.00    +0.179 C 
ATOM     20  C   UNL     1      12.586   8.368  17.776  0.00  0.00    +0.141 C 
ATOM     22  C   UNL     1      12.532  10.408  19.628  0.00  0.00    +0.128 C 
ATOM     23  C   UNL     1      13.278  10.702  18.331  0.00  0.00    +0.128 C 
ATOM     25  C   UNL     1      12.747   8.724  21.526  0.00  0.00    +0.254 C 
ATOM     26  C   UNL     1      13.332   9.850  15.929  0.00  0.00    +0.307 C 
ATOM     40  H   UNL     1      13.996  11.776  16.355  0.00  0.00    +0.156 HD
ENDROOT
BRANCH  10  29
ATOM     29  C   UNL     1      14.144  11.619  14.320  0.00  0.00    +0.035 A 
ATOM     32  C   UNL     1      15.444  11.470  13.836  0.00  0.00    +0.023 A 
ATOM     33  C   UNL     1      13.179  12.257  13.541  0.00  0.00    +0.023 A 
ATOM     34  C   UNL     1      15.777  11.957  12.572  0.00  0.00    +0.002 A 
ATOM     35  C   UNL     1      13.513  12.745  12.278  0.00  0.00    +0.002 A 
ATOM     36  C   UNL     1      14.812  12.595  11.793  0.00  0.00    +0.000 A 
ENDBRANCH  10  29
BRANCH  25  27
ATOM      1  S   UNL     1      10.749   9.897  22.984  0.00  0.00    -0.092 S 
ATOM     27  C   UNL     1      12.377   9.777  22.466  0.00  0.00    +0.074 A 
ATOM     28  C   UNL     1      13.174  10.745  23.035  0.00  0.00    +0.021 A 
ATOM     30  C   UNL     1      12.439  11.597  23.910  0.00  0.00    +0.008 A 
ATOM     31  C   UNL     1      11.108  11.248  23.974  0.00  0.00    +0.046 A 
ENDBRANCH  25  27
BRANCH  19  21
ATOM      2  O   UNL     1      15.109   7.081  18.320  0.00  0.00    -0.274 OA
ATOM      6  N   UNL     1      15.190   8.366  20.259  0.00  0.00    -0.302 N 
ATOM     21  C   UNL     1      14.562   7.763  19.182  0.00  0.00    +0.236 C 
ATOM     37  H   UNL     1      14.623   8.837  20.959  0.00  0.00    +0.150 HD
BRANCH   6  18
ATOM     18  C   UNL     1      16.610   8.260  20.508  0.00  0.00    +0.159 C 
BRANCH  18  24
ATOM      3  O   UNL     1      17.913   6.268  20.996  0.00  0.00    -0.274 OA
ATOM      9  N   UNL     1      15.856   6.502  21.989  0.00  0.00    -0.328 N 
ATOM     24  C   UNL     1      16.889   6.922  21.178  0.00  0.00    +0.231 C 
ATOM     38  H   UNL     1      15.912   5.621  22.489  0.00  0.00    +0.145 HD
ATOM     39  H   UNL     1      15.007   7.043  22.117  0.00  0.00    +0.145 HD
ENDBRANCH  18  24
BRANCH  18  14
ATOM     14  C   UNL     1      17.147   9.450  21.309  0.00  0.00    +0.035 C 
BRANCH  14  11
ATOM     11  C   UNL     1      16.370  10.748  21.101  0.00  0.00    -0.009 C 
ATOM     12  C   UNL     1      16.524  11.673  22.315  0.00  0.00    +0.003 C 
ATOM     13  C   UNL     1      16.827  11.453  19.817  0.00  0.00    +0.003 C 
ATOM     15  C   UNL     1      15.800  13.001  22.109  0.00  0.00    +0.000 C 
ATOM     16  C   UNL     1      16.102  12.781  19.613  0.00  0.00    +0.000 C 
ATOM     17  C   UNL     1      16.250  13.694  20.826  0.00  0.00    +0.000 C 
ENDBRANCH  14  11
ENDBRANCH  18  14
ENDBRANCH   6  18
ENDBRANCH  19  21
TORSDOF 7
ENDMDL
MODEL 3
REMARK VINA RESULT:      -7.3      2.963      6.929
REMARK  Name = 7164917
REMARK  7 active torsions:
REMARK  status: ('A' for Active; 'I' for Inactive)
REMARK    1  A    between atoms: N_6  and  C_18
REMARK    2  A    between atoms: N_10  and  C_29
REMARK    3  A    between atoms: C_11  and  C_14
REMARK    4  A    between atoms: C_14  and  C_18
REMARK    5  A    between atoms: C_18  and  C_24
REMARK    6  A    between atoms: C_19  and  C_21
REMARK    7  A    between atoms: C_25  and  C_27
REMARK                            x       y       z     vdW  Elec       q    Type
REMARK                         _______ _______ _______ _____ _____    ______ ____
ROOT
ATOM      4  O   UNL     1      11.258  13.729  23.248  0.00  0.00    -0.269 OA
ATOM      5  O   UNL     1      15.462   9.761  19.381  0.00  0.00    -0.252 OA
ATOM      7  N   UNL     1      13.226  12.536  22.969  0.00  0.00    -0.283 N 
ATOM      8  N   UNL     1      14.892  10.707  21.413  0.00  0.00    -0.282 N 
ATOM     10  N   UNL     1      16.313   8.827  21.337  0.00  0.00    -0.269 N 
ATOM     19  C   UNL     1      12.864  12.144  21.604  0.00  0.00    +0.179 C 
ATOM     20  C   UNL     1      14.070  11.733  20.764  0.00  0.00    +0.141 C 
ATOM     22  C   UNL     1      14.543  12.100  23.455  0.00  0.00    +0.128 C 
ATOM     23  C   UNL     1      14.970  10.755  22.879  0.00  0.00    +0.128 C 
ATOM     25  C   UNL     1      12.357  13.385  23.689  0.00  0.00    +0.254 C 
ATOM     26  C   UNL     1      15.564   9.755  20.610  0.00  0.00    +0.307 C 
ATOM     40  H   UNL     1      16.270   8.856  22.349  0.00  0.00    +0.156 HD
ENDROOT
BRANCH  10  29
ATOM     29  C   UNL     1      17.093   7.758  20.832  0.00  0.00    +0.035 A 
ATOM     32  C   UNL     1      18.399   7.572  21.286  0.00  0.00    +0.023 A 
ATOM     33  C   UNL     1      16.555   6.891  19.881  0.00  0.00    +0.023 A 
ATOM     34  C   UNL     1      19.166   6.518  20.790  0.00  0.00    +0.002 A 
ATOM     35  C   UNL     1      17.323   5.837  19.384  0.00  0.00    +0.002 A 
ATOM     36  C   UNL     1      18.628   5.650  19.839  0.00  0.00    +0.000 A 
ENDBRANCH  10  29
BRANCH  25  27
ATOM      1  S   UNL     1      13.056  15.518  25.256  0.00  0.00    -0.092 S 
ATOM     27  C   UNL     1      12.799  13.844  25.002  0.00  0.00    +0.074 A 
ATOM     28  C   UNL     1      13.056  13.103  26.134  0.00  0.00    +0.021 A 
ATOM     30  C   UNL     1      13.470  13.920  27.226  0.00  0.00    +0.008 A 
ATOM     31  C   UNL     1      13.513  15.254  26.886  0.00  0.00    +0.046 A 
ENDBRANCH  25  27
BRANCH  19  21
ATOM      2  O   UNL     1      11.163  10.881  22.711  0.00  0.00    -0.274 OA
ATOM      6  N   UNL     1      11.888  10.193  20.609  0.00  0.00    -0.302 N 
ATOM     21  C   UNL     1      11.872  11.020  21.718  0.00  0.00    +0.236 C 
ATOM     37  H   UNL     1      12.579  10.356  19.882  0.00  0.00    +0.150 HD
BRANCH   6  18
ATOM     18  C   UNL     1      11.046   9.025  20.481  0.00  0.00    +0.159 C 
BRANCH  18  24
ATOM      3  O   UNL     1      12.573   7.532  21.638  0.00  0.00    -0.274 OA
ATOM      9  N   UNL     1      10.404   7.669  22.379  0.00  0.00    -0.328 N 
ATOM     24  C   UNL     1      11.447   8.015  21.546  0.00  0.00    +0.231 C 
ATOM     38  H   UNL     1      10.536   6.997  23.128  0.00  0.00    +0.145 HD
ATOM     39  H   UNL     1       9.473   8.061  22.279  0.00  0.00    +0.145 HD
ENDBRANCH  18  24
BRANCH  18  14
ATOM     14  C   UNL     1      11.078   8.441  19.065  0.00  0.00    +0.035 C 
BRANCH  14  11
ATOM     11  C   UNL     1      12.383   8.693  18.313  0.00  0.00    -0.009 C 
ATOM     12  C   UNL     1      13.054   7.367  17.931  0.00  0.00    +0.003 C 
ATOM     13  C   UNL     1      12.134   9.556  17.069  0.00  0.00    +0.003 C 
ATOM     15  C   UNL     1      14.335   7.592  17.131  0.00  0.00    +0.000 C 
ATOM     16  C   UNL     1      13.416   9.778  16.270  0.00  0.00    +0.000 C 
ATOM     17  C   UNL     1      14.085   8.458  15.900  0.00  0.00    +0.000 C 
ENDBRANCH  14  11
ENDBRANCH  18  14
ENDBRANCH   6  18
ENDBRANCH  19  21
TORSDOF 7
ENDMDL
MODEL 4
REMARK VINA RESULT:      -7.1      4.057      6.517
REMARK  Name = 7164917
REMARK  7 active torsions:
REMARK  status: ('A' for Active; 'I' for Inactive)
REMARK    1  A    between atoms: N_6  and  C_18
REMARK    2  A    between atoms: N_10  and  C_29
REMARK    3  A    between atoms: C_11  and  C_14
REMARK    4  A    between atoms: C_14  and  C_18
REMARK    5  A    between atoms: C_18  and  C_24
REMARK    6  A    between atoms: C_19  and  C_21
REMARK    7  A    between atoms: C_25  and  C_27
REMARK                            x       y       z     vdW  Elec       q    Type
REMARK                         _______ _______ _______ _____ _____    ______ ____
ROOT
ATOM      4  O   UNL     1      10.935  11.785  21.585  0.00  0.00    -0.269 OA
ATOM      5  O   UNL     1      17.734  10.966  20.371  0.00  0.00    -0.252 OA
ATOM      7  N   UNL     1      13.147  11.965  22.253  0.00  0.00    -0.283 N 
ATOM      8  N   UNL     1      15.987  11.431  21.814  0.00  0.00    -0.282 N 
ATOM     10  N   UNL     1      18.074  10.737  22.662  0.00  0.00    -0.269 N 
ATOM     19  C   UNL     1      13.635  11.414  20.986  0.00  0.00    +0.179 C 
ATOM     20  C   UNL     1      15.092  11.772  20.704  0.00  0.00    +0.141 C 
ATOM     22  C   UNL     1      14.165  12.389  23.225  0.00  0.00    +0.128 C 
ATOM     23  C   UNL     1      15.428  11.538  23.168  0.00  0.00    +0.128 C 
ATOM     25  C   UNL     1      11.759  12.156  22.424  0.00  0.00    +0.254 C 
ATOM     26  C   UNL     1      17.317  11.040  21.529  0.00  0.00    +0.307 C 
ATOM     40  H   UNL     1      17.618  10.751  23.568  0.00  0.00    +0.156 HD
ENDROOT
BRANCH  10  29
ATOM     29  C   UNL     1      19.426  10.317  22.714  0.00  0.00    +0.035 A 
ATOM     32  C   UNL     1      20.370  11.087  23.395  0.00  0.00    +0.023 A 
ATOM     33  C   UNL     1      19.814   9.135  22.085  0.00  0.00    +0.023 A 
ATOM     34  C   UNL     1      21.701  10.674  23.447  0.00  0.00    +0.002 A 
ATOM     35  C   UNL     1      21.146   8.722  22.136  0.00  0.00    +0.002 A 
ATOM     36  C   UNL     1      22.089   9.491  22.817  0.00  0.00    +0.000 A 
ENDBRANCH  10  29
BRANCH  25  27
ATOM      1  S   UNL     1      11.168  14.513  23.685  0.00  0.00    -0.092 S 
ATOM     27  C   UNL     1      11.315  12.807  23.652  0.00  0.00    +0.074 A 
ATOM     28  C   UNL     1      10.976  12.235  24.859  0.00  0.00    +0.021 A 
ATOM     30  C   UNL     1      10.590  13.210  25.823  0.00  0.00    +0.008 A 
ATOM     31  C   UNL     1      10.649  14.490  25.317  0.00  0.00    +0.046 A 
ENDBRANCH  25  27
BRANCH  19  21
ATOM      2  O   UNL     1      13.042   9.367  22.070  0.00  0.00    -0.274 OA
ATOM      6  N   UNL     1      13.796   9.298  19.868  0.00  0.00    -0.302 N 
ATOM     21  C   UNL     1      13.446   9.924  21.052  0.00  0.00    +0.236 C 
ATOM     37  H   UNL     1      14.200   9.852  19.119  0.00  0.00    +0.150 HD
BRANCH   6  18
ATOM     18  C   UNL     1      13.728   7.866  19.681  0.00  0.00    +0.159 C 
BRANCH  18  24
ATOM      3  O   UNL     1      11.479   8.281  18.859  0.00  0.00    -0.274 OA
ATOM      9  N   UNL     1      12.005   6.170  19.595  0.00  0.00    -0.328 N 
ATOM     24  C   UNL     1      12.298   7.489  19.320  0.00  0.00    +0.231 C 
ATOM     38  H   UNL     1      11.081   5.792  19.409  0.00  0.00    +0.145 HD
ATOM     39  H   UNL     1      12.684   5.531  19.994  0.00  0.00    +0.145 HD
ENDBRANCH  18  24
BRANCH  18  14
ATOM     14  C   UNL     1      14.256   7.098  20.896  0.00  0.00    +0.035 C 
BRANCH  14  11
ATOM     11  C   UNL     1      15.580   6.375  20.654  0.00  0.00    -0.009 C 
ATOM     12  C   UNL     1      15.950   6.408  19.165  0.00  0.00    +0.003 C 
ATOM     13  C   UNL     1      16.697   6.990  21.507  0.00  0.00    +0.003 C 
ATOM     15  C   UNL     1      17.297   5.737  18.904  0.00  0.00    +0.000 C 
ATOM     16  C   UNL     1      18.042   6.318  21.243  0.00  0.00    +0.000 C 
ATOM     17  C   UNL     1      18.403   6.344  19.762  0.00  0.00    +0.000 C 
ENDBRANCH  14  11
ENDBRANCH  18  14
ENDBRANCH   6  18
ENDBRANCH  19  21
TORSDOF 7
ENDMDL
MODEL 5
REMARK VINA RESULT:      -7.0     23.370     26.607
REMARK  Name = 7164917
REMARK  7 active torsions:
REMARK  status: ('A' for Active; 'I' for Inactive)
REMARK    1  A    between atoms: N_6  and  C_18
REMARK    2  A    between atoms: N_10  and  C_29
REMARK    3  A    between atoms: C_11  and  C_14
REMARK    4  A    between atoms: C_14  and  C_18
REMARK    5  A    between atoms: C_18  and  C_24
REMARK    6  A    between atoms: C_19  and  C_21
REMARK    7  A    between atoms: C_25  and  C_27
REMARK                            x       y       z     vdW  Elec       q    Type
REMARK                         _______ _______ _______ _____ _____    ______ ____
ROOT
ATOM      4  O   UNL     1       8.531  -5.464  37.847  0.00  0.00    -0.269 OA
ATOM      5  O   UNL     1       6.170 -11.895  36.649  0.00  0.00    -0.252 OA
ATOM      7  N   UNL     1       6.784  -6.973  37.633  0.00  0.00    -0.283 N 
ATOM      8  N   UNL     1       5.792  -9.631  36.931  0.00  0.00    -0.282 N 
ATOM     10  N   UNL     1       4.190 -10.975  35.843  0.00  0.00    -0.269 N 
ATOM     19  C   UNL     1       7.700  -8.082  37.355  0.00  0.00    +0.179 C 
ATOM     20  C   UNL     1       7.074  -9.450  37.619  0.00  0.00    +0.141 C 
ATOM     22  C   UNL     1       5.352  -7.299  37.705  0.00  0.00    +0.128 C 
ATOM     23  C   UNL     1       4.957  -8.434  36.768  0.00  0.00    +0.128 C 
ATOM     25  C   UNL     1       7.322  -5.699  37.919  0.00  0.00    +0.254 C 
ATOM     26  C   UNL     1       5.429 -10.924  36.485  0.00  0.00    +0.307 C 
ATOM     40  H   UNL     1       3.689 -10.107  35.687  0.00  0.00    +0.156 HD
ENDROOT
BRANCH  10  29
ATOM     29  C   UNL     1       3.548 -12.109  35.287  0.00  0.00    +0.035 A 
ATOM     32  C   UNL     1       2.792 -12.952  36.102  0.00  0.00    +0.023 A 
ATOM     33  C   UNL     1       3.671 -12.382  33.925  0.00  0.00    +0.023 A 
ATOM     34  C   UNL     1       2.159 -14.068  35.554  0.00  0.00    +0.002 A 
ATOM     35  C   UNL     1       3.040 -13.499  33.378  0.00  0.00    +0.002 A 
ATOM     36  C   UNL     1       2.283 -14.341  34.192  0.00  0.00    +0.000 A 
ENDBRANCH  10  29
BRANCH  25  27
ATOM      1  S   UNL     1       5.965  -4.459  39.948  0.00  0.00    -0.092 S 
ATOM     27  C   UNL     1       6.389  -4.644  38.299  0.00  0.00    +0.074 A 
ATOM     28  C   UNL     1       5.758  -3.719  37.496  0.00  0.00    +0.021 A 
ATOM     30  C   UNL     1       4.916  -2.846  38.245  0.00  0.00    +0.008 A 
ATOM     31  C   UNL     1       4.935  -3.139  39.591  0.00  0.00    +0.046 A 
ENDBRANCH  25  27
BRANCH  19  21
ATOM      2  O   UNL     1       8.948  -8.712  35.415  0.00  0.00    -0.274 OA
ATOM      6  N   UNL     1       7.513  -6.883  35.287  0.00  0.00    -0.302 N 
ATOM     21  C   UNL     1       8.128  -7.949  35.920  0.00  0.00    +0.236 C 
ATOM     37  H   UNL     1       6.915  -6.266  35.828  0.00  0.00    +0.150 HD
BRANCH   6  18
ATOM     18  C   UNL     1       7.772  -6.525  33.910  0.00  0.00    +0.159 C 
BRANCH  18  24
ATOM      3  O   UNL     1       8.974  -4.414  33.860  0.00  0.00    -0.274 OA
ATOM      9  N   UNL     1       6.683  -4.374  33.708  0.00  0.00    -0.328 N 
ATOM     24  C   UNL     1       7.901  -5.011  33.815  0.00  0.00    +0.231 C 
ATOM     38  H   UNL     1       6.629  -3.363  33.645  0.00  0.00    +0.145 HD
ATOM     39  H   UNL     1       5.803  -4.878  33.691  0.00  0.00    +0.145 HD
ENDBRANCH  18  24
BRANCH  18  14
ATOM     14  C   UNL     1       6.715  -7.092  32.957  0.00  0.00    +0.035 C 
BRANCH  14  11
ATOM     11  C   UNL     1       7.098  -8.424  32.318  0.00  0.00    -0.009 C 
ATOM     12  C   UNL     1       6.476  -9.595  33.091  0.00  0.00    +0.003 C 
ATOM     13  C   UNL     1       6.676  -8.459  30.843  0.00  0.00    +0.003 C 
ATOM     15  C   UNL     1       6.800 -10.937  32.440  0.00  0.00    +0.000 C 
ATOM     16  C   UNL     1       7.001  -9.803  30.195  0.00  0.00    +0.000 C 
ATOM     17  C   UNL     1       6.388 -10.965  30.971  0.00  0.00    +0.000 C 
ENDBRANCH  14  11
ENDBRANCH  18  14
ENDBRANCH   6  18
ENDBRANCH  19  21
TORSDOF 7
ENDMDL
MODEL 6
REMARK VINA RESULT:      -6.9     14.172     19.592
REMARK  Name = 7164917
REMARK  7 active torsions:
REMARK  status: ('A' for Active; 'I' for Inactive)
REMARK    1  A    between atoms: N_6  and  C_18
REMARK    2  A    between atoms: N_10  and  C_29
REMARK    3  A    between atoms: C_11  and  C_14
REMARK    4  A    between atoms: C_14  and  C_18
REMARK    5  A    between atoms: C_18  and  C_24
REMARK    6  A    between atoms: C_19  and  C_21
REMARK    7  A    between atoms: C_25  and  C_27
REMARK                            x       y       z     vdW  Elec       q    Type
REMARK                         _______ _______ _______ _____ _____    ______ ____
ROOT
ATOM      4  O   UNL     1      11.169   8.448  -1.454  0.00  0.00    -0.269 OA
ATOM      5  O   UNL     1      11.925   7.060   5.319  0.00  0.00    -0.252 OA
ATOM      7  N   UNL     1      10.297   8.271   0.687  0.00  0.00    -0.283 N 
ATOM      8  N   UNL     1      10.577   7.493   3.490  0.00  0.00    -0.282 N 
ATOM     10  N   UNL     1       9.681   6.445   5.402  0.00  0.00    -0.269 N 
ATOM     19  C   UNL     1      11.591   7.869   1.244  0.00  0.00    +0.179 C 
ATOM     20  C   UNL     1      11.687   8.099   2.749  0.00  0.00    +0.141 C 
ATOM     22  C   UNL     1       9.186   8.424   1.638  0.00  0.00    +0.128 C 
ATOM     23  C   UNL     1       9.276   7.454   2.811  0.00  0.00    +0.128 C 
ATOM     25  C   UNL     1      10.214   8.590  -0.686  0.00  0.00    +0.254 C 
ATOM     26  C   UNL     1      10.809   7.002   4.797  0.00  0.00    +0.307 C 
ATOM     40  H   UNL     1       8.827   6.372   4.861  0.00  0.00    +0.156 HD
ENDROOT
BRANCH  10  29
ATOM     29  C   UNL     1       9.585   5.873   6.695  0.00  0.00    +0.035 A 
ATOM     32  C   UNL     1       9.903   4.529   6.888  0.00  0.00    +0.023 A 
ATOM     33  C   UNL     1       9.172   6.654   7.774  0.00  0.00    +0.023 A 
ATOM     34  C   UNL     1       9.810   3.966   8.161  0.00  0.00    +0.002 A 
ATOM     35  C   UNL     1       9.077   6.091   9.047  0.00  0.00    +0.002 A 
ATOM     36  C   UNL     1       9.397   4.747   9.240  0.00  0.00    +0.000 A 
ENDBRANCH  10  29
BRANCH  25  27
ATOM      1  S   UNL     1       8.623  10.774  -1.129  0.00  0.00    -0.092 S 
ATOM     27  C   UNL     1       8.937   9.091  -1.185  0.00  0.00    +0.074 A 
ATOM     28  C   UNL     1       7.885   8.386  -1.726  0.00  0.00    +0.021 A 
ATOM     30  C   UNL     1       6.805   9.238  -2.099  0.00  0.00    +0.008 A 
ATOM     31  C   UNL     1       7.074  10.562  -1.829  0.00  0.00    +0.046 A 
ENDBRANCH  25  27
BRANCH  19  21
ATOM      2  O   UNL     1      10.833   5.659   0.735  0.00  0.00    -0.274 OA
ATOM      6  N   UNL     1      13.122   6.070   0.830  0.00  0.00    -0.302 N 
ATOM     21  C   UNL     1      11.784   6.418   0.903  0.00  0.00    +0.236 C 
ATOM     37  H   UNL     1      13.825   6.763   1.073  0.00  0.00    +0.150 HD
BRANCH   6  18
ATOM     18  C   UNL     1      13.577   4.729   0.541  0.00  0.00    +0.159 C 
BRANCH  18  24
ATOM      3  O   UNL     1      14.772   3.091   1.880  0.00  0.00    -0.274 OA
ATOM      9  N   UNL     1      14.940   5.309   2.453  0.00  0.00    -0.328 N 
ATOM     24  C   UNL     1      14.489   4.268   1.669  0.00  0.00    +0.231 C 
ATOM     38  H   UNL     1      15.550   5.137   3.245  0.00  0.00    +0.145 HD
ATOM     39  H   UNL     1      14.683   6.275   2.279  0.00  0.00    +0.145 HD
ENDBRANCH  18  24
BRANCH  18  14
ATOM     14  C   UNL     1      14.238   4.627  -0.837  0.00  0.00    +0.035 C 
BRANCH  14  11
ATOM     11  C   UNL     1      13.391   3.913  -1.888  0.00  0.00    -0.009 C 
ATOM     12  C   UNL     1      12.638   2.730  -1.265  0.00  0.00    +0.003 C 
ATOM     13  C   UNL     1      12.414   4.892  -2.554  0.00  0.00    +0.003 C 
ATOM     15  C   UNL     1      11.742   2.031  -2.285  0.00  0.00    +0.000 C 
ATOM     16  C   UNL     1      11.519   4.190  -3.572  0.00  0.00    +0.000 C 
ATOM     17  C   UNL     1      10.779   3.009  -2.951  0.00  0.00    +0.000 C 
ENDBRANCH  14  11
ENDBRANCH  18  14
ENDBRANCH   6  18
ENDBRANCH  19  21
TORSDOF 7
ENDMDL
MODEL 7
REMARK VINA RESULT:      -6.8     13.927     18.058
REMARK  Name = 7164917
REMARK  7 active torsions:
REMARK  status: ('A' for Active; 'I' for Inactive)
REMARK    1  A    between atoms: N_6  and  C_18
REMARK    2  A    between atoms: N_10  and  C_29
REMARK    3  A    between atoms: C_11  and  C_14
REMARK    4  A    between atoms: C_14  and  C_18
REMARK    5  A    between atoms: C_18  and  C_24
REMARK    6  A    between atoms: C_19  and  C_21
REMARK    7  A    between atoms: C_25  and  C_27
REMARK                            x       y       z     vdW  Elec       q    Type
REMARK                         _______ _______ _______ _____ _____    ______ ____
ROOT
ATOM      4  O   UNL     1      21.677  -5.422  25.345  0.00  0.00    -0.269 OA
ATOM      5  O   UNL     1      16.932  -7.414  30.023  0.00  0.00    -0.252 OA
ATOM      7  N   UNL     1      20.065  -4.921  26.935  0.00  0.00    -0.283 N 
ATOM      8  N   UNL     1      17.935  -5.766  28.749  0.00  0.00    -0.282 N 
ATOM     10  N   UNL     1      15.779  -5.429  29.640  0.00  0.00    -0.269 N 
ATOM     19  C   UNL     1      19.801  -6.338  27.198  0.00  0.00    +0.179 C 
ATOM     20  C   UNL     1      19.140  -6.577  28.553  0.00  0.00    +0.141 C 
ATOM     22  C   UNL     1      19.322  -3.948  27.748  0.00  0.00    +0.128 C 
ATOM     23  C   UNL     1      17.929  -4.436  28.127  0.00  0.00    +0.128 C 
ATOM     25  C   UNL     1      21.076  -4.575  26.011  0.00  0.00    +0.254 C 
ATOM     26  C   UNL     1      16.873  -6.289  29.524  0.00  0.00    +0.307 C 
ATOM     40  H   UNL     1      15.793  -4.555  29.126  0.00  0.00    +0.156 HD
ENDROOT
BRANCH  10  29
ATOM     29  C   UNL     1      14.569  -5.656  30.341  0.00  0.00    +0.035 A 
ATOM     32  C   UNL     1      13.680  -6.636  29.901  0.00  0.00    +0.023 A 
ATOM     33  C   UNL     1      14.267  -4.899  31.473  0.00  0.00    +0.023 A 
ATOM     34  C   UNL     1      12.490  -6.861  30.593  0.00  0.00    +0.002 A 
ATOM     35  C   UNL     1      13.076  -5.122  32.165  0.00  0.00    +0.002 A 
ATOM     36  C   UNL     1      12.188  -6.103  31.725  0.00  0.00    +0.000 A 
ENDBRANCH  10  29
BRANCH  25  27
ATOM      1  S   UNL     1      22.839  -2.545  26.524  0.00  0.00    -0.092 S 
ATOM     27  C   UNL     1      21.387  -3.159  25.853  0.00  0.00    +0.074 A 
ATOM     28  C   UNL     1      20.658  -2.180  25.214  0.00  0.00    +0.021 A 
ATOM     30  C   UNL     1      21.300  -0.909  25.275  0.00  0.00    +0.008 A 
ATOM     31  C   UNL     1      22.494  -0.965  25.959  0.00  0.00    +0.046 A 
ENDBRANCH  25  27
BRANCH  19  21
ATOM      2  O   UNL     1      18.245  -7.849  26.192  0.00  0.00    -0.274 OA
ATOM      6  N   UNL     1      19.045  -6.056  24.940  0.00  0.00    -0.302 N 
ATOM     21  C   UNL     1      18.937  -6.841  26.076  0.00  0.00    +0.236 C 
ATOM     37  H   UNL     1      19.715  -5.293  24.930  0.00  0.00    +0.150 HD
BRANCH   6  18
ATOM     18  C   UNL     1      18.334  -6.338  23.713  0.00  0.00    +0.159 C 
BRANCH  18  24
ATOM      3  O   UNL     1      19.100  -6.138  21.416  0.00  0.00    -0.274 OA
ATOM      9  N   UNL     1      20.551  -6.975  22.987  0.00  0.00    -0.328 N 
ATOM     24  C   UNL     1      19.343  -6.451  22.580  0.00  0.00    +0.231 C 
ATOM     38  H   UNL     1      21.309  -7.110  22.326  0.00  0.00    +0.145 HD
ATOM     39  H   UNL     1      20.733  -7.247  23.947  0.00  0.00    +0.145 HD
ENDBRANCH  18  24
BRANCH  18  14
ATOM     14  C   UNL     1      17.236  -5.308  23.432  0.00  0.00    +0.035 C 
BRANCH  14  11
ATOM     11  C   UNL     1      17.611  -3.875  23.801  0.00  0.00    -0.009 C 
ATOM     12  C   UNL     1      17.600  -2.974  22.558  0.00  0.00    +0.003 C 
ATOM     13  C   UNL     1      16.667  -3.327  24.879  0.00  0.00    +0.003 C 
ATOM     15  C   UNL     1      17.921  -1.524  22.909  0.00  0.00    +0.000 C 
ATOM     16  C   UNL     1      16.990  -1.876  25.228  0.00  0.00    +0.000 C 
ATOM     17  C   UNL     1      16.986  -0.986  23.989  0.00  0.00    +0.000 C 
ENDBRANCH  14  11
ENDBRANCH  18  14
ENDBRANCH   6  18
ENDBRANCH  19  21
TORSDOF 7
ENDMDL
MODEL 8
REMARK VINA RESULT:      -6.8     12.852     15.781
REMARK  Name = 7164917
REMARK  7 active torsions:
REMARK  status: ('A' for Active; 'I' for Inactive)
REMARK    1  A    between atoms: N_6  and  C_18
REMARK    2  A    between atoms: N_10  and  C_29
REMARK    3  A    between atoms: C_11  and  C_14
REMARK    4  A    between atoms: C_14  and  C_18
REMARK    5  A    between atoms: C_18  and  C_24
REMARK    6  A    between atoms: C_19  and  C_21
REMARK    7  A    between atoms: C_25  and  C_27
REMARK                            x       y       z     vdW  Elec       q    Type
REMARK                         _______ _______ _______ _____ _____    ______ ____
ROOT
ATOM      4  O   UNL     1      13.259   8.434   7.174  0.00  0.00    -0.269 OA
ATOM      5  O   UNL     1       7.895  12.823   6.585  0.00  0.00    -0.252 OA
ATOM      7  N   UNL     1      11.756   9.634   5.878  0.00  0.00    -0.283 N 
ATOM      8  N   UNL     1       9.378  11.317   5.645  0.00  0.00    -0.282 N 
ATOM     10  N   UNL     1       7.347  11.817   4.559  0.00  0.00    -0.269 N 
ATOM     19  C   UNL     1      11.103  10.204   7.060  0.00  0.00    +0.179 C 
ATOM     20  C   UNL     1      10.327  11.482   6.750  0.00  0.00    +0.141 C 
ATOM     22  C   UNL     1      11.260  10.080   4.568  0.00  0.00    +0.128 C 
ATOM     23  C   UNL     1       9.767  10.389   4.576  0.00  0.00    +0.128 C 
ATOM     25  C   UNL     1      12.872   8.788   6.057  0.00  0.00    +0.254 C 
ATOM     26  C   UNL     1       8.172  12.057   5.659  0.00  0.00    +0.307 C 
ATOM     40  H   UNL     1       7.626  11.109   3.889  0.00  0.00    +0.156 HD
ENDROOT
BRANCH  10  29
ATOM     29  C   UNL     1       6.083  12.395   4.281  0.00  0.00    +0.035 A 
ATOM     32  C   UNL     1       6.005  13.595   3.574  0.00  0.00    +0.023 A 
ATOM     33  C   UNL     1       4.917  11.764   4.714  0.00  0.00    +0.023 A 
ATOM     34  C   UNL     1       4.761  14.163   3.299  0.00  0.00    +0.002 A 
ATOM     35  C   UNL     1       3.673  12.332   4.440  0.00  0.00    +0.002 A 
ATOM     36  C   UNL     1       3.595  13.532   3.732  0.00  0.00    +0.000 A 
ENDBRANCH  10  29
BRANCH  25  27
ATOM      1  S   UNL     1      14.917   9.206   4.285  0.00  0.00    -0.092 S 
ATOM     27  C   UNL     1      13.565   8.325   4.859  0.00  0.00    +0.074 A 
ATOM     28  C   UNL     1      13.288   7.229   4.071  0.00  0.00    +0.021 A 
ATOM     30  C   UNL     1      14.199   7.110   2.982  0.00  0.00    +0.008 A 
ATOM     31  C   UNL     1      15.136   8.120   2.978  0.00  0.00    +0.046 A 
ENDBRANCH  25  27
BRANCH  19  21
ATOM      2  O   UNL     1       9.343   9.397   8.462  0.00  0.00    -0.274 OA
ATOM      6  N   UNL     1      10.473   7.891   7.093  0.00  0.00    -0.302 N 
ATOM     21  C   UNL     1      10.200   9.142   7.620  0.00  0.00    +0.236 C 
ATOM     37  H   UNL     1      11.264   7.783   6.465  0.00  0.00    +0.150 HD
BRANCH   6  18
ATOM     18  C   UNL     1       9.761   6.695   7.485  0.00  0.00    +0.159 C 
BRANCH  18  24
ATOM      3  O   UNL     1      10.394   5.098   9.203  0.00  0.00    -0.274 OA
ATOM      9  N   UNL     1      12.003   5.820   7.732  0.00  0.00    -0.328 N 
ATOM     24  C   UNL     1      10.720   5.780   8.234  0.00  0.00    +0.231 C 
ATOM     38  H   UNL     1      12.742   5.262   8.147  0.00  0.00    +0.145 HD
ATOM     39  H   UNL     1      12.263   6.402   6.943  0.00  0.00    +0.145 HD
ENDBRANCH  18  24
BRANCH  18  14
ATOM     14  C   UNL     1       9.091   6.005   6.292  0.00  0.00    +0.035 C 
BRANCH  14  11
ATOM     11  C   UNL     1       9.907   6.048   5.003  0.00  0.00    -0.009 C 
ATOM     12  C   UNL     1      10.255   4.629   4.534  0.00  0.00    +0.003 C 
ATOM     13  C   UNL     1       9.152   6.814   3.909  0.00  0.00    +0.003 C 
ATOM     15  C   UNL     1      11.026   4.643   3.216  0.00  0.00    +0.000 C 
ATOM     16  C   UNL     1       9.926   6.826   2.592  0.00  0.00    +0.000 C 
ATOM     17  C   UNL     1      10.277   5.414   2.134  0.00  0.00    +0.000 C 
ENDBRANCH  14  11
ENDBRANCH  18  14
ENDBRANCH   6  18
ENDBRANCH  19  21
TORSDOF 7
ENDMDL
MODEL 9
REMARK VINA RESULT:      -6.7     21.597     26.145
REMARK  Name = 7164917
REMARK  7 active torsions:
REMARK  status: ('A' for Active; 'I' for Inactive)
REMARK    1  A    between atoms: N_6  and  C_18
REMARK    2  A    between atoms: N_10  and  C_29
REMARK    3  A    between atoms: C_11  and  C_14
REMARK    4  A    between atoms: C_14  and  C_18
REMARK    5  A    between atoms: C_18  and  C_24
REMARK    6  A    between atoms: C_19  and  C_21
REMARK    7  A    between atoms: C_25  and  C_27
REMARK                            x       y       z     vdW  Elec       q    Type
REMARK                         _______ _______ _______ _____ _____    ______ ____
ROOT
ATOM      4  O   UNL     1      -0.777  12.714  36.616  0.00  0.00    -0.269 OA
ATOM      5  O   UNL     1      -7.638  12.443  35.512  0.00  0.00    -0.252 OA
ATOM      7  N   UNL     1      -2.610  12.882  35.206  0.00  0.00    -0.283 N 
ATOM      8  N   UNL     1      -5.472  12.568  34.710  0.00  0.00    -0.282 N 
ATOM     10  N   UNL     1      -7.218  11.839  33.303  0.00  0.00    -0.269 N 
ATOM     19  C   UNL     1      -3.546  12.581  36.292  0.00  0.00    +0.179 C 
ATOM     20  C   UNL     1      -4.968  13.052  35.998  0.00  0.00    +0.141 C 
ATOM     22  C   UNL     1      -3.195  13.180  33.891  0.00  0.00    +0.128 C 
ATOM     23  C   UNL     1      -4.487  12.414  33.632  0.00  0.00    +0.128 C 
ATOM     25  C   UNL     1      -1.231  12.973  35.500  0.00  0.00    +0.254 C 
ATOM     26  C   UNL     1      -6.855  12.296  34.572  0.00  0.00    +0.307 C 
ATOM     40  H   UNL     1      -6.488  11.675  32.619  0.00  0.00    +0.156 HD
ENDROOT
BRANCH  10  29
ATOM     29  C   UNL     1      -8.512  11.483  32.849  0.00  0.00    +0.035 A 
ATOM     32  C   UNL     1      -9.136  10.338  33.346  0.00  0.00    +0.023 A 
ATOM     33  C   UNL     1      -9.163  12.277  31.905  0.00  0.00    +0.023 A 
ATOM     34  C   UNL     1     -10.410   9.988  32.900  0.00  0.00    +0.002 A 
ATOM     35  C   UNL     1     -10.437  11.926  31.457  0.00  0.00    +0.002 A 
ATOM     36  C   UNL     1     -11.060  10.783  31.955  0.00  0.00    +0.000 A 
ENDBRANCH  10  29
BRANCH  25  27
ATOM      1  S   UNL     1      -0.136  15.050  34.091  0.00  0.00    -0.092 S 
ATOM     27  C   UNL     1      -0.339  13.381  34.419  0.00  0.00    +0.074 A 
ATOM     28  C   UNL     1       0.409  12.593  33.573  0.00  0.00    +0.021 A 
ATOM     30  C   UNL     1       1.160  13.368  32.643  0.00  0.00    +0.008 A 
ATOM     31  C   UNL     1       0.956  14.720  32.813  0.00  0.00    +0.046 A 
ENDBRANCH  25  27
BRANCH  19  21
ATOM      2  O   UNL     1      -2.708  10.374  35.913  0.00  0.00    -0.274 OA
ATOM      6  N   UNL     1      -4.450  10.672  37.427  0.00  0.00    -0.302 N 
ATOM     21  C   UNL     1      -3.501  11.095  36.513  0.00  0.00    +0.236 C 
ATOM     37  H   UNL     1      -5.113  11.347  37.798  0.00  0.00    +0.150 HD
BRANCH   6  18
ATOM     18  C   UNL     1      -4.630   9.286  37.798  0.00  0.00    +0.159 C 
BRANCH  18  24
ATOM      3  O   UNL     1      -6.668   9.179  39.116  0.00  0.00    -0.274 OA
ATOM      9  N   UNL     1      -6.763   8.582  36.901  0.00  0.00    -0.328 N 
ATOM     24  C   UNL     1      -6.112   9.031  38.030  0.00  0.00    +0.231 C 
ATOM     38  H   UNL     1      -7.755   8.366  36.922  0.00  0.00    +0.145 HD
ATOM     39  H   UNL     1      -6.288   8.446  36.014  0.00  0.00    +0.145 HD
ENDBRANCH  18  24
BRANCH  18  14
ATOM     14  C   UNL     1      -3.763   8.891  38.998  0.00  0.00    +0.035 C 
BRANCH  14  11
ATOM     11  C   UNL     1      -2.895   7.657  38.765  0.00  0.00    -0.009 C 
ATOM     12  C   UNL     1      -1.524   8.058  38.202  0.00  0.00    +0.003 C 
ATOM     13  C   UNL     1      -2.737   6.853  40.062  0.00  0.00    +0.003 C 
ATOM     15  C   UNL     1      -0.617   6.845  38.010  0.00  0.00    +0.000 C 
ATOM     16  C   UNL     1      -1.828   5.641  39.867  0.00  0.00    +0.000 C 
ATOM     17  C   UNL     1      -0.471   6.042  39.299  0.00  0.00    +0.000 C 
ENDBRANCH  14  11
ENDBRANCH  18  14
ENDBRANCH   6  18
ENDBRANCH  19  21
TORSDOF 7
ENDMDL
MODEL 10
REMARK VINA RESULT:      -6.6     12.983     16.193
REMARK  Name = 7164917
REMARK  7 active torsions:
REMARK  status: ('A' for Active; 'I' for Inactive)
REMARK    1  A    between atoms: N_6  and  C_18
REMARK    2  A    between atoms: N_10  and  C_29
REMARK    3  A    between atoms: C_11  and  C_14
REMARK    4  A    between atoms: C_14  and  C_18
REMARK    5  A    between atoms: C_18  and  C_24
REMARK    6  A    between atoms: C_19  and  C_21
REMARK    7  A    between atoms: C_25  and  C_27
REMARK                            x       y       z     vdW  Elec       q    Type
REMARK                         _______ _______ _______ _____ _____    ______ ____
ROOT
ATOM      4  O   UNL     1       9.606   7.852   5.464  0.00  0.00    -0.269 OA
ATOM      5  O   UNL     1      16.111  10.302   5.232  0.00  0.00    -0.252 OA
ATOM      7  N   UNL     1      11.820   7.787   6.148  0.00  0.00    -0.283 N 
ATOM      8  N   UNL     1      14.587   8.692   5.893  0.00  0.00    -0.282 N 
ATOM     10  N   UNL     1      16.887   8.181   5.798  0.00  0.00    -0.269 N 
ATOM     19  C   UNL     1      12.179   8.920   5.291  0.00  0.00    +0.179 C 
ATOM     20  C   UNL     1      13.462   9.618   5.736  0.00  0.00    +0.141 C 
ATOM     22  C   UNL     1      12.887   7.235   6.996  0.00  0.00    +0.128 C 
ATOM     23  C   UNL     1      14.265   7.335   6.352  0.00  0.00    +0.128 C 
ATOM     25  C   UNL     1      10.473   7.365   6.193  0.00  0.00    +0.254 C 
ATOM     26  C   UNL     1      15.897   9.150   5.616  0.00  0.00    +0.307 C 
ATOM     40  H   UNL     1      16.603   7.238   6.040  0.00  0.00    +0.156 HD
ENDROOT
BRANCH  10  29
ATOM     29  C   UNL     1      18.283   8.323   5.606  0.00  0.00    +0.035 A 
ATOM     32  C   UNL     1      18.851   8.026   4.367  0.00  0.00    +0.023 A 
ATOM     33  C   UNL     1      19.091   8.758   6.657  0.00  0.00    +0.023 A 
ATOM     34  C   UNL     1      20.225   8.167   4.177  0.00  0.00    +0.002 A 
ATOM     35  C   UNL     1      20.466   8.897   6.468  0.00  0.00    +0.002 A 
ATOM     36  C   UNL     1      21.033   8.602   5.228  0.00  0.00    +0.000 A 
ENDBRANCH  10  29
BRANCH  25  27
ATOM      1  S   UNL     1      10.120   4.680   6.598  0.00  0.00    -0.092 S 
ATOM     27  C   UNL     1      10.131   6.306   7.137  0.00  0.00    +0.074 A 
ATOM     28  C   UNL     1       9.797   6.411   8.469  0.00  0.00    +0.021 A 
ATOM     30  C   UNL     1       9.528   5.140   9.055  0.00  0.00    +0.008 A 
ATOM     31  C   UNL     1       9.667   4.113   8.149  0.00  0.00    +0.046 A 
ENDBRANCH  25  27
BRANCH  19  21
ATOM      2  O   UNL     1      12.858   9.033   3.002  0.00  0.00    -0.274 OA
ATOM      6  N   UNL     1      11.719   7.145   3.747  0.00  0.00    -0.302 N 
ATOM     21  C   UNL     1      12.305   8.390   3.891  0.00  0.00    +0.236 C 
ATOM     37  H   UNL     1      11.213   6.744   4.532  0.00  0.00    +0.150 HD
BRANCH   6  18
ATOM     18  C   UNL     1      11.683   6.427   2.492  0.00  0.00    +0.159 C 
BRANCH  18  24
ATOM      3  O   UNL     1      10.571   7.184   0.469  0.00  0.00    -0.274 OA
ATOM      9  N   UNL     1       9.369   7.127   2.425  0.00  0.00    -0.328 N 
ATOM     24  C   UNL     1      10.508   6.937   1.671  0.00  0.00    +0.231 C 
ATOM     38  H   UNL     1       8.514   7.472   2.000  0.00  0.00    +0.145 HD
ATOM     39  H   UNL     1       9.335   6.937   3.421  0.00  0.00    +0.145 HD
ENDBRANCH  18  24
BRANCH  18  14
ATOM     14  C   UNL     1      11.652   4.909   2.695  0.00  0.00    +0.035 C 
BRANCH  14  11
ATOM     11  C   UNL     1      12.628   4.138   1.809  0.00  0.00    -0.009 C 
ATOM     12  C   UNL     1      12.038   3.928   0.408  0.00  0.00    +0.003 C 
ATOM     13  C   UNL     1      13.978   4.863   1.730  0.00  0.00    +0.003 C 
ATOM     15  C   UNL     1      13.017   3.205  -0.514  0.00  0.00    +0.000 C 
ATOM     16  C   UNL     1      14.954   4.138   0.807  0.00  0.00    +0.000 C 
ATOM     17  C   UNL     1      14.361   3.924  -0.582  0.00  0.00    +0.000 C 
ENDBRANCH  14  11
ENDBRANCH  18  14
ENDBRANCH   6  18
ENDBRANCH  19  21
TORSDOF 7
ENDMDL
