MODEL 1
REMARK VINA RESULT:      -7.9      0.000      0.000
REMARK  Name = 86769126
REMARK  2 active torsions:
REMARK  status: ('A' for Active; 'I' for Inactive)
REMARK    1  A    between atoms: O_2  and  C_17
REMARK    2  A    between atoms: N_9  and  C_26
REMARK                            x       y       z     vdW  Elec       q    Type
REMARK                         _______ _______ _______ _____ _____    ______ ____
ROOT
ATOM      1  O   UNL     1      24.401   3.062  21.555  0.00  0.00    -0.458 OA
ATOM      3  O   UNL     1      20.785   5.612  21.140  0.00  0.00    -0.489 OA
ATOM      4  O   UNL     1      25.454   1.063  21.811  0.00  0.00    -0.251 OA
ATOM      5  O   UNL     1      20.844   6.162  26.774  0.00  0.00    -0.274 OA
ATOM      7  N   UNL     1      22.206   5.260  25.118  0.00  0.00    -0.300 N 
ATOM      8  N   UNL     1      19.918   6.808  23.781  0.00  0.00    -0.304 NA
ATOM     10  C   UNL     1      22.663   3.888  23.110  0.00  0.00    +0.053 C 
ATOM     11  C   UNL     1      23.439   2.915  24.024  0.00  0.00    +0.009 C 
ATOM     12  C   UNL     1      23.076   3.660  21.633  0.00  0.00    +0.213 C 
ATOM     13  C   UNL     1      22.788   5.278  23.751  0.00  0.00    +0.115 C 
ATOM     14  C   UNL     1      22.735   2.829  25.375  0.00  0.00    +0.023 C 
ATOM     15  C   UNL     1      23.646   1.586  23.316  0.00  0.00    +0.124 C 
ATOM     16  C   UNL     1      22.715   4.217  26.021  0.00  0.00    +0.108 C 
ATOM     17  C   UNL     1      23.030   4.806  20.604  0.00  0.00    +0.193 C 
ATOM     18  C   UNL     1      24.585   1.852  22.161  0.00  0.00    +0.308 C 
ATOM     19  C   UNL     1      21.307   6.204  25.629  0.00  0.00    +0.229 C 
ATOM     20  C   UNL     1      21.621   5.131  20.088  0.00  0.00    +0.264 C 
ATOM     21  C   UNL     1      20.894   7.341  24.720  0.00  0.00    +0.178 C 
ATOM     22  C   UNL     1      19.527   6.028  20.767  0.00  0.00    +0.125 A 
ATOM     23  C   UNL     1      19.698   7.725  22.665  0.00  0.00    +0.120 C 
ATOM     24  C   UNL     1      18.945   7.056  21.538  0.00  0.00    +0.010 A 
ATOM     25  C   UNL     1      17.644   7.488  21.234  0.00  0.00    +0.031 A 
ATOM     26  C   UNL     1      16.932   6.913  20.184  0.00  0.00    +0.030 A 
ATOM     27  C   UNL     1      18.800   5.452  19.719  0.00  0.00    +0.048 A 
ATOM     28  C   UNL     1      17.508   5.898  19.428  0.00  0.00    +0.027 A 
ATOM     34  H   UNL     1      19.036   6.616  24.256  0.00  0.00    +0.123 HD
ENDROOT
BRANCH  26   9
ATOM      6  O   UNL     1      13.036   8.365  19.551  0.00  0.00    -0.377 OA
ATOM      9  N   UNL     1      15.637   7.354  19.892  0.00  0.00    -0.326 N 
ATOM     29  C   UNL     1      15.418   8.796  19.714  0.00  0.00    +0.133 C 
ATOM     30  C   UNL     1      14.478   6.602  20.388  0.00  0.00    +0.133 C 
ATOM     31  C   UNL     1      14.135   9.028  18.925  0.00  0.00    +0.178 C 
ATOM     32  C   UNL     1      13.245   6.953  19.564  0.00  0.00    +0.178 C 
ENDBRANCH  26   9
BRANCH  17   2
ATOM      2  O   UNL     1      23.673   5.972  21.099  0.00  0.00    -0.385 OA
ATOM     33  H   UNL     1      23.689   5.913  22.069  0.00  0.00    +0.210 HD
ENDBRANCH  17   2
TORSDOF 2
ENDMDL
MODEL 2
REMARK VINA RESULT:      -7.4      1.852      2.583
REMARK  Name = 86769126
REMARK  2 active torsions:
REMARK  status: ('A' for Active; 'I' for Inactive)
REMARK    1  A    between atoms: O_2  and  C_17
REMARK    2  A    between atoms: N_9  and  C_26
REMARK                            x       y       z     vdW  Elec       q    Type
REMARK                         _______ _______ _______ _____ _____    ______ ____
ROOT
ATOM      1  O   UNL     1      22.713   4.183  21.633  0.00  0.00    -0.458 OA
ATOM      3  O   UNL     1      19.033   6.610  21.071  0.00  0.00    -0.489 OA
ATOM      4  O   UNL     1      23.881   2.446  22.524  0.00  0.00    -0.251 OA
ATOM      5  O   UNL     1      20.770   9.780  25.427  0.00  0.00    -0.274 OA
ATOM      7  N   UNL     1      21.606   8.049  24.117  0.00  0.00    -0.300 N 
ATOM      8  N   UNL     1      18.954   9.013  22.908  0.00  0.00    -0.304 NA
ATOM     10  C   UNL     1      21.493   5.841  23.004  0.00  0.00    +0.053 C 
ATOM     11  C   UNL     1      22.551   5.345  24.013  0.00  0.00    +0.009 C 
ATOM     12  C   UNL     1      21.449   4.889  21.782  0.00  0.00    +0.213 C 
ATOM     13  C   UNL     1      21.745   7.344  22.816  0.00  0.00    +0.115 C 
ATOM     14  C   UNL     1      22.293   5.996  25.369  0.00  0.00    +0.023 C 
ATOM     15  C   UNL     1      22.592   3.826  24.022  0.00  0.00    +0.124 C 
ATOM     16  C   UNL     1      22.409   7.516  25.228  0.00  0.00    +0.108 C 
ATOM     17  C   UNL     1      21.044   5.399  20.386  0.00  0.00    +0.193 C 
ATOM     18  C   UNL     1      23.124   3.399  22.672  0.00  0.00    +0.308 C 
ATOM     19  C   UNL     1      20.863   9.216  24.332  0.00  0.00    +0.229 C 
ATOM     20  C   UNL     1      19.531   5.594  20.202  0.00  0.00    +0.264 C 
ATOM     21  C   UNL     1      20.144   9.817  23.143  0.00  0.00    +0.178 C 
ATOM     22  C   UNL     1      17.704   6.934  20.918  0.00  0.00    +0.125 A 
ATOM     23  C   UNL     1      18.368   9.302  21.602  0.00  0.00    +0.120 C 
ATOM     24  C   UNL     1      17.338   8.265  21.215  0.00  0.00    +0.010 A 
ATOM     25  C   UNL     1      15.989   8.641  21.123  0.00  0.00    +0.031 A 
ATOM     26  C   UNL     1      15.018   7.718  20.742  0.00  0.00    +0.030 A 
ATOM     27  C   UNL     1      16.720   6.013  20.543  0.00  0.00    +0.048 A 
ATOM     28  C   UNL     1      15.383   6.407  20.452  0.00  0.00    +0.027 A 
ATOM     34  H   UNL     1      18.268   9.172  23.645  0.00  0.00    +0.123 HD
ENDROOT
BRANCH  26   9
ATOM      6  O   UNL     1      10.917   8.629  20.554  0.00  0.00    -0.377 OA
ATOM      9  N   UNL     1      13.677   8.107  20.654  0.00  0.00    -0.326 N 
ATOM     29  C   UNL     1      12.883   8.145  21.890  0.00  0.00    +0.133 C 
ATOM     30  C   UNL     1      12.915   7.835  19.429  0.00  0.00    +0.133 C 
ATOM     31  C   UNL     1      11.669   9.045  21.694  0.00  0.00    +0.178 C 
ATOM     32  C   UNL     1      11.699   8.751  19.366  0.00  0.00    +0.178 C 
ENDBRANCH  26   9
BRANCH  17   2
ATOM      2  O   UNL     1      21.754   6.579  20.039  0.00  0.00    -0.385 OA
ATOM     33  H   UNL     1      21.386   7.311  20.562  0.00  0.00    +0.210 HD
ENDBRANCH  17   2
TORSDOF 2
ENDMDL
MODEL 3
REMARK VINA RESULT:      -7.4     29.054     32.188
REMARK  Name = 86769126
REMARK  2 active torsions:
REMARK  status: ('A' for Active; 'I' for Inactive)
REMARK    1  A    between atoms: O_2  and  C_17
REMARK    2  A    between atoms: N_9  and  C_26
REMARK                            x       y       z     vdW  Elec       q    Type
REMARK                         _______ _______ _______ _____ _____    ______ ____
ROOT
ATOM      1  O   UNL     1      -1.570 -10.140  13.351  0.00  0.00    -0.458 OA
ATOM      3  O   UNL     1      -4.573 -11.618  16.275  0.00  0.00    -0.489 OA
ATOM      4  O   UNL     1      -0.959  -9.115  11.415  0.00  0.00    -0.251 OA
ATOM      5  O   UNL     1      -4.480 -16.544  13.487  0.00  0.00    -0.274 OA
ATOM      7  N   UNL     1      -3.312 -14.534  13.467  0.00  0.00    -0.300 N 
ATOM      8  N   UNL     1      -5.210 -14.550  15.879  0.00  0.00    -0.304 NA
ATOM     10  C   UNL     1      -3.121 -12.066  13.434  0.00  0.00    +0.053 C 
ATOM     11  C   UNL     1      -2.576 -12.187  11.994  0.00  0.00    +0.009 C 
ATOM     12  C   UNL     1      -2.743 -10.682  14.021  0.00  0.00    +0.213 C 
ATOM     13  C   UNL     1      -2.720 -13.359  14.159  0.00  0.00    +0.115 C 
ATOM     14  C   UNL     1      -3.303 -13.323  11.279  0.00  0.00    +0.023 C 
ATOM     15  C   UNL     1      -2.640 -10.838  11.297  0.00  0.00    +0.124 C 
ATOM     16  C   UNL     1      -3.043 -14.634  12.025  0.00  0.00    +0.108 C 
ATOM     17  C   UNL     1      -2.536 -10.486  15.535  0.00  0.00    +0.193 C 
ATOM     18  C   UNL     1      -1.650  -9.938  12.003  0.00  0.00    +0.308 C 
ATOM     19  C   UNL     1      -4.003 -15.579  14.092  0.00  0.00    +0.229 C 
ATOM     20  C   UNL     1      -3.840 -10.396  16.342  0.00  0.00    +0.264 C 
ATOM     21  C   UNL     1      -4.158 -15.515  15.596  0.00  0.00    +0.178 C 
ATOM     22  C   UNL     1      -5.711 -11.681  17.045  0.00  0.00    +0.125 A 
ATOM     23  C   UNL     1      -5.218 -14.173  17.290  0.00  0.00    +0.120 C 
ATOM     24  C   UNL     1      -6.078 -12.954  17.533  0.00  0.00    +0.010 A 
ATOM     25  C   UNL     1      -7.256 -13.086  18.284  0.00  0.00    +0.031 A 
ATOM     26  C   UNL     1      -8.057 -11.978  18.551  0.00  0.00    +0.030 A 
ATOM     27  C   UNL     1      -6.527 -10.576  17.313  0.00  0.00    +0.048 A 
ATOM     28  C   UNL     1      -7.694 -10.726  18.066  0.00  0.00    +0.027 A 
ATOM     34  H   UNL     1      -6.118 -14.927  15.611  0.00  0.00    +0.123 HD
ENDROOT
BRANCH  26   9
ATOM      6  O   UNL     1     -11.442 -12.311  21.025  0.00  0.00    -0.377 OA
ATOM      9  N   UNL     1      -9.229 -12.124  19.301  0.00  0.00    -0.326 N 
ATOM     29  C   UNL     1      -9.899 -10.909  19.784  0.00  0.00    +0.133 C 
ATOM     30  C   UNL     1      -9.421 -13.317  20.134  0.00  0.00    +0.133 C 
ATOM     31  C   UNL     1     -11.355 -11.219  20.109  0.00  0.00    +0.178 C 
ATOM     32  C   UNL     1     -10.903 -13.498  20.442  0.00  0.00    +0.178 C 
ENDBRANCH  26   9
BRANCH  17   2
ATOM      2  O   UNL     1      -1.672 -11.477  16.072  0.00  0.00    -0.385 OA
ATOM     33  H   UNL     1      -1.722 -12.258  15.495  0.00  0.00    +0.210 HD
ENDBRANCH  17   2
TORSDOF 2
ENDMDL
MODEL 4
REMARK VINA RESULT:      -7.3     31.205     34.024
REMARK  Name = 86769126
REMARK  2 active torsions:
REMARK  status: ('A' for Active; 'I' for Inactive)
REMARK    1  A    between atoms: O_2  and  C_17
REMARK    2  A    between atoms: N_9  and  C_26
REMARK                            x       y       z     vdW  Elec       q    Type
REMARK                         _______ _______ _______ _____ _____    ______ ____
ROOT
ATOM      1  O   UNL     1      -7.681 -11.127  19.618  0.00  0.00    -0.458 OA
ATOM      3  O   UNL     1     -10.216  -9.121  16.569  0.00  0.00    -0.489 OA
ATOM      4  O   UNL     1      -5.886 -11.234  21.011  0.00  0.00    -0.251 OA
ATOM      5  O   UNL     1      -7.092 -11.727  12.633  0.00  0.00    -0.274 OA
ATOM      7  N   UNL     1      -7.322 -11.760  14.947  0.00  0.00    -0.300 N 
ATOM      8  N   UNL     1      -9.552 -10.019  13.757  0.00  0.00    -0.304 NA
ATOM     10  C   UNL     1      -7.487 -10.718  17.186  0.00  0.00    +0.053 C 
ATOM     11  C   UNL     1      -6.094 -11.309  17.498  0.00  0.00    +0.009 C 
ATOM     12  C   UNL     1      -8.205 -10.344  18.508  0.00  0.00    +0.213 C 
ATOM     13  C   UNL     1      -8.147 -11.672  16.180  0.00  0.00    +0.115 C 
ATOM     14  C   UNL     1      -5.237 -11.262  16.236  0.00  0.00    +0.023 C 
ATOM     15  C   UNL     1      -5.495 -10.620  18.713  0.00  0.00    +0.124 C 
ATOM     16  C   UNL     1      -5.905 -12.101  15.144  0.00  0.00    +0.108 C 
ATOM     17  C   UNL     1      -9.741 -10.368  18.618  0.00  0.00    +0.193 C 
ATOM     18  C   UNL     1      -6.349 -11.013  19.899  0.00  0.00    +0.308 C 
ATOM     19  C   UNL     1      -7.805 -11.646  13.638  0.00  0.00    +0.229 C 
ATOM     20  C   UNL     1     -10.436  -9.157  17.979  0.00  0.00    +0.264 C 
ATOM     21  C   UNL     1      -9.291 -11.419  13.458  0.00  0.00    +0.178 C 
ATOM     22  C   UNL     1     -10.878  -8.129  15.882  0.00  0.00    +0.125 A 
ATOM     23  C   UNL     1     -10.980  -9.770  13.930  0.00  0.00    +0.120 C 
ATOM     24  C   UNL     1     -11.236  -8.414  14.546  0.00  0.00    +0.010 A 
ATOM     25  C   UNL     1     -11.871  -7.423  13.781  0.00  0.00    +0.031 A 
ATOM     26  C   UNL     1     -12.147  -6.172  14.327  0.00  0.00    +0.030 A 
ATOM     27  C   UNL     1     -11.153  -6.866  16.418  0.00  0.00    +0.048 A 
ATOM     28  C   UNL     1     -11.789  -5.894  15.642  0.00  0.00    +0.027 A 
ATOM     34  H   UNL     1      -9.178  -9.423  13.018  0.00  0.00    +0.123 HD
ENDROOT
BRANCH  26   9
ATOM      6  O   UNL     1     -14.157  -3.435  11.846  0.00  0.00    -0.377 OA
ATOM      9  N   UNL     1     -12.780  -5.193  13.553  0.00  0.00    -0.326 N 
ATOM     29  C   UNL     1     -14.249  -5.138  13.572  0.00  0.00    +0.133 C 
ATOM     30  C   UNL     1     -12.152  -4.720  12.314  0.00  0.00    +0.133 C 
ATOM     31  C   UNL     1     -14.717  -3.760  13.118  0.00  0.00    +0.178 C 
ATOM     32  C   UNL     1     -12.734  -3.365  11.927  0.00  0.00    +0.178 C 
ENDBRANCH  26   9
BRANCH  17   2
ATOM      2  O   UNL     1     -10.277 -11.585  18.117  0.00  0.00    -0.385 OA
ATOM     33  H   UNL     1      -9.597 -12.272  18.219  0.00  0.00    +0.210 HD
ENDBRANCH  17   2
TORSDOF 2
ENDMDL
MODEL 5
REMARK VINA RESULT:      -7.3     16.631     20.341
REMARK  Name = 86769126
REMARK  2 active torsions:
REMARK  status: ('A' for Active; 'I' for Inactive)
REMARK    1  A    between atoms: O_2  and  C_17
REMARK    2  A    between atoms: N_9  and  C_26
REMARK                            x       y       z     vdW  Elec       q    Type
REMARK                         _______ _______ _______ _____ _____    ______ ____
ROOT
ATOM      1  O   UNL     1       9.678   8.294   5.823  0.00  0.00    -0.458 OA
ATOM      3  O   UNL     1      13.995   8.352   4.774  0.00  0.00    -0.489 OA
ATOM      4  O   UNL     1       7.918   7.703   7.137  0.00  0.00    -0.251 OA
ATOM      5  O   UNL     1      13.048   3.685   1.714  0.00  0.00    -0.274 OA
ATOM      7  N   UNL     1      11.798   5.256   2.888  0.00  0.00    -0.300 N 
ATOM      8  N   UNL     1      14.716   6.202   2.771  0.00  0.00    -0.304 NA
ATOM     10  C   UNL     1      11.258   6.655   4.857  0.00  0.00    +0.053 C 
ATOM     11  C   UNL     1      10.009   5.772   5.067  0.00  0.00    +0.009 C 
ATOM     12  C   UNL     1      11.087   7.993   5.620  0.00  0.00    +0.213 C 
ATOM     13  C   UNL     1      11.546   6.646   3.348  0.00  0.00    +0.115 C 
ATOM     14  C   UNL     1      10.349   4.330   4.704  0.00  0.00    +0.023 C 
ATOM     15  C   UNL     1       9.457   5.973   6.469  0.00  0.00    +0.124 C 
ATOM     16  C   UNL     1      10.766   4.266   3.232  0.00  0.00    +0.108 C 
ATOM     17  C   UNL     1      11.763   9.287   5.127  0.00  0.00    +0.193 C 
ATOM     18  C   UNL     1       8.934   7.392   6.529  0.00  0.00    +0.308 C 
ATOM     19  C   UNL     1      12.869   4.850   2.082  0.00  0.00    +0.229 C 
ATOM     20  C   UNL     1      13.263   9.374   5.449  0.00  0.00    +0.264 C 
ATOM     21  C   UNL     1      13.851   5.912   1.636  0.00  0.00    +0.178 C 
ATOM     22  C   UNL     1      15.363   8.400   4.914  0.00  0.00    +0.125 A 
ATOM     23  C   UNL     1      15.480   7.428   2.557  0.00  0.00    +0.120 C 
ATOM     24  C   UNL     1      16.129   7.907   3.835  0.00  0.00    +0.010 A 
ATOM     25  C   UNL     1      17.528   7.886   3.942  0.00  0.00    +0.031 A 
ATOM     26  C   UNL     1      18.161   8.346   5.094  0.00  0.00    +0.030 A 
ATOM     27  C   UNL     1      16.009   8.853   6.070  0.00  0.00    +0.048 A 
ATOM     28  C   UNL     1      17.402   8.828   6.156  0.00  0.00    +0.027 A 
ATOM     34  H   UNL     1      15.347   5.420   2.944  0.00  0.00    +0.123 HD
ENDROOT
BRANCH  26   9
ATOM      6  O   UNL     1      22.335   8.010   5.474  0.00  0.00    -0.377 OA
ATOM      9  N   UNL     1      19.556   8.320   5.186  0.00  0.00    -0.326 N 
ATOM     29  C   UNL     1      20.290   7.370   4.339  0.00  0.00    +0.133 C 
ATOM     30  C   UNL     1      20.213   8.663   6.453  0.00  0.00    +0.133 C 
ATOM     31  C   UNL     1      21.738   7.823   4.192  0.00  0.00    +0.178 C 
ATOM     32  C   UNL     1      21.665   9.046   6.193  0.00  0.00    +0.178 C 
ENDBRANCH  26   9
BRANCH  17   2
ATOM      2  O   UNL     1      11.527   9.500   3.742  0.00  0.00    -0.385 OA
ATOM     33  H   UNL     1      11.088  10.362   3.646  0.00  0.00    +0.210 HD
ENDBRANCH  17   2
TORSDOF 2
ENDMDL
MODEL 6
REMARK VINA RESULT:      -7.1     17.202     19.505
REMARK  Name = 86769126
REMARK  2 active torsions:
REMARK  status: ('A' for Active; 'I' for Inactive)
REMARK    1  A    between atoms: O_2  and  C_17
REMARK    2  A    between atoms: N_9  and  C_26
REMARK                            x       y       z     vdW  Elec       q    Type
REMARK                         _______ _______ _______ _____ _____    ______ ____
ROOT
ATOM      1  O   UNL     1       8.844 -11.103  31.826  0.00  0.00    -0.458 OA
ATOM      3  O   UNL     1      11.732  -7.738  32.119  0.00  0.00    -0.489 OA
ATOM      4  O   UNL     1       7.336 -12.390  30.712  0.00  0.00    -0.251 OA
ATOM      5  O   UNL     1       7.416  -4.528  33.884  0.00  0.00    -0.274 OA
ATOM      7  N   UNL     1       7.813  -6.771  33.414  0.00  0.00    -0.300 N 
ATOM      8  N   UNL     1      10.477  -5.252  33.301  0.00  0.00    -0.304 NA
ATOM     10  C   UNL     1       8.642  -8.645  32.026  0.00  0.00    +0.053 C 
ATOM     11  C   UNL     1       7.169  -9.044  31.791  0.00  0.00    +0.009 C 
ATOM     12  C   UNL     1       9.567  -9.846  31.702  0.00  0.00    +0.213 C 
ATOM     13  C   UNL     1       8.693  -7.969  33.404  0.00  0.00    +0.115 C 
ATOM     14  C   UNL     1       6.320  -7.781  31.679  0.00  0.00    +0.023 C 
ATOM     15  C   UNL     1       7.068  -9.997  30.611  0.00  0.00    +0.124 C 
ATOM     16  C   UNL     1       6.423  -6.990  32.986  0.00  0.00    +0.108 C 
ATOM     17  C   UNL     1      10.922 -10.027  32.413  0.00  0.00    +0.193 C 
ATOM     18  C   UNL     1       7.747 -11.282  31.032  0.00  0.00    +0.308 C 
ATOM     19  C   UNL     1       8.174  -5.504  33.886  0.00  0.00    +0.229 C 
ATOM     20  C   UNL     1      12.037  -9.112  31.883  0.00  0.00    +0.264 C 
ATOM     21  C   UNL     1       9.573  -5.335  34.439  0.00  0.00    +0.178 C 
ATOM     22  C   UNL     1      12.712  -6.837  31.772  0.00  0.00    +0.125 A 
ATOM     23  C   UNL     1      11.868  -5.414  33.715  0.00  0.00    +0.120 C 
ATOM     24  C   UNL     1      12.776  -5.647  32.530  0.00  0.00    +0.010 A 
ATOM     25  C   UNL     1      13.725  -4.670  32.191  0.00  0.00    +0.031 A 
ATOM     26  C   UNL     1      14.596  -4.865  31.122  0.00  0.00    +0.030 A 
ATOM     27  C   UNL     1      13.587  -7.019  30.695  0.00  0.00    +0.048 A 
ATOM     28  C   UNL     1      14.527  -6.037  30.376  0.00  0.00    +0.027 A 
ATOM     34  H   UNL     1      10.356  -4.362  32.817  0.00  0.00    +0.123 HD
ENDROOT
BRANCH  26   9
ATOM      6  O   UNL     1      17.610  -2.053  30.289  0.00  0.00    -0.377 OA
ATOM      9  N   UNL     1      15.537  -3.882  30.795  0.00  0.00    -0.326 N 
ATOM     29  C   UNL     1      16.676  -4.266  29.950  0.00  0.00    +0.133 C 
ATOM     30  C   UNL     1      15.793  -2.776  31.725  0.00  0.00    +0.133 C 
ATOM     31  C   UNL     1      17.274  -3.025  29.299  0.00  0.00    +0.178 C 
ATOM     32  C   UNL     1      16.440  -1.615  30.979  0.00  0.00    +0.178 C 
ENDBRANCH  26   9
BRANCH  17   2
ATOM      2  O   UNL     1      10.787  -9.902  33.822  0.00  0.00    -0.385 OA
ATOM     33  H   UNL     1      10.142 -10.566  34.118  0.00  0.00    +0.210 HD
ENDBRANCH  17   2
TORSDOF 2
ENDMDL
MODEL 7
REMARK VINA RESULT:      -6.9     29.216     34.687
REMARK  Name = 86769126
REMARK  2 active torsions:
REMARK  status: ('A' for Active; 'I' for Inactive)
REMARK    1  A    between atoms: O_2  and  C_17
REMARK    2  A    between atoms: N_9  and  C_26
REMARK                            x       y       z     vdW  Elec       q    Type
REMARK                         _______ _______ _______ _____ _____    ______ ____
ROOT
ATOM      1  O   UNL     1     -12.714 -11.889  20.459  0.00  0.00    -0.458 OA
ATOM      3  O   UNL     1      -8.822 -11.018  18.500  0.00  0.00    -0.489 OA
ATOM      4  O   UNL     1     -14.632 -13.084  20.717  0.00  0.00    -0.251 OA
ATOM      5  O   UNL     1     -11.646  -7.574  15.006  0.00  0.00    -0.274 OA
ATOM      7  N   UNL     1     -12.083  -8.815  16.924  0.00  0.00    -0.300 N 
ATOM      8  N   UNL     1      -9.065  -8.886  16.367  0.00  0.00    -0.304 NA
ATOM     10  C   UNL     1     -12.034 -10.863  18.314  0.00  0.00    +0.053 C 
ATOM     11  C   UNL     1     -13.564 -10.955  18.125  0.00  0.00    +0.009 C 
ATOM     12  C   UNL     1     -11.605 -11.719  19.532  0.00  0.00    +0.213 C 
ATOM     13  C   UNL     1     -11.679  -9.371  18.242  0.00  0.00    +0.115 C 
ATOM     14  C   UNL     1     -13.923 -10.496  16.714  0.00  0.00    +0.023 C 
ATOM     15  C   UNL     1     -14.053 -12.346  18.497  0.00  0.00    +0.124 C 
ATOM     16  C   UNL     1     -13.482  -9.042  16.532  0.00  0.00    +0.108 C 
ATOM     17  C   UNL     1     -10.364 -11.354  20.368  0.00  0.00    +0.193 C 
ATOM     18  C   UNL     1     -13.844 -12.494  19.987  0.00  0.00    +0.308 C 
ATOM     19  C   UNL     1     -11.278  -8.024  16.096  0.00  0.00    +0.229 C 
ATOM     20  C   UNL     1      -9.029 -11.740  19.714  0.00  0.00    +0.264 C 
ATOM     21  C   UNL     1      -9.881  -7.699  16.581  0.00  0.00    +0.178 C 
ATOM     22  C   UNL     1      -7.608 -11.214  17.882  0.00  0.00    +0.125 A 
ATOM     23  C   UNL     1      -7.799  -8.797  17.089  0.00  0.00    +0.120 C 
ATOM     24  C   UNL     1      -7.093 -10.132  17.137  0.00  0.00    +0.010 A 
ATOM     25  C   UNL     1      -5.882 -10.292  16.445  0.00  0.00    +0.031 A 
ATOM     26  C   UNL     1      -5.191 -11.500  16.491  0.00  0.00    +0.030 A 
ATOM     27  C   UNL     1      -6.909 -12.427  17.915  0.00  0.00    +0.048 A 
ATOM     28  C   UNL     1      -5.704 -12.565  17.224  0.00  0.00    +0.027 A 
ATOM     34  H   UNL     1      -8.894  -9.023  15.371  0.00  0.00    +0.123 HD
ENDROOT
BRANCH  26   9
ATOM      6  O   UNL     1      -1.508 -12.151  14.570  0.00  0.00    -0.377 OA
ATOM      9  N   UNL     1      -3.985 -11.645  15.797  0.00  0.00    -0.326 N 
ATOM     29  C   UNL     1      -3.790 -12.857  14.990  0.00  0.00    +0.133 C 
ATOM     30  C   UNL     1      -2.757 -11.046  16.332  0.00  0.00    +0.133 C 
ATOM     31  C   UNL     1      -2.706 -12.611  13.947  0.00  0.00    +0.178 C 
ATOM     32  C   UNL     1      -1.728 -10.898  15.217  0.00  0.00    +0.178 C 
ENDBRANCH  26   9
BRANCH  17   2
ATOM      2  O   UNL     1     -10.372  -9.981  20.735  0.00  0.00    -0.385 OA
ATOM     33  H   UNL     1      -9.642  -9.544  20.265  0.00  0.00    +0.210 HD
ENDBRANCH  17   2
TORSDOF 2
ENDMDL
MODEL 8
REMARK VINA RESULT:      -6.8     19.373     22.973
REMARK  Name = 86769126
REMARK  2 active torsions:
REMARK  status: ('A' for Active; 'I' for Inactive)
REMARK    1  A    between atoms: O_2  and  C_17
REMARK    2  A    between atoms: N_9  and  C_26
REMARK                            x       y       z     vdW  Elec       q    Type
REMARK                         _______ _______ _______ _____ _____    ______ ____
ROOT
ATOM      1  O   UNL     1      11.539   6.276   1.285  0.00  0.00    -0.458 OA
ATOM      3  O   UNL     1       8.093   8.885   2.316  0.00  0.00    -0.489 OA
ATOM      4  O   UNL     1      12.464   4.315   0.597  0.00  0.00    -0.251 OA
ATOM      5  O   UNL     1       8.646   7.068   7.649  0.00  0.00    -0.274 OA
ATOM      7  N   UNL     1       9.802   6.883   5.640  0.00  0.00    -0.300 N 
ATOM      8  N   UNL     1       7.530   8.917   5.289  0.00  0.00    -0.304 NA
ATOM     10  C   UNL     1       9.996   6.445   3.211  0.00  0.00    +0.053 C 
ATOM     11  C   UNL     1      10.772   5.157   3.567  0.00  0.00    +0.009 C 
ATOM     12  C   UNL     1      10.271   6.831   1.736  0.00  0.00    +0.213 C 
ATOM     13  C   UNL     1      10.271   7.443   4.345  0.00  0.00    +0.115 C 
ATOM     14  C   UNL     1      10.174   4.546   4.831  0.00  0.00    +0.023 C 
ATOM     15  C   UNL     1      10.825   4.231   2.363  0.00  0.00    +0.124 C 
ATOM     16  C   UNL     1      10.306   5.545   5.983  0.00  0.00    +0.108 C 
ATOM     17  C   UNL     1      10.224   8.299   1.271  0.00  0.00    +0.193 C 
ATOM     18  C   UNL     1      11.684   4.919   1.325  0.00  0.00    +0.308 C 
ATOM     19  C   UNL     1       9.017   7.562   6.579  0.00  0.00    +0.229 C 
ATOM     20  C   UNL     1       8.804   8.853   1.080  0.00  0.00    +0.264 C 
ATOM     21  C   UNL     1       8.614   8.985   6.258  0.00  0.00    +0.178 C 
ATOM     22  C   UNL     1       6.842   9.458   2.277  0.00  0.00    +0.125 A 
ATOM     23  C   UNL     1       7.287  10.217   4.672  0.00  0.00    +0.120 C 
ATOM     24  C   UNL     1       6.399  10.096   3.455  0.00  0.00    +0.010 A 
ATOM     25  C   UNL     1       5.112  10.657   3.488  0.00  0.00    +0.031 A 
ATOM     26  C   UNL     1       4.278  10.588   2.375  0.00  0.00    +0.030 A 
ATOM     27  C   UNL     1       5.993   9.388   1.166  0.00  0.00    +0.048 A 
ATOM     28  C   UNL     1       4.718   9.955   1.216  0.00  0.00    +0.027 A 
ATOM     34  H   UNL     1       6.678   8.575   5.734  0.00  0.00    +0.123 HD
ENDROOT
BRANCH  26   9
ATOM      6  O   UNL     1       0.524  12.482   2.348  0.00  0.00    -0.377 OA
ATOM      9  N   UNL     1       2.998  11.151   2.421  0.00  0.00    -0.326 N 
ATOM     29  C   UNL     1       2.212  11.189   1.181  0.00  0.00    +0.133 C 
ATOM     30  C   UNL     1       2.704  12.221   3.381  0.00  0.00    +0.133 C 
ATOM     31  C   UNL     1       0.733  11.343   1.514  0.00  0.00    +0.178 C 
ATOM     32  C   UNL     1       1.198  12.321   3.596  0.00  0.00    +0.178 C 
ENDBRANCH  26   9
BRANCH  17   2
ATOM      2  O   UNL     1      10.987   9.137   2.128  0.00  0.00    -0.385 OA
ATOM     33  H   UNL     1      10.734  10.057   1.944  0.00  0.00    +0.210 HD
ENDBRANCH  17   2
TORSDOF 2
ENDMDL
MODEL 9
REMARK VINA RESULT:      -6.5     20.084     25.142
REMARK  Name = 86769126
REMARK  2 active torsions:
REMARK  status: ('A' for Active; 'I' for Inactive)
REMARK    1  A    between atoms: O_2  and  C_17
REMARK    2  A    between atoms: N_9  and  C_26
REMARK                            x       y       z     vdW  Elec       q    Type
REMARK                         _______ _______ _______ _____ _____    ______ ____
ROOT
ATOM      1  O   UNL     1       8.834   7.483  -4.118  0.00  0.00    -0.458 OA
ATOM      3  O   UNL     1      10.341   6.690  -0.013  0.00  0.00    -0.489 OA
ATOM      4  O   UNL     1       7.232   7.450  -5.732  0.00  0.00    -0.251 OA
ATOM      5  O   UNL     1      12.107   1.659  -1.914  0.00  0.00    -0.274 OA
ATOM      7  N   UNL     1      11.199   3.610  -2.797  0.00  0.00    -0.300 N 
ATOM      8  N   UNL     1      11.856   4.077   0.165  0.00  0.00    -0.304 NA
ATOM     10  C   UNL     1       9.562   5.464  -2.889  0.00  0.00    +0.053 C 
ATOM     11  C   UNL     1       9.015   4.836  -4.190  0.00  0.00    +0.009 C 
ATOM     12  C   UNL     1       9.117   6.945  -2.795  0.00  0.00    +0.213 C 
ATOM     13  C   UNL     1      11.050   5.088  -2.819  0.00  0.00    +0.115 C 
ATOM     14  C   UNL     1       9.068   3.316  -4.072  0.00  0.00    +0.023 C 
ATOM     15  C   UNL     1       7.646   5.413  -4.511  0.00  0.00    +0.124 C 
ATOM     16  C   UNL     1      10.522   2.877  -3.877  0.00  0.00    +0.108 C 
ATOM     17  C   UNL     1       9.969   7.991  -2.051  0.00  0.00    +0.193 C 
ATOM     18  C   UNL     1       7.860   6.871  -4.853  0.00  0.00    +0.308 C 
ATOM     19  C   UNL     1      12.002   2.890  -1.903  0.00  0.00    +0.229 C 
ATOM     20  C   UNL     1       9.845   7.928  -0.521  0.00  0.00    +0.264 C 
ATOM     21  C   UNL     1      12.789   3.677  -0.878  0.00  0.00    +0.178 C 
ATOM     22  C   UNL     1      10.369   6.569   1.357  0.00  0.00    +0.125 A 
ATOM     23  C   UNL     1      12.433   5.105   1.027  0.00  0.00    +0.120 C 
ATOM     24  C   UNL     1      11.381   5.750   1.901  0.00  0.00    +0.010 A 
ATOM     25  C   UNL     1      11.429   5.551   3.290  0.00  0.00    +0.031 A 
ATOM     26  C   UNL     1      10.492   6.152   4.127  0.00  0.00    +0.030 A 
ATOM     27  C   UNL     1       9.428   7.163   2.207  0.00  0.00    +0.048 A 
ATOM     28  C   UNL     1       9.494   6.957   3.586  0.00  0.00    +0.027 A 
ATOM     34  H   UNL     1      11.577   3.268   0.720  0.00  0.00    +0.123 HD
ENDROOT
BRANCH  26   9
ATOM      6  O   UNL     1      10.888   5.363   8.238  0.00  0.00    -0.377 OA
ATOM      9  N   UNL     1      10.552   5.946   5.509  0.00  0.00    -0.326 N 
ATOM     29  C   UNL     1      11.736   6.431   6.232  0.00  0.00    +0.133 C 
ATOM     30  C   UNL     1       9.891   4.779   6.104  0.00  0.00    +0.133 C 
ATOM     31  C   UNL     1      11.407   6.584   7.713  0.00  0.00    +0.178 C 
ATOM     32  C   UNL     1       9.662   5.019   7.592  0.00  0.00    +0.178 C 
ENDBRANCH  26   9
BRANCH  17   2
ATOM      2  O   UNL     1      11.330   7.931  -2.454  0.00  0.00    -0.385 OA
ATOM     33  H   UNL     1      11.879   8.111  -1.672  0.00  0.00    +0.210 HD
ENDBRANCH  17   2
TORSDOF 2
ENDMDL
MODEL 10
REMARK VINA RESULT:      -6.5     29.730     33.171
REMARK  Name = 86769126
REMARK  2 active torsions:
REMARK  status: ('A' for Active; 'I' for Inactive)
REMARK    1  A    between atoms: O_2  and  C_17
REMARK    2  A    between atoms: N_9  and  C_26
REMARK                            x       y       z     vdW  Elec       q    Type
REMARK                         _______ _______ _______ _____ _____    ______ ____
ROOT
ATOM      1  O   UNL     1      -5.208 -12.536  18.710  0.00  0.00    -0.458 OA
ATOM      3  O   UNL     1      -8.533 -10.678  16.421  0.00  0.00    -0.489 OA
ATOM      4  O   UNL     1      -3.378 -12.452  20.058  0.00  0.00    -0.251 OA
ATOM      5  O   UNL     1      -5.039 -10.527  11.969  0.00  0.00    -0.274 OA
ATOM      7  N   UNL     1      -5.046 -11.407  14.122  0.00  0.00    -0.300 N 
ATOM      8  N   UNL     1      -7.837 -10.289  13.502  0.00  0.00    -0.304 NA
ATOM     10  C   UNL     1      -5.376 -11.301  16.573  0.00  0.00    +0.053 C 
ATOM     11  C   UNL     1      -3.843 -11.423  16.724  0.00  0.00    +0.009 C 
ATOM     12  C   UNL     1      -6.064 -11.671  17.911  0.00  0.00    +0.213 C 
ATOM     13  C   UNL     1      -5.743 -12.035  15.275  0.00  0.00    +0.115 C 
ATOM     14  C   UNL     1      -3.167 -10.656  15.591  0.00  0.00    +0.023 C 
ATOM     15  C   UNL     1      -3.423 -11.012  18.125  0.00  0.00    +0.124 C 
ATOM     16  C   UNL     1      -3.589 -11.263  14.251  0.00  0.00    +0.108 C 
ATOM     17  C   UNL     1      -7.480 -12.278  17.941  0.00  0.00    +0.193 C 
ATOM     18  C   UNL     1      -3.982 -12.054  19.069  0.00  0.00    +0.308 C 
ATOM     19  C   UNL     1      -5.649 -11.045  12.911  0.00  0.00    +0.229 C 
ATOM     20  C   UNL     1      -8.606 -11.256  17.724  0.00  0.00    +0.264 C 
ATOM     21  C   UNL     1      -7.129 -11.319  12.756  0.00  0.00    +0.178 C 
ATOM     22  C   UNL     1      -9.555  -9.820  16.085  0.00  0.00    +0.125 A 
ATOM     23  C   UNL     1      -9.242 -10.640  13.689  0.00  0.00    +0.120 C 
ATOM     24  C   UNL     1      -9.903  -9.753  14.719  0.00  0.00    +0.010 A 
ATOM     25  C   UNL     1     -10.907  -8.860  14.311  0.00  0.00    +0.031 A 
ATOM     26  C   UNL     1     -11.556  -8.049  15.237  0.00  0.00    +0.030 A 
ATOM     27  C   UNL     1     -10.209  -8.995  17.007  0.00  0.00    +0.048 A 
ATOM     28  C   UNL     1     -11.208  -8.116  16.583  0.00  0.00    +0.027 A 
ATOM     34  H   UNL     1      -7.759  -9.390  13.027  0.00  0.00    +0.123 HD
ENDROOT
BRANCH  26   9
ATOM      6  O   UNL     1     -14.610  -5.562  13.762  0.00  0.00    -0.377 OA
ATOM      9  N   UNL     1     -12.555  -7.164  14.817  0.00  0.00    -0.326 N 
ATOM     29  C   UNL     1     -13.951  -7.620  14.864  0.00  0.00    +0.133 C 
ATOM     30  C   UNL     1     -12.259  -6.163  13.785  0.00  0.00    +0.133 C 
ATOM     31  C   UNL     1     -14.885  -6.417  14.872  0.00  0.00    +0.178 C 
ATOM     32  C   UNL     1     -13.285  -5.038  13.850  0.00  0.00    +0.178 C 
ENDBRANCH  26   9
BRANCH  17   2
ATOM      2  O   UNL     1      -7.597 -13.365  17.034  0.00  0.00    -0.385 OA
ATOM     33  H   UNL     1      -7.057 -14.097  17.378  0.00  0.00    +0.210 HD
ENDBRANCH  17   2
TORSDOF 2
ENDMDL
