MODEL 1
REMARK VINA RESULT:      -6.4      0.000      0.000
REMARK  Name = 71693177
REMARK  14 active torsions:
REMARK  status: ('A' for Active; 'I' for Inactive)
REMARK    1  A    between atoms: O_2  and  C_30
REMARK    2  A    between atoms: O_2  and  C_32
REMARK    3  A    between atoms: N_4  and  C_15
REMARK    4  A    between atoms: N_7  and  C_27
REMARK    5  A    between atoms: C_8  and  C_12
REMARK    6  A    between atoms: C_9  and  C_15
REMARK    7  A    between atoms: C_11  and  C_16
REMARK    8  A    between atoms: C_12  and  C_17
REMARK    9  A    between atoms: C_12  and  C_18
REMARK   10  A    between atoms: C_13  and  C_19
REMARK   11  A    between atoms: C_16  and  C_20
REMARK   12  A    between atoms: C_26  and  C_30
REMARK   13  A    between atoms: C_27  and  C_29
REMARK   14  A    between atoms: C_29  and  C_31
REMARK                            x       y       z     vdW  Elec       q    Type
REMARK                         _______ _______ _______ _____ _____    ______ ____
ROOT
ATOM      8  C   UNL     1     -12.806   9.225  33.335  0.00  0.00    +0.000 C 
ATOM      9  C   UNL     1     -13.981  10.164  33.706  0.00  0.00    +0.032 C 
ATOM     10  C   UNL     1     -13.253   8.190  32.292  0.00  0.00    +0.012 C 
ATOM     11  C   UNL     1     -14.427   7.328  32.793  0.00  0.00    +0.022 C 
ATOM     13  C   UNL     1     -15.518   8.172  33.421  0.00  0.00    -0.073 C 
ATOM     14  C   UNL     1     -15.304   9.442  33.810  0.00  0.00    -0.022 C 
ATOM     19  C   UNL     1     -16.875   7.536  33.551  0.00  0.00    +0.039 C 
ENDROOT
BRANCH   8  12
ATOM     12  C   UNL     1     -11.599  10.007  32.806  0.00  0.00    -0.013 C 
ATOM     17  C   UNL     1     -11.376   9.704  31.327  0.00  0.00    +0.007 C 
ATOM     18  C   UNL     1     -10.352   9.677  33.620  0.00  0.00    +0.007 C 
ENDBRANCH   8  12
BRANCH   9  15
ATOM     15  C   UNL     1     -13.702  10.910  35.015  0.00  0.00    +0.113 C 
BRANCH  15   4
ATOM      1  O   UNL     1     -11.541  11.230  36.900  0.00  0.00    -0.253 OA
ATOM      4  N   UNL     1     -13.318   9.999  36.047  0.00  0.00    -0.299 N 
ATOM      7  N   UNL     1     -12.097   9.178  37.831  0.00  0.00    -0.299 N 
ATOM     21  C   UNL     1     -12.252  10.225  36.927  0.00  0.00    +0.300 C 
ATOM     33  H   UNL     1     -13.885   9.170  36.197  0.00  0.00    +0.150 HD
ATOM     35  H   UNL     1     -12.728   8.385  37.771  0.00  0.00    +0.150 HD
BRANCH   7  27
ATOM     27  C   UNL     1     -11.070   9.165  38.846  0.00  0.00    +0.105 C 
BRANCH  27  29
ATOM     29  C   UNL     1     -10.114   7.989  38.690  0.00  0.00    +0.015 C 
ATOM     31  C   UNL     1      -9.652   7.793  37.253  0.00  0.00    +0.005 C 
ENDBRANCH  27  29
ENDBRANCH   7  27
ENDBRANCH  15   4
ENDBRANCH   9  15
BRANCH  11  16
ATOM     16  C   UNL     1     -13.941   6.246  33.765  0.00  0.00    +0.082 C 
BRANCH  16  20
ATOM      5  N   UNL     1     -14.331   4.645  31.883  0.00  0.00    -0.342 N 
ATOM      6  N   UNL     1     -14.323   3.762  33.923  0.00  0.00    -0.232 NA
ATOM     20  C   UNL     1     -14.198   4.869  33.225  0.00  0.00    +0.109 A 
ATOM     22  C   UNL     1     -14.556   3.304  31.703  0.00  0.00    +0.067 A 
ATOM     23  C   UNL     1     -14.547   2.775  32.990  0.00  0.00    +0.089 A 
ATOM     24  C   UNL     1     -14.761   2.533  30.557  0.00  0.00    +0.042 A 
ATOM     25  C   UNL     1     -14.753   1.397  33.165  0.00  0.00    +0.030 A 
ATOM     26  C   UNL     1     -14.965   1.163  30.751  0.00  0.00    +0.061 A 
ATOM     28  C   UNL     1     -14.961   0.603  32.030  0.00  0.00    +0.017 A 
ATOM     34  H   UNL     1     -14.273   5.342  31.152  0.00  0.00    +0.167 HD
BRANCH  26  30
ATOM      3  O   UNL     1     -15.869   0.618  28.613  0.00  0.00    -0.245 OA
ATOM     30  C   UNL     1     -15.184   0.306  29.596  0.00  0.00    +0.339 C 
BRANCH  30   2
ATOM      2  O   UNL     1     -14.536  -0.892  29.728  0.00  0.00    -0.464 OA
ATOM     32  C   UNL     1     -13.146  -0.917  29.389  0.00  0.00    +0.280 C 
ENDBRANCH  30   2
ENDBRANCH  26  30
ENDBRANCH  16  20
ENDBRANCH  11  16
TORSDOF 9
ENDMDL
MODEL 2
REMARK VINA RESULT:      -6.4     35.820     38.303
REMARK  Name = 71693177
REMARK  14 active torsions:
REMARK  status: ('A' for Active; 'I' for Inactive)
REMARK    1  A    between atoms: O_2  and  C_30
REMARK    2  A    between atoms: O_2  and  C_32
REMARK    3  A    between atoms: N_4  and  C_15
REMARK    4  A    between atoms: N_7  and  C_27
REMARK    5  A    between atoms: C_8  and  C_12
REMARK    6  A    between atoms: C_9  and  C_15
REMARK    7  A    between atoms: C_11  and  C_16
REMARK    8  A    between atoms: C_12  and  C_17
REMARK    9  A    between atoms: C_12  and  C_18
REMARK   10  A    between atoms: C_13  and  C_19
REMARK   11  A    between atoms: C_16  and  C_20
REMARK   12  A    between atoms: C_26  and  C_30
REMARK   13  A    between atoms: C_27  and  C_29
REMARK   14  A    between atoms: C_29  and  C_31
REMARK                            x       y       z     vdW  Elec       q    Type
REMARK                         _______ _______ _______ _____ _____    ______ ____
ROOT
ATOM      8  C   UNL     1       9.121   8.205   5.260  0.00  0.00    +0.000 C 
ATOM      9  C   UNL     1       8.731   8.824   6.626  0.00  0.00    +0.032 C 
ATOM     10  C   UNL     1       8.631   6.752   5.169  0.00  0.00    +0.012 C 
ATOM     11  C   UNL     1       9.215   5.870   6.289  0.00  0.00    +0.022 C 
ATOM     13  C   UNL     1       9.107   6.537   7.646  0.00  0.00    -0.073 C 
ATOM     14  C   UNL     1       8.877   7.856   7.776  0.00  0.00    -0.022 C 
ATOM     19  C   UNL     1       9.225   5.645   8.850  0.00  0.00    +0.039 C 
ENDROOT
BRANCH   8  12
ATOM     12  C   UNL     1       8.559   9.016   4.088  0.00  0.00    -0.013 C 
ATOM     17  C   UNL     1       7.122   9.439   4.374  0.00  0.00    +0.007 C 
ATOM     18  C   UNL     1       8.639   8.208   2.796  0.00  0.00    +0.007 C 
ENDBRANCH   8  12
BRANCH   9  15
ATOM     15  C   UNL     1       9.547  10.088   6.915  0.00  0.00    +0.113 C 
BRANCH  15   4
ATOM      1  O   UNL     1      11.963  10.260   5.347  0.00  0.00    -0.253 OA
ATOM      4  N   UNL     1      10.871   9.752   7.334  0.00  0.00    -0.299 N 
ATOM      7  N   UNL     1      13.161   9.468   7.170  0.00  0.00    -0.299 N 
ATOM     21  C   UNL     1      12.000   9.862   6.511  0.00  0.00    +0.300 C 
ATOM     33  H   UNL     1      11.019   9.478   8.300  0.00  0.00    +0.150 HD
ATOM     35  H   UNL     1      13.092   9.146   8.130  0.00  0.00    +0.150 HD
BRANCH   7  27
ATOM     27  C   UNL     1      14.462   9.488   6.543  0.00  0.00    +0.105 C 
BRANCH  27  29
ATOM     29  C   UNL     1      14.952   8.091   6.179  0.00  0.00    +0.015 C 
ATOM     31  C   UNL     1      14.100   6.990   6.794  0.00  0.00    +0.005 C 
ENDBRANCH  27  29
ENDBRANCH   7  27
ENDBRANCH  15   4
ENDBRANCH   9  15
BRANCH  11  16
ATOM     16  C   UNL     1      10.665   5.477   5.984  0.00  0.00    +0.082 C 
BRANCH  16  20
ATOM      5  N   UNL     1      10.419   4.498   3.695  0.00  0.00    -0.342 N 
ATOM      6  N   UNL     1      11.650   6.344   3.835  0.00  0.00    -0.232 NA
ATOM     20  C   UNL     1      10.932   5.472   4.507  0.00  0.00    +0.109 A 
ATOM     22  C   UNL     1      10.833   4.761   2.414  0.00  0.00    +0.067 A 
ATOM     23  C   UNL     1      11.600   5.917   2.528  0.00  0.00    +0.089 A 
ATOM     24  C   UNL     1      10.609   4.104   1.203  0.00  0.00    +0.042 A 
ATOM     25  C   UNL     1      12.185   6.466   1.375  0.00  0.00    +0.030 A 
ATOM     26  C   UNL     1      11.200   4.665   0.066  0.00  0.00    +0.061 A 
ATOM     28  C   UNL     1      11.974   5.824   0.148  0.00  0.00    +0.017 A 
ATOM     34  H   UNL     1       9.838   3.724   3.986  0.00  0.00    +0.167 HD
BRANCH  26  30
ATOM      3  O   UNL     1       9.987   4.152  -1.922  0.00  0.00    -0.245 OA
ATOM     30  C   UNL     1      11.003   4.026  -1.226  0.00  0.00    +0.339 C 
BRANCH  30   2
ATOM      2  O   UNL     1      12.083   3.264  -1.581  0.00  0.00    -0.464 OA
ATOM     32  C   UNL     1      11.831   2.139  -2.428  0.00  0.00    +0.280 C 
ENDBRANCH  30   2
ENDBRANCH  26  30
ENDBRANCH  16  20
ENDBRANCH  11  16
TORSDOF 9
ENDMDL
MODEL 3
REMARK VINA RESULT:      -6.4     30.936     33.242
REMARK  Name = 71693177
REMARK  14 active torsions:
REMARK  status: ('A' for Active; 'I' for Inactive)
REMARK    1  A    between atoms: O_2  and  C_30
REMARK    2  A    between atoms: O_2  and  C_32
REMARK    3  A    between atoms: N_4  and  C_15
REMARK    4  A    between atoms: N_7  and  C_27
REMARK    5  A    between atoms: C_8  and  C_12
REMARK    6  A    between atoms: C_9  and  C_15
REMARK    7  A    between atoms: C_11  and  C_16
REMARK    8  A    between atoms: C_12  and  C_17
REMARK    9  A    between atoms: C_12  and  C_18
REMARK   10  A    between atoms: C_13  and  C_19
REMARK   11  A    between atoms: C_16  and  C_20
REMARK   12  A    between atoms: C_26  and  C_30
REMARK   13  A    between atoms: C_27  and  C_29
REMARK   14  A    between atoms: C_29  and  C_31
REMARK                            x       y       z     vdW  Elec       q    Type
REMARK                         _______ _______ _______ _____ _____    ______ ____
ROOT
ATOM      8  C   UNL     1      20.278   5.918  21.960  0.00  0.00    +0.000 C 
ATOM      9  C   UNL     1      20.735   7.227  22.651  0.00  0.00    +0.032 C 
ATOM     10  C   UNL     1      19.560   6.230  20.638  0.00  0.00    +0.012 C 
ATOM     11  C   UNL     1      18.326   7.130  20.844  0.00  0.00    +0.022 C 
ATOM     13  C   UNL     1      18.634   8.310  21.743  0.00  0.00    -0.073 C 
ATOM     14  C   UNL     1      19.723   8.342  22.534  0.00  0.00    -0.022 C 
ATOM     19  C   UNL     1      17.685   9.475  21.681  0.00  0.00    +0.039 C 
ENDROOT
BRANCH   8  12
ATOM     12  C   UNL     1      21.455   4.972  21.699  0.00  0.00    -0.013 C 
ATOM     17  C   UNL     1      22.616   5.730  21.064  0.00  0.00    +0.007 C 
ATOM     18  C   UNL     1      21.017   3.811  20.812  0.00  0.00    +0.007 C 
ENDBRANCH   8  12
BRANCH   9  15
ATOM     15  C   UNL     1      21.063   6.988  24.128  0.00  0.00    +0.113 C 
BRANCH  15   4
ATOM      1  O   UNL     1      20.032   6.929  26.822  0.00  0.00    -0.253 OA
ATOM      4  N   UNL     1      20.669   8.108  24.923  0.00  0.00    -0.299 N 
ATOM      7  N   UNL     1      19.866   9.243  26.772  0.00  0.00    -0.299 N 
ATOM     21  C   UNL     1      20.174   7.998  26.230  0.00  0.00    +0.300 C 
ATOM     33  H   UNL     1      20.811   9.041  24.551  0.00  0.00    +0.150 HD
ATOM     35  H   UNL     1      20.010  10.071  26.203  0.00  0.00    +0.150 HD
BRANCH   7  27
ATOM     27  C   UNL     1      19.340   9.407  28.107  0.00  0.00    +0.105 C 
BRANCH  27  29
ATOM     29  C   UNL     1      18.243  10.463  28.172  0.00  0.00    +0.015 C 
ATOM     31  C   UNL     1      17.508  10.465  29.505  0.00  0.00    +0.005 C 
ENDBRANCH  27  29
ENDBRANCH   7  27
ENDBRANCH  15   4
ENDBRANCH   9  15
BRANCH  11  16
ATOM     16  C   UNL     1      17.139   6.324  21.384  0.00  0.00    +0.082 C 
BRANCH  16  20
ATOM      5  N   UNL     1      15.619   6.837  19.464  0.00  0.00    -0.342 N 
ATOM      6  N   UNL     1      14.803   7.259  21.489  0.00  0.00    -0.232 NA
ATOM     20  C   UNL     1      15.840   6.814  20.814  0.00  0.00    +0.109 A 
ATOM     22  C   UNL     1      14.357   7.330  19.255  0.00  0.00    +0.067 A 
ATOM     23  C   UNL     1      13.868   7.586  20.534  0.00  0.00    +0.089 A 
ATOM     24  C   UNL     1      13.623   7.567  18.092  0.00  0.00    +0.042 A 
ATOM     25  C   UNL     1      12.573   8.108  20.680  0.00  0.00    +0.030 A 
ATOM     26  C   UNL     1      12.335   8.088  18.256  0.00  0.00    +0.061 A 
ATOM     28  C   UNL     1      11.817   8.354  19.526  0.00  0.00    +0.017 A 
ATOM     34  H   UNL     1      16.269   6.543  18.748  0.00  0.00    +0.167 HD
BRANCH  26  30
ATOM      3  O   UNL     1      10.287   8.457  17.092  0.00  0.00    -0.245 OA
ATOM     30  C   UNL     1      11.521   8.356  17.081  0.00  0.00    +0.339 C 
BRANCH  30   2
ATOM      2  O   UNL     1      12.289   8.484  15.955  0.00  0.00    -0.464 OA
ATOM     32  C   UNL     1      12.537   9.814  15.489  0.00  0.00    +0.280 C 
ENDBRANCH  30   2
ENDBRANCH  26  30
ENDBRANCH  16  20
ENDBRANCH  11  16
TORSDOF 9
ENDMDL
MODEL 4
REMARK VINA RESULT:      -6.3     31.788     34.361
REMARK  Name = 71693177
REMARK  14 active torsions:
REMARK  status: ('A' for Active; 'I' for Inactive)
REMARK    1  A    between atoms: O_2  and  C_30
REMARK    2  A    between atoms: O_2  and  C_32
REMARK    3  A    between atoms: N_4  and  C_15
REMARK    4  A    between atoms: N_7  and  C_27
REMARK    5  A    between atoms: C_8  and  C_12
REMARK    6  A    between atoms: C_9  and  C_15
REMARK    7  A    between atoms: C_11  and  C_16
REMARK    8  A    between atoms: C_12  and  C_17
REMARK    9  A    between atoms: C_12  and  C_18
REMARK   10  A    between atoms: C_13  and  C_19
REMARK   11  A    between atoms: C_16  and  C_20
REMARK   12  A    between atoms: C_26  and  C_30
REMARK   13  A    between atoms: C_27  and  C_29
REMARK   14  A    between atoms: C_29  and  C_31
REMARK                            x       y       z     vdW  Elec       q    Type
REMARK                         _______ _______ _______ _____ _____    ______ ____
ROOT
ATOM      8  C   UNL     1      13.151   8.044  19.779  0.00  0.00    +0.000 C 
ATOM      9  C   UNL     1      13.108   9.553  19.431  0.00  0.00    +0.032 C 
ATOM     10  C   UNL     1      14.098   7.792  20.962  0.00  0.00    +0.012 C 
ATOM     11  C   UNL     1      15.535   8.267  20.669  0.00  0.00    +0.022 C 
ATOM     13  C   UNL     1      15.556   9.658  20.068  0.00  0.00    -0.073 C 
ATOM     14  C   UNL     1      14.459  10.221  19.531  0.00  0.00    -0.022 C 
ATOM     19  C   UNL     1      16.859  10.405  20.138  0.00  0.00    +0.039 C 
ENDROOT
BRANCH   8  12
ATOM     12  C   UNL     1      11.758   7.495  20.104  0.00  0.00    -0.013 C 
ATOM     17  C   UNL     1      10.884   8.589  20.710  0.00  0.00    +0.007 C 
ATOM     18  C   UNL     1      11.863   6.302  21.049  0.00  0.00    +0.007 C 
ENDBRANCH   8  12
BRANCH   9  15
ATOM     15  C   UNL     1      12.528   9.782  18.031  0.00  0.00    +0.113 C 
BRANCH  15   4
ATOM      1  O   UNL     1      13.711   9.180  15.469  0.00  0.00    -0.253 OA
ATOM      4  N   UNL     1      13.384  10.626  17.259  0.00  0.00    -0.299 N 
ATOM      7  N   UNL     1      14.722  11.269  15.484  0.00  0.00    -0.299 N 
ATOM     21  C   UNL     1      13.923  10.261  16.017  0.00  0.00    +0.300 C 
ATOM     33  H   UNL     1      13.566  11.568  17.592  0.00  0.00    +0.150 HD
ATOM     35  H   UNL     1      14.844  12.125  16.014  0.00  0.00    +0.150 HD
BRANCH   7  27
ATOM     27  C   UNL     1      15.394  11.144  14.212  0.00  0.00    +0.105 C 
BRANCH  27  29
ATOM     29  C   UNL     1      15.157  12.350  13.310  0.00  0.00    +0.015 C 
ATOM     31  C   UNL     1      15.804  12.196  11.941  0.00  0.00    +0.005 C 
ENDBRANCH  27  29
ENDBRANCH   7  27
ENDBRANCH  15   4
ENDBRANCH   9  15
BRANCH  11  16
ATOM     16  C   UNL     1      16.274   7.269  19.771  0.00  0.00    +0.082 C 
BRANCH  16  20
ATOM      5  N   UNL     1      18.410   5.967  19.740  0.00  0.00    -0.342 N 
ATOM      6  N   UNL     1      18.057   7.211  21.549  0.00  0.00    -0.232 NA
ATOM     20  C   UNL     1      17.574   6.837  20.384  0.00  0.00    +0.109 A 
ATOM     22  C   UNL     1      19.504   5.768  20.542  0.00  0.00    +0.067 A 
ATOM     23  C   UNL     1      19.260   6.554  21.665  0.00  0.00    +0.089 A 
ATOM     24  C   UNL     1      20.652   4.989  20.386  0.00  0.00    +0.042 A 
ATOM     25  C   UNL     1      20.205   6.578  22.703  0.00  0.00    +0.030 A 
ATOM     26  C   UNL     1      21.582   5.024  21.430  0.00  0.00    +0.061 A 
ATOM     28  C   UNL     1      21.365   5.804  22.568  0.00  0.00    +0.017 A 
ATOM     34  H   UNL     1      18.252   5.547  18.834  0.00  0.00    +0.167 HD
BRANCH  26  30
ATOM      3  O   UNL     1      23.121   3.336  22.115  0.00  0.00    -0.245 OA
ATOM     30  C   UNL     1      22.799   4.234  21.326  0.00  0.00    +0.339 C 
BRANCH  30   2
ATOM      2  O   UNL     1      23.548   4.604  20.242  0.00  0.00    -0.464 OA
ATOM     32  C   UNL     1      24.648   3.757  19.896  0.00  0.00    +0.280 C 
ENDBRANCH  30   2
ENDBRANCH  26  30
ENDBRANCH  16  20
ENDBRANCH  11  16
TORSDOF 9
ENDMDL
MODEL 5
REMARK VINA RESULT:      -6.3     24.031     30.227
REMARK  Name = 71693177
REMARK  14 active torsions:
REMARK  status: ('A' for Active; 'I' for Inactive)
REMARK    1  A    between atoms: O_2  and  C_30
REMARK    2  A    between atoms: O_2  and  C_32
REMARK    3  A    between atoms: N_4  and  C_15
REMARK    4  A    between atoms: N_7  and  C_27
REMARK    5  A    between atoms: C_8  and  C_12
REMARK    6  A    between atoms: C_9  and  C_15
REMARK    7  A    between atoms: C_11  and  C_16
REMARK    8  A    between atoms: C_12  and  C_17
REMARK    9  A    between atoms: C_12  and  C_18
REMARK   10  A    between atoms: C_13  and  C_19
REMARK   11  A    between atoms: C_16  and  C_20
REMARK   12  A    between atoms: C_26  and  C_30
REMARK   13  A    between atoms: C_27  and  C_29
REMARK   14  A    between atoms: C_29  and  C_31
REMARK                            x       y       z     vdW  Elec       q    Type
REMARK                         _______ _______ _______ _____ _____    ______ ____
ROOT
ATOM      8  C   UNL     1      -3.638 -12.117  13.426  0.00  0.00    +0.000 C 
ATOM      9  C   UNL     1      -2.409 -11.443  14.087  0.00  0.00    +0.032 C 
ATOM     10  C   UNL     1      -3.377 -12.362  11.932  0.00  0.00    +0.012 C 
ATOM     11  C   UNL     1      -3.068 -11.058  11.173  0.00  0.00    +0.022 C 
ATOM     13  C   UNL     1      -2.052 -10.206  11.907  0.00  0.00    -0.073 C 
ATOM     14  C   UNL     1      -1.761 -10.402  13.206  0.00  0.00    -0.022 C 
ATOM     19  C   UNL     1      -1.345  -9.151  11.101  0.00  0.00    +0.039 C 
ENDROOT
BRANCH   8  12
ATOM     12  C   UNL     1      -4.000 -13.438  14.113  0.00  0.00    -0.013 C 
ATOM     17  C   UNL     1      -2.790 -14.367  14.150  0.00  0.00    +0.007 C 
ATOM     18  C   UNL     1      -5.172 -14.105  13.399  0.00  0.00    +0.007 C 
ENDBRANCH   8  12
BRANCH   9  15
ATOM     15  C   UNL     1      -2.781 -10.813  15.433  0.00  0.00    +0.113 C 
BRANCH  15   4
ATOM      1  O   UNL     1      -4.779 -10.705  17.513  0.00  0.00    -0.253 OA
ATOM      4  N   UNL     1      -4.064 -10.186  15.363  0.00  0.00    -0.299 N 
ATOM      7  N   UNL     1      -6.152  -9.498  16.083  0.00  0.00    -0.299 N 
ATOM     21  C   UNL     1      -4.984 -10.177  16.421  0.00  0.00    +0.300 C 
ATOM     33  H   UNL     1      -4.303  -9.663  14.527  0.00  0.00    +0.150 HD
ATOM     35  H   UNL     1      -6.233  -9.101  15.153  0.00  0.00    +0.150 HD
BRANCH   7  27
ATOM     27  C   UNL     1      -7.259  -9.344  16.997  0.00  0.00    +0.105 C 
BRANCH  27  29
ATOM     29  C   UNL     1      -8.598  -9.245  16.276  0.00  0.00    +0.015 C 
ATOM     31  C   UNL     1      -9.511  -8.184  16.874  0.00  0.00    +0.005 C 
ENDBRANCH  27  29
ENDBRANCH   7  27
ENDBRANCH  15   4
ENDBRANCH   9  15
BRANCH  11  16
ATOM     16  C   UNL     1      -4.350 -10.265  10.893  0.00  0.00    +0.082 C 
BRANCH  16  20
ATOM      5  N   UNL     1      -4.209 -11.317   8.628  0.00  0.00    -0.342 N 
ATOM      6  N   UNL     1      -5.654  -9.641   8.831  0.00  0.00    -0.232 NA
ATOM     20  C   UNL     1      -4.763 -10.379   9.455  0.00  0.00    +0.109 A 
ATOM     22  C   UNL     1      -4.781 -11.175   7.390  0.00  0.00    +0.067 A 
ATOM     23  C   UNL     1      -5.679 -10.122   7.543  0.00  0.00    +0.089 A 
ATOM     24  C   UNL     1      -4.594 -11.857   6.187  0.00  0.00    +0.042 A 
ATOM     25  C   UNL     1      -6.446  -9.712   6.440  0.00  0.00    +0.030 A 
ATOM     26  C   UNL     1      -5.366 -11.434   5.099  0.00  0.00    +0.061 A 
ATOM     28  C   UNL     1      -6.276 -10.382   5.221  0.00  0.00    +0.017 A 
ATOM     34  H   UNL     1      -3.504 -11.996   8.883  0.00  0.00    +0.167 HD
BRANCH  26  30
ATOM      3  O   UNL     1      -5.961 -11.930   2.844  0.00  0.00    -0.245 OA
ATOM     30  C   UNL     1      -5.217 -12.106   3.818  0.00  0.00    +0.339 C 
BRANCH  30   2
ATOM      2  O   UNL     1      -4.147 -12.960   3.819  0.00  0.00    -0.464 OA
ATOM     32  C   UNL     1      -3.070 -12.649   2.931  0.00  0.00    +0.280 C 
ENDBRANCH  30   2
ENDBRANCH  26  30
ENDBRANCH  16  20
ENDBRANCH  11  16
TORSDOF 9
ENDMDL
MODEL 6
REMARK VINA RESULT:      -6.2     23.797     29.382
REMARK  Name = 71693177
REMARK  14 active torsions:
REMARK  status: ('A' for Active; 'I' for Inactive)
REMARK    1  A    between atoms: O_2  and  C_30
REMARK    2  A    between atoms: O_2  and  C_32
REMARK    3  A    between atoms: N_4  and  C_15
REMARK    4  A    between atoms: N_7  and  C_27
REMARK    5  A    between atoms: C_8  and  C_12
REMARK    6  A    between atoms: C_9  and  C_15
REMARK    7  A    between atoms: C_11  and  C_16
REMARK    8  A    between atoms: C_12  and  C_17
REMARK    9  A    between atoms: C_12  and  C_18
REMARK   10  A    between atoms: C_13  and  C_19
REMARK   11  A    between atoms: C_16  and  C_20
REMARK   12  A    between atoms: C_26  and  C_30
REMARK   13  A    between atoms: C_27  and  C_29
REMARK   14  A    between atoms: C_29  and  C_31
REMARK                            x       y       z     vdW  Elec       q    Type
REMARK                         _______ _______ _______ _____ _____    ______ ____
ROOT
ATOM      8  C   UNL     1      -6.555  -9.594   9.879  0.00  0.00    +0.000 C 
ATOM      9  C   UNL     1      -5.607  -9.165   8.732  0.00  0.00    +0.032 C 
ATOM     10  C   UNL     1      -6.090  -8.994  11.215  0.00  0.00    +0.012 C 
ATOM     11  C   UNL     1      -4.657  -9.424  11.579  0.00  0.00    +0.022 C 
ATOM     13  C   UNL     1      -3.709  -9.280  10.405  0.00  0.00    -0.073 C 
ATOM     14  C   UNL     1      -4.153  -9.151   9.141  0.00  0.00    -0.022 C 
ATOM     19  C   UNL     1      -2.240  -9.242  10.721  0.00  0.00    +0.039 C 
ENDROOT
BRANCH   8  12
ATOM     12  C   UNL     1      -8.005  -9.183   9.603  0.00  0.00    -0.013 C 
ATOM     17  C   UNL     1      -8.066  -7.732   9.136  0.00  0.00    +0.007 C 
ATOM     18  C   UNL     1      -8.863  -9.388  10.848  0.00  0.00    +0.007 C 
ENDBRANCH   8  12
BRANCH   9  15
ATOM     15  C   UNL     1      -5.783 -10.061   7.503  0.00  0.00    +0.113 C 
BRANCH  15   4
ATOM      1  O   UNL     1      -8.253  -9.605   6.082  0.00  0.00    -0.253 OA
ATOM      4  N   UNL     1      -5.965  -9.276   6.323  0.00  0.00    -0.299 N 
ATOM      7  N   UNL     1      -7.094  -8.290   4.561  0.00  0.00    -0.299 N 
ATOM     21  C   UNL     1      -7.202  -9.101   5.688  0.00  0.00    +0.300 C 
ATOM     33  H   UNL     1      -5.171  -8.762   5.955  0.00  0.00    +0.150 HD
ATOM     35  H   UNL     1      -6.182  -7.926   4.308  0.00  0.00    +0.150 HD
BRANCH   7  27
ATOM     27  C   UNL     1      -8.225  -7.953   3.728  0.00  0.00    +0.105 C 
BRANCH  27  29
ATOM     29  C   UNL     1      -8.377  -8.902   2.544  0.00  0.00    +0.015 C 
ATOM     31  C   UNL     1      -8.899  -8.205   1.296  0.00  0.00    +0.005 C 
ENDBRANCH  27  29
ENDBRANCH   7  27
ENDBRANCH  15   4
ENDBRANCH   9  15
BRANCH  11  16
ATOM     16  C   UNL     1      -4.633 -10.854  12.131  0.00  0.00    +0.082 C 
BRANCH  16  20
ATOM      5  N   UNL     1      -5.948 -10.694  14.252  0.00  0.00    -0.342 N 
ATOM      6  N   UNL     1      -3.764 -11.032  14.488  0.00  0.00    -0.232 NA
ATOM     20  C   UNL     1      -4.744 -10.866  13.628  0.00  0.00    +0.109 A 
ATOM     22  C   UNL     1      -5.730 -10.754  15.605  0.00  0.00    +0.067 A 
ATOM     23  C   UNL     1      -4.359 -10.965  15.726  0.00  0.00    +0.089 A 
ATOM     24  C   UNL     1      -6.589 -10.643  16.700  0.00  0.00    +0.042 A 
ATOM     25  C   UNL     1      -3.794 -11.075  17.007  0.00  0.00    +0.030 A 
ATOM     26  C   UNL     1      -6.009 -10.756  17.968  0.00  0.00    +0.061 A 
ATOM     28  C   UNL     1      -4.637 -10.968  18.121  0.00  0.00    +0.017 A 
ATOM     34  H   UNL     1      -6.841 -10.550  13.800  0.00  0.00    +0.167 HD
BRANCH  26  30
ATOM      3  O   UNL     1      -6.430 -10.623  20.311  0.00  0.00    -0.245 OA
ATOM     30  C   UNL     1      -6.853 -10.649  19.148  0.00  0.00    +0.339 C 
BRANCH  30   2
ATOM      2  O   UNL     1      -8.178 -10.582  18.814  0.00  0.00    -0.464 OA
ATOM     32  C   UNL     1      -9.086 -11.351  19.609  0.00  0.00    +0.280 C 
ENDBRANCH  30   2
ENDBRANCH  26  30
ENDBRANCH  16  20
ENDBRANCH  11  16
TORSDOF 9
ENDMDL
MODEL 7
REMARK VINA RESULT:      -6.2     31.485     33.844
REMARK  Name = 71693177
REMARK  14 active torsions:
REMARK  status: ('A' for Active; 'I' for Inactive)
REMARK    1  A    between atoms: O_2  and  C_30
REMARK    2  A    between atoms: O_2  and  C_32
REMARK    3  A    between atoms: N_4  and  C_15
REMARK    4  A    between atoms: N_7  and  C_27
REMARK    5  A    between atoms: C_8  and  C_12
REMARK    6  A    between atoms: C_9  and  C_15
REMARK    7  A    between atoms: C_11  and  C_16
REMARK    8  A    between atoms: C_12  and  C_17
REMARK    9  A    between atoms: C_12  and  C_18
REMARK   10  A    between atoms: C_13  and  C_19
REMARK   11  A    between atoms: C_16  and  C_20
REMARK   12  A    between atoms: C_26  and  C_30
REMARK   13  A    between atoms: C_27  and  C_29
REMARK   14  A    between atoms: C_29  and  C_31
REMARK                            x       y       z     vdW  Elec       q    Type
REMARK                         _______ _______ _______ _____ _____    ______ ____
ROOT
ATOM      8  C   UNL     1      21.294   5.417  21.992  0.00  0.00    +0.000 C 
ATOM      9  C   UNL     1      21.979   6.710  22.502  0.00  0.00    +0.032 C 
ATOM     10  C   UNL     1      20.479   5.707  20.722  0.00  0.00    +0.012 C 
ATOM     11  C   UNL     1      19.394   6.775  20.956  0.00  0.00    +0.022 C 
ATOM     13  C   UNL     1      19.939   7.978  21.700  0.00  0.00    -0.073 C 
ATOM     14  C   UNL     1      21.103   7.934  22.374  0.00  0.00    -0.022 C 
ATOM     19  C   UNL     1      19.137   9.247  21.615  0.00  0.00    +0.039 C 
ENDROOT
BRANCH   8  12
ATOM     12  C   UNL     1      22.311   4.306  21.714  0.00  0.00    -0.013 C 
ATOM     17  C   UNL     1      23.401   4.808  20.771  0.00  0.00    +0.007 C 
ATOM     18  C   UNL     1      21.614   3.081  21.130  0.00  0.00    +0.007 C 
ENDBRANCH   8  12
BRANCH   9  15
ATOM     15  C   UNL     1      22.434   6.558  23.957  0.00  0.00    +0.113 C 
BRANCH  15   4
ATOM      1  O   UNL     1      22.552   7.104  26.788  0.00  0.00    -0.253 OA
ATOM      4  N   UNL     1      21.330   6.704  24.853  0.00  0.00    -0.299 N 
ATOM      7  N   UNL     1      20.233   7.063  26.857  0.00  0.00    -0.299 N 
ATOM     21  C   UNL     1      21.468   6.970  26.222  0.00  0.00    +0.300 C 
ATOM     33  H   UNL     1      20.389   6.679  24.471  0.00  0.00    +0.150 HD
ATOM     35  H   UNL     1      19.390   6.929  26.308  0.00  0.00    +0.150 HD
BRANCH   7  27
ATOM     27  C   UNL     1      20.098   7.331  28.270  0.00  0.00    +0.105 C 
BRANCH  27  29
ATOM     29  C   UNL     1      20.121   6.058  29.107  0.00  0.00    +0.015 C 
ATOM     31  C   UNL     1      19.158   6.110  30.284  0.00  0.00    +0.005 C 
ENDBRANCH  27  29
ENDBRANCH   7  27
ENDBRANCH  15   4
ENDBRANCH   9  15
BRANCH  11  16
ATOM     16  C   UNL     1      18.183   6.181  21.685  0.00  0.00    +0.082 C 
BRANCH  16  20
ATOM      5  N   UNL     1      15.740   6.703  21.809  0.00  0.00    -0.342 N 
ATOM      6  N   UNL     1      16.707   7.044  19.836  0.00  0.00    -0.232 NA
ATOM     20  C   UNL     1      16.893   6.649  21.076  0.00  0.00    +0.109 A 
ATOM     22  C   UNL     1      14.744   7.165  20.988  0.00  0.00    +0.067 A 
ATOM     23  C   UNL     1      15.372   7.370  19.762  0.00  0.00    +0.089 A 
ATOM     24  C   UNL     1      13.387   7.412  21.206  0.00  0.00    +0.042 A 
ATOM     25  C   UNL     1      14.618   7.850  18.679  0.00  0.00    +0.030 A 
ATOM     26  C   UNL     1      12.652   7.889  20.115  0.00  0.00    +0.061 A 
ATOM     28  C   UNL     1      13.255   8.105  18.874  0.00  0.00    +0.017 A 
ATOM     34  H   UNL     1      15.639   6.451  22.783  0.00  0.00    +0.167 HD
BRANCH  26  30
ATOM      3  O   UNL     1      10.470   8.483  19.359  0.00  0.00    -0.245 OA
ATOM     30  C   UNL     1      11.234   8.166  20.280  0.00  0.00    +0.339 C 
BRANCH  30   2
ATOM      2  O   UNL     1      10.844   8.033  21.586  0.00  0.00    -0.464 OA
ATOM     32  C   UNL     1      10.528   9.237  22.292  0.00  0.00    +0.280 C 
ENDBRANCH  30   2
ENDBRANCH  26  30
ENDBRANCH  16  20
ENDBRANCH  11  16
TORSDOF 9
ENDMDL
MODEL 8
REMARK VINA RESULT:      -6.1     23.806     29.562
REMARK  Name = 71693177
REMARK  14 active torsions:
REMARK  status: ('A' for Active; 'I' for Inactive)
REMARK    1  A    between atoms: O_2  and  C_30
REMARK    2  A    between atoms: O_2  and  C_32
REMARK    3  A    between atoms: N_4  and  C_15
REMARK    4  A    between atoms: N_7  and  C_27
REMARK    5  A    between atoms: C_8  and  C_12
REMARK    6  A    between atoms: C_9  and  C_15
REMARK    7  A    between atoms: C_11  and  C_16
REMARK    8  A    between atoms: C_12  and  C_17
REMARK    9  A    between atoms: C_12  and  C_18
REMARK   10  A    between atoms: C_13  and  C_19
REMARK   11  A    between atoms: C_16  and  C_20
REMARK   12  A    between atoms: C_26  and  C_30
REMARK   13  A    between atoms: C_27  and  C_29
REMARK   14  A    between atoms: C_29  and  C_31
REMARK                            x       y       z     vdW  Elec       q    Type
REMARK                         _______ _______ _______ _____ _____    ______ ____
ROOT
ATOM      8  C   UNL     1      -2.961 -12.599  13.254  0.00  0.00    +0.000 C 
ATOM      9  C   UNL     1      -1.842 -11.562  13.525  0.00  0.00    +0.032 C 
ATOM     10  C   UNL     1      -3.126 -12.829  11.744  0.00  0.00    +0.012 C 
ATOM     11  C   UNL     1      -3.471 -11.530  10.991  0.00  0.00    +0.022 C 
ATOM     13  C   UNL     1      -2.572 -10.383  11.407  0.00  0.00    -0.073 C 
ATOM     14  C   UNL     1      -1.841 -10.421  12.536  0.00  0.00    -0.022 C 
ATOM     19  C   UNL     1      -2.498  -9.207  10.472  0.00  0.00    +0.039 C 
ENDROOT
BRANCH   8  12
ATOM     12  C   UNL     1      -2.683 -13.932  13.955  0.00  0.00    -0.013 C 
ATOM     17  C   UNL     1      -1.361 -14.521  13.472  0.00  0.00    +0.007 C 
ATOM     18  C   UNL     1      -3.830 -14.909  13.714  0.00  0.00    +0.007 C 
ENDBRANCH   8  12
BRANCH   9  15
ATOM     15  C   UNL     1      -1.936 -11.004  14.949  0.00  0.00    +0.113 C 
BRANCH  15   4
ATOM      1  O   UNL     1      -4.012 -11.577  16.870  0.00  0.00    -0.253 OA
ATOM      4  N   UNL     1      -3.160 -10.289  15.134  0.00  0.00    -0.299 N 
ATOM      7  N   UNL     1      -5.216  -9.768  16.055  0.00  0.00    -0.299 N 
ATOM     21  C   UNL     1      -4.123 -10.630  16.092  0.00  0.00    +0.300 C 
ATOM     33  H   UNL     1      -3.317  -9.449  14.586  0.00  0.00    +0.150 HD
ATOM     35  H   UNL     1      -5.223  -9.018  15.372  0.00  0.00    +0.150 HD
BRANCH   7  27
ATOM     27  C   UNL     1      -6.348  -9.901  16.942  0.00  0.00    +0.105 C 
BRANCH  27  29
ATOM     29  C   UNL     1      -7.668  -9.583  16.250  0.00  0.00    +0.015 C 
ATOM     31  C   UNL     1      -8.636  -8.827  17.149  0.00  0.00    +0.005 C 
ENDBRANCH  27  29
ENDBRANCH   7  27
ENDBRANCH  15   4
ENDBRANCH   9  15
BRANCH  11  16
ATOM     16  C   UNL     1      -4.948 -11.163  11.170  0.00  0.00    +0.082 C 
BRANCH  16  20
ATOM      5  N   UNL     1      -6.499  -9.617   9.961  0.00  0.00    -0.342 N 
ATOM      6  N   UNL     1      -5.190 -10.877   8.680  0.00  0.00    -0.232 NA
ATOM     20  C   UNL     1      -5.523 -10.574   9.915  0.00  0.00    +0.109 A 
ATOM     22  C   UNL     1      -6.816  -9.281   8.670  0.00  0.00    +0.067 A 
ATOM     23  C   UNL     1      -5.986 -10.081   7.889  0.00  0.00    +0.089 A 
ATOM     24  C   UNL     1      -7.731  -8.373   8.135  0.00  0.00    +0.042 A 
ATOM     25  C   UNL     1      -6.059  -9.983   6.490  0.00  0.00    +0.030 A 
ATOM     26  C   UNL     1      -7.790  -8.288   6.740  0.00  0.00    +0.061 A 
ATOM     28  C   UNL     1      -6.970  -9.078   5.930  0.00  0.00    +0.017 A 
ATOM     34  H   UNL     1      -6.913  -9.226  10.796  0.00  0.00    +0.167 HD
BRANCH  26  30
ATOM      3  O   UNL     1      -9.477  -6.603   6.750  0.00  0.00    -0.245 OA
ATOM     30  C   UNL     1      -8.724  -7.360   6.122  0.00  0.00    +0.339 C 
BRANCH  30   2
ATOM      2  O   UNL     1      -8.670  -7.425   4.756  0.00  0.00    -0.464 OA
ATOM     32  C   UNL     1      -9.915  -7.353   4.055  0.00  0.00    +0.280 C 
ENDBRANCH  30   2
ENDBRANCH  26  30
ENDBRANCH  16  20
ENDBRANCH  11  16
TORSDOF 9
ENDMDL
MODEL 9
REMARK VINA RESULT:      -6.0     24.403     29.895
REMARK  Name = 71693177
REMARK  14 active torsions:
REMARK  status: ('A' for Active; 'I' for Inactive)
REMARK    1  A    between atoms: O_2  and  C_30
REMARK    2  A    between atoms: O_2  and  C_32
REMARK    3  A    between atoms: N_4  and  C_15
REMARK    4  A    between atoms: N_7  and  C_27
REMARK    5  A    between atoms: C_8  and  C_12
REMARK    6  A    between atoms: C_9  and  C_15
REMARK    7  A    between atoms: C_11  and  C_16
REMARK    8  A    between atoms: C_12  and  C_17
REMARK    9  A    between atoms: C_12  and  C_18
REMARK   10  A    between atoms: C_13  and  C_19
REMARK   11  A    between atoms: C_16  and  C_20
REMARK   12  A    between atoms: C_26  and  C_30
REMARK   13  A    between atoms: C_27  and  C_29
REMARK   14  A    between atoms: C_29  and  C_31
REMARK                            x       y       z     vdW  Elec       q    Type
REMARK                         _______ _______ _______ _____ _____    ______ ____
ROOT
ATOM      8  C   UNL     1      -6.628  -9.355   9.446  0.00  0.00    +0.000 C 
ATOM      9  C   UNL     1      -5.467  -9.075   8.458  0.00  0.00    +0.032 C 
ATOM     10  C   UNL     1      -6.297  -8.792  10.836  0.00  0.00    +0.012 C 
ATOM     11  C   UNL     1      -5.004  -9.397  11.417  0.00  0.00    +0.022 C 
ATOM     13  C   UNL     1      -3.879  -9.400  10.402  0.00  0.00    -0.073 C 
ATOM     14  C   UNL     1      -4.104  -9.241   9.085  0.00  0.00    -0.022 C 
ATOM     19  C   UNL     1      -2.482  -9.546  10.941  0.00  0.00    +0.039 C 
ENDROOT
BRANCH   8  12
ATOM     12  C   UNL     1      -7.952  -8.766   8.949  0.00  0.00    -0.013 C 
ATOM     17  C   UNL     1      -7.755  -7.322   8.497  0.00  0.00    +0.007 C 
ATOM     18  C   UNL     1      -9.014  -8.850  10.041  0.00  0.00    +0.007 C 
ENDBRANCH   8  12
BRANCH   9  15
ATOM     15  C   UNL     1      -5.570  -9.966   7.216  0.00  0.00    +0.113 C 
BRANCH  15   4
ATOM      1  O   UNL     1      -4.882 -11.851   5.142  0.00  0.00    -0.253 OA
ATOM      4  N   UNL     1      -4.718 -11.107   7.337  0.00  0.00    -0.299 N 
ATOM      7  N   UNL     1      -3.576 -13.006   6.674  0.00  0.00    -0.299 N 
ATOM     21  C   UNL     1      -4.431 -11.980   6.280  0.00  0.00    +0.300 C 
ATOM     33  H   UNL     1      -4.241 -11.264   8.220  0.00  0.00    +0.150 HD
ATOM     35  H   UNL     1      -3.262 -13.035   7.638  0.00  0.00    +0.150 HD
BRANCH   7  27
ATOM     27  C   UNL     1      -3.125 -14.039   5.771  0.00  0.00    +0.105 C 
BRANCH  27  29
ATOM     29  C   UNL     1      -1.815 -13.676   5.082  0.00  0.00    +0.015 C 
ATOM     31  C   UNL     1      -0.674 -14.609   5.462  0.00  0.00    +0.005 C 
ENDBRANCH  27  29
ENDBRANCH   7  27
ENDBRANCH  15   4
ENDBRANCH   9  15
BRANCH  11  16
ATOM     16  C   UNL     1      -5.252 -10.807  11.966  0.00  0.00    +0.082 C 
BRANCH  16  20
ATOM      5  N   UNL     1      -6.200 -11.007  14.272  0.00  0.00    -0.342 N 
ATOM      6  N   UNL     1      -3.997 -10.737  14.148  0.00  0.00    -0.232 NA
ATOM     20  C   UNL     1      -5.112 -10.846  13.460  0.00  0.00    +0.109 A 
ATOM     22  C   UNL     1      -5.757 -11.002  15.570  0.00  0.00    +0.067 A 
ATOM     23  C   UNL     1      -4.380 -10.832  15.466  0.00  0.00    +0.089 A 
ATOM     24  C   UNL     1      -6.425 -11.128  16.789  0.00  0.00    +0.042 A 
ATOM     25  C   UNL     1      -3.606 -10.782  16.637  0.00  0.00    +0.030 A 
ATOM     26  C   UNL     1      -5.639 -11.076  17.945  0.00  0.00    +0.061 A 
ATOM     28  C   UNL     1      -4.254 -10.906  17.873  0.00  0.00    +0.017 A 
ATOM     34  H   UNL     1      -7.159 -11.113  13.971  0.00  0.00    +0.167 HD
BRANCH  26  30
ATOM      3  O   UNL     1      -6.336 -10.296  20.088  0.00  0.00    -0.245 OA
ATOM     30  C   UNL     1      -6.277 -11.202  19.246  0.00  0.00    +0.339 C 
BRANCH  30   2
ATOM      2  O   UNL     1      -6.808 -12.450  19.427  0.00  0.00    -0.464 OA
ATOM     32  C   UNL     1      -8.206 -12.521  19.725  0.00  0.00    +0.280 C 
ENDBRANCH  30   2
ENDBRANCH  26  30
ENDBRANCH  16  20
ENDBRANCH  11  16
TORSDOF 9
ENDMDL
MODEL 10
REMARK VINA RESULT:      -6.0     29.796     32.289
REMARK  Name = 71693177
REMARK  14 active torsions:
REMARK  status: ('A' for Active; 'I' for Inactive)
REMARK    1  A    between atoms: O_2  and  C_30
REMARK    2  A    between atoms: O_2  and  C_32
REMARK    3  A    between atoms: N_4  and  C_15
REMARK    4  A    between atoms: N_7  and  C_27
REMARK    5  A    between atoms: C_8  and  C_12
REMARK    6  A    between atoms: C_9  and  C_15
REMARK    7  A    between atoms: C_11  and  C_16
REMARK    8  A    between atoms: C_12  and  C_17
REMARK    9  A    between atoms: C_12  and  C_18
REMARK   10  A    between atoms: C_13  and  C_19
REMARK   11  A    between atoms: C_16  and  C_20
REMARK   12  A    between atoms: C_26  and  C_30
REMARK   13  A    between atoms: C_27  and  C_29
REMARK   14  A    between atoms: C_29  and  C_31
REMARK                            x       y       z     vdW  Elec       q    Type
REMARK                         _______ _______ _______ _____ _____    ______ ____
ROOT
ATOM      8  C   UNL     1      13.635  10.096  20.235  0.00  0.00    +0.000 C 
ATOM      9  C   UNL     1      12.091  10.187  20.328  0.00  0.00    +0.032 C 
ATOM     10  C   UNL     1      14.063   8.701  19.755  0.00  0.00    +0.012 C 
ATOM     11  C   UNL     1      13.564   7.585  20.692  0.00  0.00    +0.022 C 
ATOM     13  C   UNL     1      12.101   7.759  21.046  0.00  0.00    -0.073 C 
ATOM     14  C   UNL     1      11.456   8.926  20.864  0.00  0.00    -0.022 C 
ATOM     19  C   UNL     1      11.383   6.548  21.574  0.00  0.00    +0.039 C 
ENDROOT
BRANCH   8  12
ATOM     12  C   UNL     1      14.212  11.166  19.302  0.00  0.00    -0.013 C 
ATOM     17  C   UNL     1      13.998  10.771  17.844  0.00  0.00    +0.007 C 
ATOM     18  C   UNL     1      15.694  11.381  19.593  0.00  0.00    +0.007 C 
ENDBRANCH   8  12
BRANCH   9  15
ATOM     15  C   UNL     1      11.657  11.381  21.185  0.00  0.00    +0.113 C 
BRANCH  15   4
ATOM      1  O   UNL     1      13.297  12.926  22.988  0.00  0.00    -0.253 OA
ATOM      4  N   UNL     1      11.891  11.124  22.571  0.00  0.00    -0.299 N 
ATOM      7  N   UNL     1      12.759  11.444  24.691  0.00  0.00    -0.299 N 
ATOM     21  C   UNL     1      12.705  11.923  23.385  0.00  0.00    +0.300 C 
ATOM     33  H   UNL     1      11.393  10.357  23.012  0.00  0.00    +0.150 HD
ATOM     35  H   UNL     1      12.242  10.603  24.923  0.00  0.00    +0.150 HD
BRANCH   7  27
ATOM     27  C   UNL     1      13.529  12.088  25.729  0.00  0.00    +0.105 C 
BRANCH  27  29
ATOM     29  C   UNL     1      14.955  11.556  25.809  0.00  0.00    +0.015 C 
ATOM     31  C   UNL     1      15.494  11.528  27.232  0.00  0.00    +0.005 C 
ENDBRANCH  27  29
ENDBRANCH   7  27
ENDBRANCH  15   4
ENDBRANCH   9  15
BRANCH  11  16
ATOM     16  C   UNL     1      14.428   7.495  21.954  0.00  0.00    +0.082 C 
BRANCH  16  20
ATOM      5  N   UNL     1      16.795   8.303  21.920  0.00  0.00    -0.342 N 
ATOM      6  N   UNL     1      16.438   6.305  21.013  0.00  0.00    -0.232 NA
ATOM     20  C   UNL     1      15.881   7.333  21.614  0.00  0.00    +0.109 A 
ATOM     22  C   UNL     1      18.023   7.872  21.489  0.00  0.00    +0.067 A 
ATOM     23  C   UNL     1      17.774   6.623  20.926  0.00  0.00    +0.089 A 
ATOM     24  C   UNL     1      19.292   8.451  21.541  0.00  0.00    +0.042 A 
ATOM     25  C   UNL     1      18.842   5.894  20.378  0.00  0.00    +0.030 A 
ATOM     26  C   UNL     1      20.344   7.710  20.991  0.00  0.00    +0.061 A 
ATOM     28  C   UNL     1      20.125   6.455  20.419  0.00  0.00    +0.017 A 
ATOM     34  H   UNL     1      16.602   9.181  22.383  0.00  0.00    +0.167 HD
BRANCH  26  30
ATOM      3  O   UNL     1      22.278   8.629  22.041  0.00  0.00    -0.245 OA
ATOM     30  C   UNL     1      21.690   8.260  21.015  0.00  0.00    +0.339 C 
BRANCH  30   2
ATOM      2  O   UNL     1      22.232   8.321  19.760  0.00  0.00    -0.464 OA
ATOM     32  C   UNL     1      23.592   8.756  19.663  0.00  0.00    +0.280 C 
ENDBRANCH  30   2
ENDBRANCH  26  30
ENDBRANCH  16  20
ENDBRANCH  11  16
TORSDOF 9
ENDMDL
