MODEL 1
REMARK VINA RESULT:      -6.3      0.000      0.000
REMARK  Name = 56774336
REMARK  9 active torsions:
REMARK  status: ('A' for Active; 'I' for Inactive)
REMARK    1  A    between atoms: S_1  and  N_6
REMARK    2  A    between atoms: S_1  and  C_17
REMARK    3  A    between atoms: O_5  and  C_21
REMARK    4  A    between atoms: N_6  and  C_10
REMARK    5  A    between atoms: C_8  and  C_13
REMARK    6  A    between atoms: C_8  and  C_14
REMARK    7  A    between atoms: C_9  and  C_12
REMARK    8  A    between atoms: C_12  and  C_15
REMARK    9  A    between atoms: C_18  and  C_21
REMARK                            x       y       z     vdW  Elec       q    Type
REMARK                         _______ _______ _______ _____ _____    ______ ____
ROOT
ATOM      8  C   UNL     1      15.624   8.286  21.038  0.00  0.00    -0.015 C 
ATOM      9  C   UNL     1      16.840   7.358  21.242  0.00  0.00    +0.004 C 
ATOM     10  C   UNL     1      14.908   7.081  20.394  0.00  0.00    +0.083 C 
ATOM     11  C   UNL     1      16.308   6.529  20.053  0.00  0.00    +0.025 C 
ATOM     13  C   UNL     1      15.028   8.790  22.334  0.00  0.00    +0.013 C 
ATOM     14  C   UNL     1      15.827   9.440  20.074  0.00  0.00    +0.013 C 
ENDROOT
BRANCH  10   6
ATOM      6  N   UNL     1      14.017   7.350  19.224  0.00  0.00    -0.186 NA
ATOM     25  H   UNL     1      14.411   7.989  18.522  0.00  0.00    +0.148 HD
BRANCH   6   1
ATOM      1  S   UNL     1      12.303   7.248  19.242  0.00  0.00    +0.059 S 
ATOM      2  O   UNL     1      11.926   5.922  19.714  0.00  0.00    -0.153 OA
ATOM      3  O   UNL     1      11.793   7.729  17.965  0.00  0.00    -0.153 OA
BRANCH   1  17
ATOM     17  C   UNL     1      11.882   8.422  20.464  0.00  0.00    +0.105 A 
ATOM     19  C   UNL     1      11.294   8.006  21.658  0.00  0.00    +0.028 A 
ATOM     20  C   UNL     1      12.128   9.777  20.242  0.00  0.00    +0.028 A 
ATOM     22  C   UNL     1      10.954   8.944  22.632  0.00  0.00    +0.002 A 
ATOM     23  C   UNL     1      11.788  10.715  21.217  0.00  0.00    +0.002 A 
ATOM     24  C   UNL     1      11.201  10.300  22.411  0.00  0.00    +0.000 A 
ENDBRANCH   1  17
ENDBRANCH   6   1
ENDBRANCH  10   6
BRANCH   9  12
ATOM     12  C   UNL     1      18.211   7.955  21.034  0.00  0.00    +0.063 C 
BRANCH  12  15
ATOM      4  O   UNL     1      20.595   5.831  22.716  0.00  0.00    -0.357 OA
ATOM      7  N   UNL     1      19.596   6.797  22.712  0.00  0.00    -0.083 NA
ATOM     15  C   UNL     1      19.282   6.964  21.424  0.00  0.00    +0.084 A 
ATOM     16  C   UNL     1      20.041   6.137  20.578  0.00  0.00    +0.073 A 
ATOM     18  C   UNL     1      20.851   5.446  21.440  0.00  0.00    +0.163 A 
BRANCH  18  21
ATOM     21  C   UNL     1      21.887   4.422  21.259  0.00  0.00    +0.232 C 
BRANCH  21   5
ATOM      5  O   UNL     1      22.764   4.399  22.389  0.00  0.00    -0.387 OA
ATOM     26  H   UNL     1      22.794   3.480  22.705  0.00  0.00    +0.210 HD
ENDBRANCH  21   5
ENDBRANCH  18  21
ENDBRANCH  12  15
ENDBRANCH   9  12
TORSDOF 7
ENDMDL
MODEL 2
REMARK VINA RESULT:      -6.2     27.390     29.514
REMARK  Name = 56774336
REMARK  9 active torsions:
REMARK  status: ('A' for Active; 'I' for Inactive)
REMARK    1  A    between atoms: S_1  and  N_6
REMARK    2  A    between atoms: S_1  and  C_17
REMARK    3  A    between atoms: O_5  and  C_21
REMARK    4  A    between atoms: N_6  and  C_10
REMARK    5  A    between atoms: C_8  and  C_13
REMARK    6  A    between atoms: C_8  and  C_14
REMARK    7  A    between atoms: C_9  and  C_12
REMARK    8  A    between atoms: C_12  and  C_15
REMARK    9  A    between atoms: C_18  and  C_21
REMARK                            x       y       z     vdW  Elec       q    Type
REMARK                         _______ _______ _______ _____ _____    ______ ____
ROOT
ATOM      8  C   UNL     1      -4.299 -11.236  15.490  0.00  0.00    -0.015 C 
ATOM      9  C   UNL     1      -5.351 -11.546  16.576  0.00  0.00    +0.004 C 
ATOM     10  C   UNL     1      -4.232 -12.755  15.230  0.00  0.00    +0.083 C 
ATOM     11  C   UNL     1      -4.716 -12.948  16.682  0.00  0.00    +0.025 C 
ATOM     13  C   UNL     1      -4.837 -10.397  14.353  0.00  0.00    +0.013 C 
ATOM     14  C   UNL     1      -2.986 -10.662  15.987  0.00  0.00    +0.013 C 
ENDROOT
BRANCH  10   6
ATOM      6  N   UNL     1      -2.896 -13.344  14.910  0.00  0.00    -0.186 NA
ATOM     25  H   UNL     1      -2.133 -13.042  15.531  0.00  0.00    +0.148 HD
BRANCH   6   1
ATOM      1  S   UNL     1      -2.403 -13.896  13.360  0.00  0.00    +0.059 S 
ATOM      2  O   UNL     1      -3.365 -14.888  12.899  0.00  0.00    -0.153 OA
ATOM      3  O   UNL     1      -0.988 -14.237  13.414  0.00  0.00    -0.153 OA
BRANCH   1  17
ATOM     17  C   UNL     1      -2.571 -12.454  12.390  0.00  0.00    +0.105 A 
ATOM     19  C   UNL     1      -1.739 -11.359  12.619  0.00  0.00    +0.028 A 
ATOM     20  C   UNL     1      -3.540 -12.397  11.390  0.00  0.00    +0.028 A 
ATOM     22  C   UNL     1      -1.876 -10.205  11.847  0.00  0.00    +0.002 A 
ATOM     23  C   UNL     1      -3.677 -11.243  10.617  0.00  0.00    +0.002 A 
ATOM     24  C   UNL     1      -2.845 -10.148  10.846  0.00  0.00    +0.000 A 
ENDBRANCH   1  17
ENDBRANCH   6   1
ENDBRANCH  10   6
BRANCH   9  12
ATOM     12  C   UNL     1      -5.300 -10.729  17.845  0.00  0.00    +0.063 C 
BRANCH  12  15
ATOM      4  O   UNL     1      -7.887 -11.452  20.256  0.00  0.00    -0.357 OA
ATOM      7  N   UNL     1      -6.566 -11.473  19.825  0.00  0.00    -0.083 NA
ATOM     15  C   UNL     1      -6.584 -10.887  18.625  0.00  0.00    +0.084 A 
ATOM     16  C   UNL     1      -7.876 -10.480  18.250  0.00  0.00    +0.073 A 
ATOM     18  C   UNL     1      -8.657 -10.858  19.309  0.00  0.00    +0.163 A 
BRANCH  18  21
ATOM     21  C   UNL     1     -10.091 -10.751  19.603  0.00  0.00    +0.232 C 
BRANCH  21   5
ATOM      5  O   UNL     1     -10.295 -10.041  20.828  0.00  0.00    -0.387 OA
ATOM     26  H   UNL     1      -9.554 -10.270  21.414  0.00  0.00    +0.210 HD
ENDBRANCH  21   5
ENDBRANCH  18  21
ENDBRANCH  12  15
ENDBRANCH   9  12
TORSDOF 7
ENDMDL
MODEL 3
REMARK VINA RESULT:      -6.1     27.035     29.171
REMARK  Name = 56774336
REMARK  9 active torsions:
REMARK  status: ('A' for Active; 'I' for Inactive)
REMARK    1  A    between atoms: S_1  and  N_6
REMARK    2  A    between atoms: S_1  and  C_17
REMARK    3  A    between atoms: O_5  and  C_21
REMARK    4  A    between atoms: N_6  and  C_10
REMARK    5  A    between atoms: C_8  and  C_13
REMARK    6  A    between atoms: C_8  and  C_14
REMARK    7  A    between atoms: C_9  and  C_12
REMARK    8  A    between atoms: C_12  and  C_15
REMARK    9  A    between atoms: C_18  and  C_21
REMARK                            x       y       z     vdW  Elec       q    Type
REMARK                         _______ _______ _______ _____ _____    ______ ____
ROOT
ATOM      8  C   UNL     1      -5.059 -11.163  15.751  0.00  0.00    -0.015 C 
ATOM      9  C   UNL     1      -4.399 -11.460  17.114  0.00  0.00    +0.004 C 
ATOM     10  C   UNL     1      -3.661 -11.332  15.123  0.00  0.00    +0.083 C 
ATOM     11  C   UNL     1      -3.079 -10.946  16.499  0.00  0.00    +0.025 C 
ATOM     13  C   UNL     1      -6.091 -12.192  15.346  0.00  0.00    +0.013 C 
ATOM     14  C   UNL     1      -5.621  -9.764  15.579  0.00  0.00    +0.013 C 
ENDROOT
BRANCH  10   6
ATOM      6  N   UNL     1      -3.297 -10.425  13.991  0.00  0.00    -0.186 NA
ATOM     25  H   UNL     1      -3.725  -9.491  14.034  0.00  0.00    +0.148 HD
BRANCH   6   1
ATOM      1  S   UNL     1      -2.819 -10.941  12.425  0.00  0.00    +0.059 S 
ATOM      2  O   UNL     1      -3.182 -12.343  12.271  0.00  0.00    -0.153 OA
ATOM      3  O   UNL     1      -1.441 -10.526  12.196  0.00  0.00    -0.153 OA
BRANCH   1  17
ATOM     17  C   UNL     1      -3.847  -9.976  11.395  0.00  0.00    +0.105 A 
ATOM     19  C   UNL     1      -5.135  -9.642  11.813  0.00  0.00    +0.028 A 
ATOM     20  C   UNL     1      -3.382  -9.545  10.153  0.00  0.00    +0.028 A 
ATOM     22  C   UNL     1      -5.959  -8.875  10.988  0.00  0.00    +0.002 A 
ATOM     23  C   UNL     1      -4.206  -8.778   9.329  0.00  0.00    +0.002 A 
ATOM     24  C   UNL     1      -5.493  -8.443   9.746  0.00  0.00    +0.000 A 
ENDBRANCH   1  17
ENDBRANCH   6   1
ENDBRANCH  10   6
BRANCH   9  12
ATOM     12  C   UNL     1      -4.889 -10.675  18.308  0.00  0.00    +0.063 C 
BRANCH  12  15
ATOM      4  O   UNL     1      -7.674 -12.669  19.442  0.00  0.00    -0.357 OA
ATOM      7  N   UNL     1      -6.356 -12.519  19.030  0.00  0.00    -0.083 NA
ATOM     15  C   UNL     1      -6.218 -11.214  18.782  0.00  0.00    +0.084 A 
ATOM     16  C   UNL     1      -7.404 -10.498  19.017  0.00  0.00    +0.073 A 
ATOM     18  C   UNL     1      -8.288 -11.459  19.430  0.00  0.00    +0.163 A 
BRANCH  18  21
ATOM     21  C   UNL     1      -9.697 -11.434  19.841  0.00  0.00    +0.232 C 
BRANCH  21   5
ATOM      5  O   UNL     1      -9.965 -10.269  20.626  0.00  0.00    -0.387 OA
ATOM     26  H   UNL     1      -9.104  -9.880  20.858  0.00  0.00    +0.210 HD
ENDBRANCH  21   5
ENDBRANCH  18  21
ENDBRANCH  12  15
ENDBRANCH   9  12
TORSDOF 7
ENDMDL
MODEL 4
REMARK VINA RESULT:      -6.0     26.860     29.028
REMARK  Name = 56774336
REMARK  9 active torsions:
REMARK  status: ('A' for Active; 'I' for Inactive)
REMARK    1  A    between atoms: S_1  and  N_6
REMARK    2  A    between atoms: S_1  and  C_17
REMARK    3  A    between atoms: O_5  and  C_21
REMARK    4  A    between atoms: N_6  and  C_10
REMARK    5  A    between atoms: C_8  and  C_13
REMARK    6  A    between atoms: C_8  and  C_14
REMARK    7  A    between atoms: C_9  and  C_12
REMARK    8  A    between atoms: C_12  and  C_15
REMARK    9  A    between atoms: C_18  and  C_21
REMARK                            x       y       z     vdW  Elec       q    Type
REMARK                         _______ _______ _______ _____ _____    ______ ____
ROOT
ATOM      8  C   UNL     1      -4.382 -11.840  18.118  0.00  0.00    -0.015 C 
ATOM      9  C   UNL     1      -5.317 -10.629  18.318  0.00  0.00    +0.004 C 
ATOM     10  C   UNL     1      -3.719 -11.043  16.976  0.00  0.00    +0.083 C 
ATOM     11  C   UNL     1      -5.052 -10.278  16.838  0.00  0.00    +0.025 C 
ATOM     13  C   UNL     1      -3.504 -12.127  19.315  0.00  0.00    +0.013 C 
ATOM     14  C   UNL     1      -5.046 -13.118  17.640  0.00  0.00    +0.013 C 
ENDROOT
BRANCH  10   6
ATOM      6  N   UNL     1      -3.282 -11.802  15.764  0.00  0.00    -0.186 NA
ATOM     25  H   UNL     1      -3.542 -12.797  15.764  0.00  0.00    +0.148 HD
BRANCH   6   1
ATOM      1  S   UNL     1      -1.942 -11.394  14.771  0.00  0.00    +0.059 S 
ATOM      2  O   UNL     1      -1.238 -12.621  14.422  0.00  0.00    -0.153 OA
ATOM      3  O   UNL     1      -1.212 -10.300  15.397  0.00  0.00    -0.153 OA
BRANCH   1  17
ATOM     17  C   UNL     1      -2.726 -10.768  13.342  0.00  0.00    +0.105 A 
ATOM     19  C   UNL     1      -1.970 -10.457  12.212  0.00  0.00    +0.028 A 
ATOM     20  C   UNL     1      -4.107 -10.575  13.333  0.00  0.00    +0.028 A 
ATOM     22  C   UNL     1      -2.596  -9.953  11.072  0.00  0.00    +0.002 A 
ATOM     23  C   UNL     1      -4.733 -10.071  12.193  0.00  0.00    +0.002 A 
ATOM     24  C   UNL     1      -3.978  -9.760  11.063  0.00  0.00    +0.000 A 
ENDBRANCH   1  17
ENDBRANCH   6   1
ENDBRANCH  10   6
BRANCH   9  12
ATOM     12  C   UNL     1      -6.762 -10.916  18.652  0.00  0.00    +0.063 C 
BRANCH  12  15
ATOM      4  O   UNL     1      -8.859 -10.367  15.768  0.00  0.00    -0.357 OA
ATOM      7  N   UNL     1      -8.042 -11.163  16.561  0.00  0.00    -0.083 NA
ATOM     15  C   UNL     1      -7.669 -10.375  17.573  0.00  0.00    +0.084 A 
ATOM     16  C   UNL     1      -8.215  -9.084  17.473  0.00  0.00    +0.073 A 
ATOM     18  C   UNL     1      -8.954  -9.131  16.321  0.00  0.00    +0.163 A 
BRANCH  18  21
ATOM     21  C   UNL     1      -9.786  -8.155  15.607  0.00  0.00    +0.232 C 
BRANCH  21   5
ATOM      5  O   UNL     1      -9.997  -6.996  16.417  0.00  0.00    -0.387 OA
ATOM     26  H   UNL     1     -10.408  -7.299  17.244  0.00  0.00    +0.210 HD
ENDBRANCH  21   5
ENDBRANCH  18  21
ENDBRANCH  12  15
ENDBRANCH   9  12
TORSDOF 7
ENDMDL
MODEL 5
REMARK VINA RESULT:      -5.9     16.659     18.914
REMARK  Name = 56774336
REMARK  9 active torsions:
REMARK  status: ('A' for Active; 'I' for Inactive)
REMARK    1  A    between atoms: S_1  and  N_6
REMARK    2  A    between atoms: S_1  and  C_17
REMARK    3  A    between atoms: O_5  and  C_21
REMARK    4  A    between atoms: N_6  and  C_10
REMARK    5  A    between atoms: C_8  and  C_13
REMARK    6  A    between atoms: C_8  and  C_14
REMARK    7  A    between atoms: C_9  and  C_12
REMARK    8  A    between atoms: C_12  and  C_15
REMARK    9  A    between atoms: C_18  and  C_21
REMARK                            x       y       z     vdW  Elec       q    Type
REMARK                         _______ _______ _______ _____ _____    ______ ____
ROOT
ATOM      8  C   UNL     1       9.923   7.304   3.429  0.00  0.00    -0.015 C 
ATOM      9  C   UNL     1      10.261   6.407   4.638  0.00  0.00    +0.004 C 
ATOM     10  C   UNL     1      10.189   6.073   2.538  0.00  0.00    +0.083 C 
ATOM     11  C   UNL     1      11.099   5.547   3.668  0.00  0.00    +0.025 C 
ATOM     13  C   UNL     1       8.500   7.815   3.438  0.00  0.00    +0.013 C 
ATOM     14  C   UNL     1      10.886   8.446   3.163  0.00  0.00    +0.013 C 
ENDROOT
BRANCH  10   6
ATOM      6  N   UNL     1      10.859   6.302   1.222  0.00  0.00    -0.186 NA
ATOM     25  H   UNL     1      10.794   7.266   0.868  0.00  0.00    +0.148 HD
BRANCH   6   1
ATOM      1  S   UNL     1      11.129   5.100   0.026  0.00  0.00    +0.059 S 
ATOM      2  O   UNL     1      11.111   5.741  -1.282  0.00  0.00    -0.153 OA
ATOM      3  O   UNL     1      10.244   3.974   0.287  0.00  0.00    -0.153 OA
BRANCH   1  17
ATOM     17  C   UNL     1      12.761   4.593   0.382  0.00  0.00    +0.105 A 
ATOM     19  C   UNL     1      13.018   3.804   1.503  0.00  0.00    +0.028 A 
ATOM     20  C   UNL     1      13.809   4.982  -0.451  0.00  0.00    +0.028 A 
ATOM     22  C   UNL     1      14.322   3.402   1.790  0.00  0.00    +0.002 A 
ATOM     23  C   UNL     1      15.114   4.581  -0.164  0.00  0.00    +0.002 A 
ATOM     24  C   UNL     1      15.371   3.791   0.956  0.00  0.00    +0.000 A 
ENDBRANCH   1  17
ENDBRANCH   6   1
ENDBRANCH  10   6
BRANCH   9  12
ATOM     12  C   UNL     1      11.045   7.032   5.768  0.00  0.00    +0.063 C 
BRANCH  12  15
ATOM      4  O   UNL     1      11.093   5.373   8.972  0.00  0.00    -0.357 OA
ATOM      7  N   UNL     1      11.722   5.963   7.883  0.00  0.00    -0.083 NA
ATOM     15  C   UNL     1      10.729   6.340   7.073  0.00  0.00    +0.084 A 
ATOM     16  C   UNL     1       9.464   6.016   7.593  0.00  0.00    +0.073 A 
ATOM     18  C   UNL     1       9.749   5.410   8.788  0.00  0.00    +0.163 A 
BRANCH  18  21
ATOM     21  C   UNL     1       8.924   4.824   9.852  0.00  0.00    +0.232 C 
BRANCH  21   5
ATOM      5  O   UNL     1       9.736   4.490  10.981  0.00  0.00    -0.387 OA
ATOM     26  H   UNL     1       9.638   3.533  11.126  0.00  0.00    +0.210 HD
ENDBRANCH  21   5
ENDBRANCH  18  21
ENDBRANCH  12  15
ENDBRANCH   9  12
TORSDOF 7
ENDMDL
MODEL 6
REMARK VINA RESULT:      -5.7     27.104     29.299
REMARK  Name = 56774336
REMARK  9 active torsions:
REMARK  status: ('A' for Active; 'I' for Inactive)
REMARK    1  A    between atoms: S_1  and  N_6
REMARK    2  A    between atoms: S_1  and  C_17
REMARK    3  A    between atoms: O_5  and  C_21
REMARK    4  A    between atoms: N_6  and  C_10
REMARK    5  A    between atoms: C_8  and  C_13
REMARK    6  A    between atoms: C_8  and  C_14
REMARK    7  A    between atoms: C_9  and  C_12
REMARK    8  A    between atoms: C_12  and  C_15
REMARK    9  A    between atoms: C_18  and  C_21
REMARK                            x       y       z     vdW  Elec       q    Type
REMARK                         _______ _______ _______ _____ _____    ______ ____
ROOT
ATOM      8  C   UNL     1      -6.644 -11.133  18.132  0.00  0.00    -0.015 C 
ATOM      9  C   UNL     1      -5.721 -10.739  16.960  0.00  0.00    +0.004 C 
ATOM     10  C   UNL     1      -7.778 -10.403  17.383  0.00  0.00    +0.083 C 
ATOM     11  C   UNL     1      -6.682  -9.559  16.700  0.00  0.00    +0.025 C 
ATOM     13  C   UNL     1      -6.814 -12.627  18.288  0.00  0.00    +0.013 C 
ATOM     14  C   UNL     1      -6.318 -10.501  19.472  0.00  0.00    +0.013 C 
ENDROOT
BRANCH  10   6
ATOM      6  N   UNL     1      -8.767  -9.637  18.201  0.00  0.00    -0.186 NA
ATOM     25  H   UNL     1      -8.365  -9.141  19.007  0.00  0.00    +0.148 HD
BRANCH   6   1
ATOM      1  S   UNL     1     -10.441  -9.999  18.325  0.00  0.00    +0.059 S 
ATOM      2  O   UNL     1     -10.840  -9.860  19.720  0.00  0.00    -0.153 OA
ATOM      3  O   UNL     1     -10.703 -11.249  17.624  0.00  0.00    -0.153 OA
BRANCH   1  17
ATOM     17  C   UNL     1     -11.162  -8.705  17.401  0.00  0.00    +0.105 A 
ATOM     19  C   UNL     1     -12.486  -8.805  16.976  0.00  0.00    +0.028 A 
ATOM     20  C   UNL     1     -10.411  -7.574  17.084  0.00  0.00    +0.028 A 
ATOM     22  C   UNL     1     -13.061  -7.773  16.234  0.00  0.00    +0.002 A 
ATOM     23  C   UNL     1     -10.985  -6.541  16.342  0.00  0.00    +0.002 A 
ATOM     24  C   UNL     1     -12.310  -6.640  15.917  0.00  0.00    +0.000 A 
ENDBRANCH   1  17
ENDBRANCH   6   1
ENDBRANCH  10   6
BRANCH   9  12
ATOM     12  C   UNL     1      -4.304 -10.339  17.297  0.00  0.00    +0.063 C 
BRANCH  12  15
ATOM      4  O   UNL     1      -1.509 -11.149  15.162  0.00  0.00    -0.357 OA
ATOM      7  N   UNL     1      -2.061 -10.816  16.393  0.00  0.00    -0.083 NA
ATOM     15  C   UNL     1      -3.372 -10.697  16.164  0.00  0.00    +0.084 A 
ATOM     16  C   UNL     1      -3.702 -10.941  14.820  0.00  0.00    +0.073 A 
ATOM     18  C   UNL     1      -2.497 -11.220  14.234  0.00  0.00    +0.163 A 
BRANCH  18  21
ATOM     21  C   UNL     1      -2.087 -11.564  12.866  0.00  0.00    +0.232 C 
BRANCH  21   5
ATOM      5  O   UNL     1      -1.405 -12.821  12.854  0.00  0.00    -0.387 OA
ATOM     26  H   UNL     1      -2.073 -13.503  12.667  0.00  0.00    +0.210 HD
ENDBRANCH  21   5
ENDBRANCH  18  21
ENDBRANCH  12  15
ENDBRANCH   9  12
TORSDOF 7
ENDMDL
MODEL 7
REMARK VINA RESULT:      -5.7     29.804     32.258
REMARK  Name = 56774336
REMARK  9 active torsions:
REMARK  status: ('A' for Active; 'I' for Inactive)
REMARK    1  A    between atoms: S_1  and  N_6
REMARK    2  A    between atoms: S_1  and  C_17
REMARK    3  A    between atoms: O_5  and  C_21
REMARK    4  A    between atoms: N_6  and  C_10
REMARK    5  A    between atoms: C_8  and  C_13
REMARK    6  A    between atoms: C_8  and  C_14
REMARK    7  A    between atoms: C_9  and  C_12
REMARK    8  A    between atoms: C_12  and  C_15
REMARK    9  A    between atoms: C_18  and  C_21
REMARK                            x       y       z     vdW  Elec       q    Type
REMARK                         _______ _______ _______ _____ _____    ______ ____
ROOT
ATOM      8  C   UNL     1     -15.521   5.505  31.960  0.00  0.00    -0.015 C 
ATOM      9  C   UNL     1     -15.003   4.157  31.416  0.00  0.00    +0.004 C 
ATOM     10  C   UNL     1     -14.075   5.790  32.415  0.00  0.00    +0.083 C 
ATOM     11  C   UNL     1     -13.867   4.262  32.456  0.00  0.00    +0.025 C 
ATOM     13  C   UNL     1     -16.065   6.418  30.885  0.00  0.00    +0.013 C 
ATOM     14  C   UNL     1     -16.500   5.419  33.117  0.00  0.00    +0.013 C 
ENDROOT
BRANCH  10   6
ATOM      6  N   UNL     1     -13.886   6.503  33.715  0.00  0.00    -0.186 NA
ATOM     25  H   UNL     1     -14.080   5.934  34.550  0.00  0.00    +0.148 HD
BRANCH   6   1
ATOM      1  S   UNL     1     -14.015   8.200  33.941  0.00  0.00    +0.059 S 
ATOM      2  O   UNL     1     -13.275   8.562  35.143  0.00  0.00    -0.153 OA
ATOM      3  O   UNL     1     -15.415   8.584  33.816  0.00  0.00    -0.153 OA
BRANCH   1  17
ATOM     17  C   UNL     1     -13.163   8.818  32.548  0.00  0.00    +0.105 A 
ATOM     19  C   UNL     1     -11.781   8.657  32.447  0.00  0.00    +0.028 A 
ATOM     20  C   UNL     1     -13.864   9.477  31.538  0.00  0.00    +0.028 A 
ATOM     22  C   UNL     1     -11.100   9.154  31.335  0.00  0.00    +0.002 A 
ATOM     23  C   UNL     1     -13.183   9.974  30.427  0.00  0.00    +0.002 A 
ATOM     24  C   UNL     1     -11.802   9.812  30.325  0.00  0.00    +0.000 A 
ENDBRANCH   1  17
ENDBRANCH   6   1
ENDBRANCH  10   6
BRANCH   9  12
ATOM     12  C   UNL     1     -15.900   2.952  31.577  0.00  0.00    +0.063 C 
BRANCH  12  15
ATOM      4  O   UNL     1     -14.251  -0.248  31.338  0.00  0.00    -0.357 OA
ATOM      7  N   UNL     1     -14.906   0.748  32.052  0.00  0.00    -0.083 NA
ATOM     15  C   UNL     1     -15.177   1.697  31.151  0.00  0.00    +0.084 A 
ATOM     16  C   UNL     1     -14.721   1.358  29.866  0.00  0.00    +0.073 A 
ATOM     18  C   UNL     1     -14.147   0.127  30.038  0.00  0.00    +0.163 A 
BRANCH  18  21
ATOM     21  C   UNL     1     -13.475  -0.816  29.135  0.00  0.00    +0.232 C 
BRANCH  21   5
ATOM      5  O   UNL     1     -12.353  -1.415  29.788  0.00  0.00    -0.387 OA
ATOM     26  H   UNL     1     -12.414  -2.373  29.634  0.00  0.00    +0.210 HD
ENDBRANCH  21   5
ENDBRANCH  18  21
ENDBRANCH  12  15
ENDBRANCH   9  12
TORSDOF 7
ENDMDL
MODEL 8
REMARK VINA RESULT:      -5.6     26.559     29.550
REMARK  Name = 56774336
REMARK  9 active torsions:
REMARK  status: ('A' for Active; 'I' for Inactive)
REMARK    1  A    between atoms: S_1  and  N_6
REMARK    2  A    between atoms: S_1  and  C_17
REMARK    3  A    between atoms: O_5  and  C_21
REMARK    4  A    between atoms: N_6  and  C_10
REMARK    5  A    between atoms: C_8  and  C_13
REMARK    6  A    between atoms: C_8  and  C_14
REMARK    7  A    between atoms: C_9  and  C_12
REMARK    8  A    between atoms: C_12  and  C_15
REMARK    9  A    between atoms: C_18  and  C_21
REMARK                            x       y       z     vdW  Elec       q    Type
REMARK                         _______ _______ _______ _____ _____    ______ ____
ROOT
ATOM      8  C   UNL     1      -5.802 -11.047  16.683  0.00  0.00    -0.015 C 
ATOM      9  C   UNL     1      -5.583 -11.530  18.132  0.00  0.00    +0.004 C 
ATOM     10  C   UNL     1      -4.313 -11.363  16.434  0.00  0.00    +0.083 C 
ATOM     11  C   UNL     1      -4.095 -11.163  17.948  0.00  0.00    +0.025 C 
ATOM     13  C   UNL     1      -6.792 -11.889  15.911  0.00  0.00    +0.013 C 
ATOM     14  C   UNL     1      -6.129  -9.574  16.520  0.00  0.00    +0.013 C 
ENDROOT
BRANCH  10   6
ATOM      6  N   UNL     1      -3.548 -10.438  15.544  0.00  0.00    -0.186 NA
ATOM     25  H   UNL     1      -4.077  -9.617  15.221  0.00  0.00    +0.148 HD
BRANCH   6   1
ATOM      1  S   UNL     1      -2.222 -10.890  14.551  0.00  0.00    +0.059 S 
ATOM      2  O   UNL     1      -2.103 -12.341  14.575  0.00  0.00    -0.153 OA
ATOM      3  O   UNL     1      -1.072 -10.068  14.906  0.00  0.00    -0.153 OA
BRANCH   1  17
ATOM     17  C   UNL     1      -2.767 -10.395  12.968  0.00  0.00    +0.105 A 
ATOM     19  C   UNL     1      -4.130 -10.379  12.673  0.00  0.00    +0.028 A 
ATOM     20  C   UNL     1      -1.838 -10.020  11.998  0.00  0.00    +0.028 A 
ATOM     22  C   UNL     1      -4.565  -9.988  11.407  0.00  0.00    +0.002 A 
ATOM     23  C   UNL     1      -2.273  -9.629  10.731  0.00  0.00    +0.002 A 
ATOM     24  C   UNL     1      -3.636  -9.612  10.436  0.00  0.00    +0.000 A 
ENDBRANCH   1  17
ENDBRANCH   6   1
ENDBRANCH  10   6
BRANCH   9  12
ATOM     12  C   UNL     1      -6.291 -10.773  19.231  0.00  0.00    +0.063 C 
BRANCH  12  15
ATOM      4  O   UNL     1      -9.813 -11.479  19.577  0.00  0.00    -0.357 OA
ATOM      7  N   UNL     1      -8.752 -10.646  19.243  0.00  0.00    -0.083 NA
ATOM     15  C   UNL     1      -7.655 -11.368  19.486  0.00  0.00    +0.084 A 
ATOM     16  C   UNL     1      -7.959 -12.653  19.970  0.00  0.00    +0.073 A 
ATOM     18  C   UNL     1      -9.328 -12.671  20.008  0.00  0.00    +0.163 A 
BRANCH  18  21
ATOM     21  C   UNL     1     -10.320 -13.678  20.405  0.00  0.00    +0.232 C 
BRANCH  21   5
ATOM      5  O   UNL     1     -11.266 -13.111  21.315  0.00  0.00    -0.387 OA
ATOM     26  H   UNL     1     -11.660 -12.341  20.870  0.00  0.00    +0.210 HD
ENDBRANCH  21   5
ENDBRANCH  18  21
ENDBRANCH  12  15
ENDBRANCH   9  12
TORSDOF 7
ENDMDL
MODEL 9
REMARK VINA RESULT:      -5.6     29.195     31.879
REMARK  Name = 56774336
REMARK  9 active torsions:
REMARK  status: ('A' for Active; 'I' for Inactive)
REMARK    1  A    between atoms: S_1  and  N_6
REMARK    2  A    between atoms: S_1  and  C_17
REMARK    3  A    between atoms: O_5  and  C_21
REMARK    4  A    between atoms: N_6  and  C_10
REMARK    5  A    between atoms: C_8  and  C_13
REMARK    6  A    between atoms: C_8  and  C_14
REMARK    7  A    between atoms: C_9  and  C_12
REMARK    8  A    between atoms: C_12  and  C_15
REMARK    9  A    between atoms: C_18  and  C_21
REMARK                            x       y       z     vdW  Elec       q    Type
REMARK                         _______ _______ _______ _____ _____    ______ ____
ROOT
ATOM      8  C   UNL     1       1.362   3.361  -6.048  0.00  0.00    -0.015 C 
ATOM      9  C   UNL     1       1.266   1.824  -6.140  0.00  0.00    +0.004 C 
ATOM     10  C   UNL     1       2.895   3.188  -6.034  0.00  0.00    +0.083 C 
ATOM     11  C   UNL     1       2.653   1.773  -5.466  0.00  0.00    +0.025 C 
ATOM     13  C   UNL     1       0.792   4.073  -7.254  0.00  0.00    +0.013 C 
ATOM     14  C   UNL     1       0.825   3.982  -4.772  0.00  0.00    +0.013 C 
ENDROOT
BRANCH  10   6
ATOM      6  N   UNL     1       3.687   4.107  -5.161  0.00  0.00    -0.186 NA
ATOM     25  H   UNL     1       3.382   4.138  -4.180  0.00  0.00    +0.148 HD
BRANCH   6   1
ATOM      1  S   UNL     1       4.547   5.491  -5.705  0.00  0.00    +0.059 S 
ATOM      2  O   UNL     1       5.236   5.148  -6.942  0.00  0.00    -0.153 OA
ATOM      3  O   UNL     1       5.305   6.039  -4.587  0.00  0.00    -0.153 OA
BRANCH   1  17
ATOM     17  C   UNL     1       3.252   6.603  -6.070  0.00  0.00    +0.105 A 
ATOM     19  C   UNL     1       2.972   6.937  -7.395  0.00  0.00    +0.028 A 
ATOM     20  C   UNL     1       2.500   7.160  -5.037  0.00  0.00    +0.028 A 
ATOM     22  C   UNL     1       1.940   7.829  -7.686  0.00  0.00    +0.002 A 
ATOM     23  C   UNL     1       1.468   8.052  -5.328  0.00  0.00    +0.002 A 
ATOM     24  C   UNL     1       1.187   8.386  -6.652  0.00  0.00    +0.000 A 
ENDBRANCH   1  17
ENDBRANCH   6   1
ENDBRANCH  10   6
BRANCH   9  12
ATOM     12  C   UNL     1       0.159   1.150  -5.364  0.00  0.00    +0.063 C 
BRANCH  12  15
ATOM      4  O   UNL     1      -2.058  -0.034  -7.953  0.00  0.00    -0.357 OA
ATOM      7  N   UNL     1      -1.338   0.967  -7.313  0.00  0.00    -0.083 NA
ATOM     15  C   UNL     1      -0.728   0.356  -6.293  0.00  0.00    +0.084 A 
ATOM     16  C   UNL     1      -1.023  -1.017  -6.240  0.00  0.00    +0.073 A 
ATOM     18  C   UNL     1      -1.862  -1.211  -7.305  0.00  0.00    +0.163 A 
BRANCH  18  21
ATOM     21  C   UNL     1      -2.555  -2.384  -7.852  0.00  0.00    +0.232 C 
BRANCH  21   5
ATOM      5  O   UNL     1      -2.921  -3.280  -6.799  0.00  0.00    -0.387 OA
ATOM     26  H   UNL     1      -3.875  -3.444  -6.886  0.00  0.00    +0.210 HD
ENDBRANCH  21   5
ENDBRANCH  18  21
ENDBRANCH  12  15
ENDBRANCH   9  12
TORSDOF 7
ENDMDL
MODEL 10
REMARK VINA RESULT:      -5.6     11.141     13.195
REMARK  Name = 56774336
REMARK  9 active torsions:
REMARK  status: ('A' for Active; 'I' for Inactive)
REMARK    1  A    between atoms: S_1  and  N_6
REMARK    2  A    between atoms: S_1  and  C_17
REMARK    3  A    between atoms: O_5  and  C_21
REMARK    4  A    between atoms: N_6  and  C_10
REMARK    5  A    between atoms: C_8  and  C_13
REMARK    6  A    between atoms: C_8  and  C_14
REMARK    7  A    between atoms: C_9  and  C_12
REMARK    8  A    between atoms: C_12  and  C_15
REMARK    9  A    between atoms: C_18  and  C_21
REMARK                            x       y       z     vdW  Elec       q    Type
REMARK                         _______ _______ _______ _____ _____    ______ ____
ROOT
ATOM      8  C   UNL     1      18.427  -3.033  26.712  0.00  0.00    -0.015 C 
ATOM      9  C   UNL     1      18.324  -3.562  28.158  0.00  0.00    +0.004 C 
ATOM     10  C   UNL     1      18.326  -4.501  26.250  0.00  0.00    +0.083 C 
ATOM     11  C   UNL     1      18.894  -4.895  27.629  0.00  0.00    +0.025 C 
ATOM     13  C   UNL     1      17.274  -2.138  26.316  0.00  0.00    +0.013 C 
ATOM     14  C   UNL     1      19.746  -2.383  26.338  0.00  0.00    +0.013 C 
ENDROOT
BRANCH  10   6
ATOM      6  N   UNL     1      19.148  -4.913  25.071  0.00  0.00    -0.186 NA
ATOM     25  H   UNL     1      20.130  -4.609  25.104  0.00  0.00    +0.148 HD
BRANCH   6   1
ATOM      1  S   UNL     1      18.534  -5.235  23.500  0.00  0.00    +0.059 S 
ATOM      2  O   UNL     1      17.601  -6.349  23.590  0.00  0.00    -0.153 OA
ATOM      3  O   UNL     1      19.652  -5.306  22.567  0.00  0.00    -0.153 OA
BRANCH   1  17
ATOM     17  C   UNL     1      17.639  -3.776  23.154  0.00  0.00    +0.105 A 
ATOM     19  C   UNL     1      16.246  -3.787  23.195  0.00  0.00    +0.028 A 
ATOM     20  C   UNL     1      18.319  -2.602  22.831  0.00  0.00    +0.028 A 
ATOM     22  C   UNL     1      15.530  -2.622  22.915  0.00  0.00    +0.002 A 
ATOM     23  C   UNL     1      17.604  -1.438  22.551  0.00  0.00    +0.002 A 
ATOM     24  C   UNL     1      16.210  -1.447  22.593  0.00  0.00    +0.000 A 
ENDBRANCH   1  17
ENDBRANCH   6   1
ENDBRANCH  10   6
BRANCH   9  12
ATOM     12  C   UNL     1      19.173  -2.883  29.207  0.00  0.00    +0.063 C 
BRANCH  12  15
ATOM      4  O   UNL     1      16.539  -1.261  31.067  0.00  0.00    -0.357 OA
ATOM      7  N   UNL     1      17.013  -2.246  30.209  0.00  0.00    -0.083 NA
ATOM     15  C   UNL     1      18.319  -1.996  30.081  0.00  0.00    +0.084 A 
ATOM     16  C   UNL     1      18.722  -0.876  30.829  0.00  0.00    +0.073 A 
ATOM     18  C   UNL     1      17.567  -0.451  31.429  0.00  0.00    +0.163 A 
BRANCH  18  21
ATOM     21  C   UNL     1      17.241   0.652  32.341  0.00  0.00    +0.232 C 
BRANCH  21   5
ATOM      5  O   UNL     1      17.654   1.900  31.777  0.00  0.00    -0.387 OA
ATOM     26  H   UNL     1      18.288   2.296  32.399  0.00  0.00    +0.210 HD
ENDBRANCH  21   5
ENDBRANCH  18  21
ENDBRANCH  12  15
ENDBRANCH   9  12
TORSDOF 7
ENDMDL
