MODEL 1
REMARK VINA RESULT:      -6.4      0.000      0.000
REMARK  Name = 51137714
REMARK  7 active torsions:
REMARK  status: ('A' for Active; 'I' for Inactive)
REMARK    1  A    between atoms: O_3  and  C_18
REMARK    2  A    between atoms: O_3  and  C_22
REMARK    3  A    between atoms: O_4  and  C_21
REMARK    4  A    between atoms: O_4  and  C_23
REMARK    5  A    between atoms: C_8  and  C_12
REMARK    6  A    between atoms: C_13  and  C_14
REMARK    7  A    between atoms: C_15  and  C_20
REMARK                            x       y       z     vdW  Elec       q    Type
REMARK                         _______ _______ _______ _____ _____    ______ ____
ROOT
ATOM      2  O   UNL     1      14.250  10.642  22.695  0.00  0.00    -0.270 OA
ATOM      5  N   UNL     1      12.527   9.271  21.957  0.00  0.00    -0.297 N 
ATOM      8  C   UNL     1      11.222   7.672  20.772  0.00  0.00    +0.095 C 
ATOM      9  C   UNL     1      12.326   6.953  21.564  0.00  0.00    +0.033 C 
ATOM     10  C   UNL     1      11.166   9.037  21.473  0.00  0.00    +0.121 C 
ATOM     11  C   UNL     1      13.326   8.057  21.883  0.00  0.00    +0.109 C 
ATOM     13  C   UNL     1      13.078  10.475  22.364  0.00  0.00    +0.247 C 
ENDROOT
BRANCH   8  12
ATOM      1  O   UNL     1      10.759   8.507  18.511  0.00  0.00    -0.425 OA
ATOM      6  N   UNL     1      12.422   7.012  18.605  0.00  0.00    -0.112 NA
ATOM      7  N   UNL     1      12.268   7.398  17.286  0.00  0.00    -0.113 NA
ATOM     12  C   UNL     1      11.521   7.685  19.283  0.00  0.00    +0.222 A 
ATOM     15  C   UNL     1      11.287   8.270  17.278  0.00  0.00    +0.214 A 
ATOM     20  C   UNL     1      10.700   9.007  16.153  0.00  0.00    +0.111 C 
ENDBRANCH   8  12
BRANCH  13  14
ATOM     14  C   UNL     1      12.195  11.652  22.392  0.00  0.00    +0.041 A 
ATOM     16  C   UNL     1      11.446  11.936  23.533  0.00  0.00    +0.062 A 
ATOM     17  C   UNL     1      12.106  12.483  21.274  0.00  0.00    +0.017 A 
ATOM     18  C   UNL     1      10.609  13.051  23.559  0.00  0.00    +0.162 A 
ATOM     19  C   UNL     1      11.269  13.598  21.300  0.00  0.00    +0.050 A 
ATOM     21  C   UNL     1      10.520  13.883  22.442  0.00  0.00    +0.162 A 
BRANCH  18   3
ATOM      3  O   UNL     1       9.883  13.319  24.680  0.00  0.00    -0.491 OA
ATOM     22  C   UNL     1      10.574  13.925  25.770  0.00  0.00    +0.277 C 
ENDBRANCH  18   3
BRANCH  21   4
ATOM      4  O   UNL     1       9.707  14.975  22.454  0.00  0.00    -0.491 OA
ATOM     23  C   UNL     1       8.506  14.898  21.689  0.00  0.00    +0.277 C 
ENDBRANCH  21   4
ENDBRANCH  13  14
TORSDOF 4
ENDMDL
MODEL 2
REMARK VINA RESULT:      -6.0     26.711     27.795
REMARK  Name = 51137714
REMARK  7 active torsions:
REMARK  status: ('A' for Active; 'I' for Inactive)
REMARK    1  A    between atoms: O_3  and  C_18
REMARK    2  A    between atoms: O_3  and  C_22
REMARK    3  A    between atoms: O_4  and  C_21
REMARK    4  A    between atoms: O_4  and  C_23
REMARK    5  A    between atoms: C_8  and  C_12
REMARK    6  A    between atoms: C_13  and  C_14
REMARK    7  A    between atoms: C_15  and  C_20
REMARK                            x       y       z     vdW  Elec       q    Type
REMARK                         _______ _______ _______ _____ _____    ______ ____
ROOT
ATOM      2  O   UNL     1      -1.898 -10.659  16.599  0.00  0.00    -0.270 OA
ATOM      5  N   UNL     1      -3.222 -11.572  14.924  0.00  0.00    -0.297 N 
ATOM      8  C   UNL     1      -4.282 -12.043  12.846  0.00  0.00    +0.095 C 
ATOM      9  C   UNL     1      -2.790 -12.401  12.758  0.00  0.00    +0.033 C 
ATOM     10  C   UNL     1      -4.507 -11.992  14.364  0.00  0.00    +0.121 C 
ATOM     11  C   UNL     1      -2.164 -11.655  13.928  0.00  0.00    +0.109 C 
ATOM     13  C   UNL     1      -2.983 -11.071  16.194  0.00  0.00    +0.247 C 
ENDROOT
BRANCH   8  12
ATOM      1  O   UNL     1      -3.983 -10.623  10.867  0.00  0.00    -0.425 OA
ATOM      6  N   UNL     1      -5.400  -9.783  12.382  0.00  0.00    -0.112 NA
ATOM      7  N   UNL     1      -5.324  -8.892  11.327  0.00  0.00    -0.113 NA
ATOM     12  C   UNL     1      -4.600 -10.777  12.070  0.00  0.00    +0.222 A 
ATOM     15  C   UNL     1      -4.486  -9.423  10.467  0.00  0.00    +0.214 A 
ATOM     20  C   UNL     1      -4.033  -8.914   9.167  0.00  0.00    +0.111 C 
ENDBRANCH   8  12
BRANCH  13  14
ATOM     14  C   UNL     1      -4.119 -11.012  17.127  0.00  0.00    +0.041 A 
ATOM     16  C   UNL     1      -5.196 -10.167  16.862  0.00  0.00    +0.062 A 
ATOM     17  C   UNL     1      -4.117 -11.799  18.279  0.00  0.00    +0.017 A 
ATOM     18  C   UNL     1      -6.273 -10.111  17.746  0.00  0.00    +0.162 A 
ATOM     19  C   UNL     1      -5.194 -11.743  19.163  0.00  0.00    +0.050 A 
ATOM     21  C   UNL     1      -6.272 -10.899  18.897  0.00  0.00    +0.162 A 
BRANCH  18   3
ATOM      3  O   UNL     1      -7.321  -9.282  17.475  0.00  0.00    -0.491 OA
ATOM     22  C   UNL     1      -8.196  -9.669  16.418  0.00  0.00    +0.277 C 
ENDBRANCH  18   3
BRANCH  21   4
ATOM      4  O   UNL     1      -7.317 -10.853  19.769  0.00  0.00    -0.491 OA
ATOM     23  C   UNL     1      -8.292 -11.889  19.669  0.00  0.00    +0.277 C 
ENDBRANCH  21   4
ENDBRANCH  13  14
TORSDOF 4
ENDMDL
MODEL 3
REMARK VINA RESULT:      -5.9     13.345     18.828
REMARK  Name = 51137714
REMARK  7 active torsions:
REMARK  status: ('A' for Active; 'I' for Inactive)
REMARK    1  A    between atoms: O_3  and  C_18
REMARK    2  A    between atoms: O_3  and  C_22
REMARK    3  A    between atoms: O_4  and  C_21
REMARK    4  A    between atoms: O_4  and  C_23
REMARK    5  A    between atoms: C_8  and  C_12
REMARK    6  A    between atoms: C_13  and  C_14
REMARK    7  A    between atoms: C_15  and  C_20
REMARK                            x       y       z     vdW  Elec       q    Type
REMARK                         _______ _______ _______ _____ _____    ______ ____
ROOT
ATOM      2  O   UNL     1      12.238   8.278   3.904  0.00  0.00    -0.270 OA
ATOM      5  N   UNL     1      10.253   7.616   4.912  0.00  0.00    -0.297 N 
ATOM      8  C   UNL     1       8.609   6.895   6.474  0.00  0.00    +0.095 C 
ATOM      9  C   UNL     1       9.072   8.316   6.831  0.00  0.00    +0.033 C 
ATOM     10  C   UNL     1       9.063   6.770   5.012  0.00  0.00    +0.121 C 
ATOM     11  C   UNL     1      10.389   8.471   6.081  0.00  0.00    +0.109 C 
ATOM     13  C   UNL     1      11.212   7.600   3.912  0.00  0.00    +0.247 C 
ENDROOT
BRANCH   8  12
ATOM      1  O   UNL     1       8.681   5.907   8.720  0.00  0.00    -0.425 OA
ATOM      6  N   UNL     1      10.046   4.917   7.247  0.00  0.00    -0.112 NA
ATOM      7  N   UNL     1      10.183   4.269   8.460  0.00  0.00    -0.113 NA
ATOM     12  C   UNL     1       9.160   5.866   7.446  0.00  0.00    +0.222 A 
ATOM     15  C   UNL     1       9.369   4.879   9.290  0.00  0.00    +0.214 A 
ATOM     20  C   UNL     1       9.104   4.610  10.708  0.00  0.00    +0.111 C 
ENDBRANCH   8  12
BRANCH  13  14
ATOM     14  C   UNL     1      10.996   6.690   2.776  0.00  0.00    +0.041 A 
ATOM     16  C   UNL     1      11.582   5.425   2.773  0.00  0.00    +0.062 A 
ATOM     17  C   UNL     1      10.205   7.095   1.700  0.00  0.00    +0.017 A 
ATOM     18  C   UNL     1      11.377   4.563   1.696  0.00  0.00    +0.162 A 
ATOM     19  C   UNL     1      10.000   6.233   0.623  0.00  0.00    +0.050 A 
ATOM     21  C   UNL     1      10.586   4.967   0.621  0.00  0.00    +0.162 A 
BRANCH  18   3
ATOM      3  O   UNL     1      11.955   3.329   1.706  0.00  0.00    -0.491 OA
ATOM     22  C   UNL     1      13.330   3.254   1.333  0.00  0.00    +0.277 C 
ENDBRANCH  18   3
BRANCH  21   4
ATOM      4  O   UNL     1      10.377   4.135  -0.437  0.00  0.00    -0.491 OA
ATOM     23  C   UNL     1      10.973   4.503  -1.679  0.00  0.00    +0.277 C 
ENDBRANCH  21   4
ENDBRANCH  13  14
TORSDOF 4
ENDMDL
MODEL 4
REMARK VINA RESULT:      -5.8     26.541     27.425
REMARK  Name = 51137714
REMARK  7 active torsions:
REMARK  status: ('A' for Active; 'I' for Inactive)
REMARK    1  A    between atoms: O_3  and  C_18
REMARK    2  A    between atoms: O_3  and  C_22
REMARK    3  A    between atoms: O_4  and  C_21
REMARK    4  A    between atoms: O_4  and  C_23
REMARK    5  A    between atoms: C_8  and  C_12
REMARK    6  A    between atoms: C_13  and  C_14
REMARK    7  A    between atoms: C_15  and  C_20
REMARK                            x       y       z     vdW  Elec       q    Type
REMARK                         _______ _______ _______ _____ _____    ______ ____
ROOT
ATOM      2  O   UNL     1      -2.068 -10.776  16.982  0.00  0.00    -0.270 OA
ATOM      5  N   UNL     1      -2.864 -11.630  14.975  0.00  0.00    -0.297 N 
ATOM      8  C   UNL     1      -3.178 -12.154  12.675  0.00  0.00    +0.095 C 
ATOM      9  C   UNL     1      -1.872 -12.791  13.176  0.00  0.00    +0.033 C 
ATOM     10  C   UNL     1      -3.919 -11.872  13.990  0.00  0.00    +0.121 C 
ATOM     11  C   UNL     1      -1.564 -12.033  14.460  0.00  0.00    +0.109 C 
ATOM     13  C   UNL     1      -2.996 -11.026  16.215  0.00  0.00    +0.247 C 
ENDROOT
BRANCH   8  12
ATOM      1  O   UNL     1      -3.892 -10.613  10.902  0.00  0.00    -0.425 OA
ATOM      6  N   UNL     1      -1.850 -10.185  11.710  0.00  0.00    -0.112 NA
ATOM      7  N   UNL     1      -2.126  -9.252  10.729  0.00  0.00    -0.113 NA
ATOM     12  C   UNL     1      -2.908 -10.959  11.777  0.00  0.00    +0.222 A 
ATOM     15  C   UNL     1      -3.327  -9.540  10.285  0.00  0.00    +0.214 A 
ATOM     20  C   UNL     1      -4.123  -8.878   9.244  0.00  0.00    +0.111 C 
ENDBRANCH   8  12
BRANCH  13  14
ATOM     14  C   UNL     1      -4.350 -10.640  16.643  0.00  0.00    +0.041 A 
ATOM     16  C   UNL     1      -4.801 -10.979  17.918  0.00  0.00    +0.062 A 
ATOM     17  C   UNL     1      -5.182  -9.937  15.773  0.00  0.00    +0.017 A 
ATOM     18  C   UNL     1      -6.084 -10.614  18.325  0.00  0.00    +0.162 A 
ATOM     19  C   UNL     1      -6.466  -9.572  16.179  0.00  0.00    +0.050 A 
ATOM     21  C   UNL     1      -6.917  -9.910  17.455  0.00  0.00    +0.162 A 
BRANCH  18   3
ATOM      3  O   UNL     1      -6.513 -10.950  19.573  0.00  0.00    -0.491 OA
ATOM     22  C   UNL     1      -7.227 -12.178  19.704  0.00  0.00    +0.277 C 
ENDBRANCH  18   3
BRANCH  21   4
ATOM      4  O   UNL     1      -8.172  -9.547  17.839  0.00  0.00    -0.491 OA
ATOM     23  C   UNL     1      -8.912  -8.723  16.941  0.00  0.00    +0.277 C 
ENDBRANCH  21   4
ENDBRANCH  13  14
TORSDOF 4
ENDMDL
MODEL 5
REMARK VINA RESULT:      -5.6     23.494     25.073
REMARK  Name = 51137714
REMARK  7 active torsions:
REMARK  status: ('A' for Active; 'I' for Inactive)
REMARK    1  A    between atoms: O_3  and  C_18
REMARK    2  A    between atoms: O_3  and  C_22
REMARK    3  A    between atoms: O_4  and  C_21
REMARK    4  A    between atoms: O_4  and  C_23
REMARK    5  A    between atoms: C_8  and  C_12
REMARK    6  A    between atoms: C_13  and  C_14
REMARK    7  A    between atoms: C_15  and  C_20
REMARK                            x       y       z     vdW  Elec       q    Type
REMARK                         _______ _______ _______ _____ _____    ______ ____
ROOT
ATOM      2  O   UNL     1     -12.272   9.936  20.940  0.00  0.00    -0.270 OA
ATOM      5  N   UNL     1     -11.354   8.780  19.147  0.00  0.00    -0.297 N 
ATOM      8  C   UNL     1     -10.604   8.135  16.983  0.00  0.00    +0.095 C 
ATOM      9  C   UNL     1      -9.762   9.316  17.490  0.00  0.00    +0.033 C 
ATOM     10  C   UNL     1     -11.226   7.605  18.283  0.00  0.00    +0.121 C 
ATOM     11  C   UNL     1     -10.599   9.905  18.617  0.00  0.00    +0.109 C 
ATOM     13  C   UNL     1     -12.136   8.905  20.284  0.00  0.00    +0.247 C 
ENDROOT
BRANCH   8  12
ATOM      1  O   UNL     1     -11.033   9.154  14.791  0.00  0.00    -0.425 OA
ATOM      6  N   UNL     1     -12.879   8.453  15.844  0.00  0.00    -0.112 NA
ATOM      7  N   UNL     1     -13.259   9.001  14.633  0.00  0.00    -0.113 NA
ATOM     12  C   UNL     1     -11.572   8.565  15.893  0.00  0.00    +0.222 A 
ATOM     15  C   UNL     1     -12.151   9.397  14.053  0.00  0.00    +0.214 A 
ATOM     20  C   UNL     1     -11.957  10.045  12.750  0.00  0.00    +0.111 C 
ENDBRANCH   8  12
BRANCH  13  14
ATOM     14  C   UNL     1     -12.875   7.715  20.735  0.00  0.00    +0.041 A 
ATOM     16  C   UNL     1     -14.253   7.634  20.540  0.00  0.00    +0.062 A 
ATOM     17  C   UNL     1     -12.196   6.669  21.361  0.00  0.00    +0.017 A 
ATOM     18  C   UNL     1     -14.954   6.507  20.968  0.00  0.00    +0.162 A 
ATOM     19  C   UNL     1     -12.897   5.541  21.789  0.00  0.00    +0.050 A 
ATOM     21  C   UNL     1     -14.276   5.460  21.592  0.00  0.00    +0.162 A 
BRANCH  18   3
ATOM      3  O   UNL     1     -16.300   6.439  20.770  0.00  0.00    -0.491 OA
ATOM     22  C   UNL     1     -16.747   6.128  19.452  0.00  0.00    +0.277 C 
ENDBRANCH  18   3
BRANCH  21   4
ATOM      4  O   UNL     1     -14.948   4.353  22.015  0.00  0.00    -0.491 OA
ATOM     23  C   UNL     1     -15.333   4.313  23.387  0.00  0.00    +0.277 C 
ENDBRANCH  21   4
ENDBRANCH  13  14
TORSDOF 4
ENDMDL
MODEL 6
REMARK VINA RESULT:      -5.6     26.311     28.224
REMARK  Name = 51137714
REMARK  7 active torsions:
REMARK  status: ('A' for Active; 'I' for Inactive)
REMARK    1  A    between atoms: O_3  and  C_18
REMARK    2  A    between atoms: O_3  and  C_22
REMARK    3  A    between atoms: O_4  and  C_21
REMARK    4  A    between atoms: O_4  and  C_23
REMARK    5  A    between atoms: C_8  and  C_12
REMARK    6  A    between atoms: C_13  and  C_14
REMARK    7  A    between atoms: C_15  and  C_20
REMARK                            x       y       z     vdW  Elec       q    Type
REMARK                         _______ _______ _______ _____ _____    ______ ____
ROOT
ATOM      2  O   UNL     1      -4.150 -13.889  15.299  0.00  0.00    -0.270 OA
ATOM      5  N   UNL     1      -4.403 -12.015  16.647  0.00  0.00    -0.297 N 
ATOM      8  C   UNL     1      -5.238 -10.386  18.167  0.00  0.00    +0.095 C 
ATOM      9  C   UNL     1      -4.936 -11.690  18.922  0.00  0.00    +0.033 C 
ATOM     10  C   UNL     1      -4.426 -10.570  16.877  0.00  0.00    +0.121 C 
ATOM     11  C   UNL     1      -4.860 -12.740  17.823  0.00  0.00    +0.109 C 
ATOM     13  C   UNL     1      -4.085 -12.674  15.470  0.00  0.00    +0.247 C 
ENDROOT
BRANCH   8  12
ATOM      1  O   UNL     1      -7.122  -9.239  17.087  0.00  0.00    -0.425 OA
ATOM      6  N   UNL     1      -7.735 -10.750  18.620  0.00  0.00    -0.112 NA
ATOM      7  N   UNL     1      -8.882 -10.184  18.094  0.00  0.00    -0.113 NA
ATOM     12  C   UNL     1      -6.733 -10.168  18.003  0.00  0.00    +0.222 A 
ATOM     15  C   UNL     1      -8.476  -9.309  17.204  0.00  0.00    +0.214 A 
ATOM     20  C   UNL     1      -9.263  -8.421  16.339  0.00  0.00    +0.111 C 
ENDBRANCH   8  12
BRANCH  13  14
ATOM     14  C   UNL     1      -3.647 -11.854  14.329  0.00  0.00    +0.041 A 
ATOM     16  C   UNL     1      -4.582 -11.387  13.406  0.00  0.00    +0.062 A 
ATOM     17  C   UNL     1      -2.295 -11.545  14.170  0.00  0.00    +0.017 A 
ATOM     18  C   UNL     1      -4.167 -10.610  12.325  0.00  0.00    +0.162 A 
ATOM     19  C   UNL     1      -1.881 -10.769  13.088  0.00  0.00    +0.050 A 
ATOM     21  C   UNL     1      -2.817 -10.300  12.166  0.00  0.00    +0.162 A 
BRANCH  18   3
ATOM      3  O   UNL     1      -5.091 -10.159  11.430  0.00  0.00    -0.491 OA
ATOM     22  C   UNL     1      -6.011  -9.171  11.891  0.00  0.00    +0.277 C 
ENDBRANCH  18   3
BRANCH  21   4
ATOM      4  O   UNL     1      -2.398  -9.543  11.114  0.00  0.00    -0.491 OA
ATOM     23  C   UNL     1      -1.022  -9.172  11.089  0.00  0.00    +0.277 C 
ENDBRANCH  21   4
ENDBRANCH  13  14
TORSDOF 4
ENDMDL
MODEL 7
REMARK VINA RESULT:      -5.5     13.733     19.171
REMARK  Name = 51137714
REMARK  7 active torsions:
REMARK  status: ('A' for Active; 'I' for Inactive)
REMARK    1  A    between atoms: O_3  and  C_18
REMARK    2  A    between atoms: O_3  and  C_22
REMARK    3  A    between atoms: O_4  and  C_21
REMARK    4  A    between atoms: O_4  and  C_23
REMARK    5  A    between atoms: C_8  and  C_12
REMARK    6  A    between atoms: C_13  and  C_14
REMARK    7  A    between atoms: C_15  and  C_20
REMARK                            x       y       z     vdW  Elec       q    Type
REMARK                         _______ _______ _______ _____ _____    ______ ____
ROOT
ATOM      2  O   UNL     1      13.479   6.966   3.711  0.00  0.00    -0.270 OA
ATOM      5  N   UNL     1      11.372   7.142   4.672  0.00  0.00    -0.297 N 
ATOM      8  C   UNL     1       9.537   7.103   6.186  0.00  0.00    +0.095 C 
ATOM      9  C   UNL     1      10.535   8.192   6.612  0.00  0.00    +0.033 C 
ATOM     10  C   UNL     1       9.937   6.859   4.724  0.00  0.00    +0.121 C 
ATOM     11  C   UNL     1      11.817   7.820   5.880  0.00  0.00    +0.109 C 
ATOM     13  C   UNL     1      12.265   6.771   3.680  0.00  0.00    +0.247 C 
ENDROOT
BRANCH   8  12
ATOM      1  O   UNL     1       9.212   6.106   8.406  0.00  0.00    -0.425 OA
ATOM      6  N   UNL     1       9.952   4.665   6.863  0.00  0.00    -0.112 NA
ATOM      7  N   UNL     1       9.813   3.980   8.055  0.00  0.00    -0.113 NA
ATOM     12  C   UNL     1       9.591   5.902   7.115  0.00  0.00    +0.222 A 
ATOM     15  C   UNL     1       9.379   4.860   8.928  0.00  0.00    +0.214 A 
ATOM     20  C   UNL     1       9.056   4.687  10.349  0.00  0.00    +0.111 C 
ENDBRANCH   8  12
BRANCH  13  14
ATOM     14  C   UNL     1      11.723   6.076   2.501  0.00  0.00    +0.041 A 
ATOM     16  C   UNL     1      11.219   6.810   1.429  0.00  0.00    +0.062 A 
ATOM     17  C   UNL     1      11.712   4.681   2.458  0.00  0.00    +0.017 A 
ATOM     18  C   UNL     1      10.704   6.152   0.312  0.00  0.00    +0.162 A 
ATOM     19  C   UNL     1      11.197   4.023   1.342  0.00  0.00    +0.050 A 
ATOM     21  C   UNL     1      10.694   4.758   0.268  0.00  0.00    +0.162 A 
BRANCH  18   3
ATOM      3  O   UNL     1      10.215   6.881  -0.730  0.00  0.00    -0.491 OA
ATOM     22  C   UNL     1       9.412   8.014  -0.407  0.00  0.00    +0.277 C 
ENDBRANCH  18   3
BRANCH  21   4
ATOM      4  O   UNL     1      10.195   4.102  -0.816  0.00  0.00    -0.491 OA
ATOM     23  C   UNL     1      11.136   3.618  -1.771  0.00  0.00    +0.277 C 
ENDBRANCH  21   4
ENDBRANCH  13  14
TORSDOF 4
ENDMDL
MODEL 8
REMARK VINA RESULT:      -5.4     27.127     28.736
REMARK  Name = 51137714
REMARK  7 active torsions:
REMARK  status: ('A' for Active; 'I' for Inactive)
REMARK    1  A    between atoms: O_3  and  C_18
REMARK    2  A    between atoms: O_3  and  C_22
REMARK    3  A    between atoms: O_4  and  C_21
REMARK    4  A    between atoms: O_4  and  C_23
REMARK    5  A    between atoms: C_8  and  C_12
REMARK    6  A    between atoms: C_13  and  C_14
REMARK    7  A    between atoms: C_15  and  C_20
REMARK                            x       y       z     vdW  Elec       q    Type
REMARK                         _______ _______ _______ _____ _____    ______ ____
ROOT
ATOM      2  O   UNL     1      -4.785 -13.647  15.150  0.00  0.00    -0.270 OA
ATOM      5  N   UNL     1      -4.894 -11.934  16.715  0.00  0.00    -0.297 N 
ATOM      8  C   UNL     1      -5.428 -10.594  18.607  0.00  0.00    +0.095 C 
ATOM      9  C   UNL     1      -4.635 -11.832  19.058  0.00  0.00    +0.033 C 
ATOM     10  C   UNL     1      -5.108 -10.540  17.107  0.00  0.00    +0.121 C 
ATOM     11  C   UNL     1      -4.756 -12.792  17.882  0.00  0.00    +0.109 C 
ATOM     13  C   UNL     1      -4.896 -12.455  15.430  0.00  0.00    +0.247 C 
ENDROOT
BRANCH   8  12
ATOM      1  O   UNL     1      -7.799 -10.245  18.077  0.00  0.00    -0.425 OA
ATOM      6  N   UNL     1      -7.444 -11.181  20.078  0.00  0.00    -0.112 NA
ATOM      7  N   UNL     1      -8.809 -11.043  19.907  0.00  0.00    -0.113 NA
ATOM     12  C   UNL     1      -6.895 -10.702  18.986  0.00  0.00    +0.222 A 
ATOM     15  C   UNL     1      -8.970 -10.492  18.726  0.00  0.00    +0.214 A 
ATOM     20  C   UNL     1     -10.207 -10.120  18.029  0.00  0.00    +0.111 C 
ENDBRANCH   8  12
BRANCH  13  14
ATOM     14  C   UNL     1      -5.056 -11.510  14.314  0.00  0.00    +0.041 A 
ATOM     16  C   UNL     1      -3.961 -11.182  13.515  0.00  0.00    +0.062 A 
ATOM     17  C   UNL     1      -6.304 -10.942  14.055  0.00  0.00    +0.017 A 
ATOM     18  C   UNL     1      -4.113 -10.286  12.457  0.00  0.00    +0.162 A 
ATOM     19  C   UNL     1      -6.455 -10.046  12.997  0.00  0.00    +0.050 A 
ATOM     21  C   UNL     1      -5.360  -9.719  12.197  0.00  0.00    +0.162 A 
BRANCH  18   3
ATOM      3  O   UNL     1      -3.035  -9.973  11.684  0.00  0.00    -0.491 OA
ATOM     22  C   UNL     1      -1.779 -10.528  12.069  0.00  0.00    +0.277 C 
ENDBRANCH  18   3
BRANCH  21   4
ATOM      4  O   UNL     1      -5.522  -8.843  11.167  0.00  0.00    -0.491 OA
ATOM     23  C   UNL     1      -6.272  -9.295  10.042  0.00  0.00    +0.277 C 
ENDBRANCH  21   4
ENDBRANCH  13  14
TORSDOF 4
ENDMDL
MODEL 9
REMARK VINA RESULT:      -5.4     24.088     25.696
REMARK  Name = 51137714
REMARK  7 active torsions:
REMARK  status: ('A' for Active; 'I' for Inactive)
REMARK    1  A    between atoms: O_3  and  C_18
REMARK    2  A    between atoms: O_3  and  C_22
REMARK    3  A    between atoms: O_4  and  C_21
REMARK    4  A    between atoms: O_4  and  C_23
REMARK    5  A    between atoms: C_8  and  C_12
REMARK    6  A    between atoms: C_13  and  C_14
REMARK    7  A    between atoms: C_15  and  C_20
REMARK                            x       y       z     vdW  Elec       q    Type
REMARK                         _______ _______ _______ _____ _____    ______ ____
ROOT
ATOM      2  O   UNL     1     -13.805   9.805  21.251  0.00  0.00    -0.270 OA
ATOM      5  N   UNL     1     -12.278   8.731  19.870  0.00  0.00    -0.297 N 
ATOM      8  C   UNL     1     -10.727   8.210  18.142  0.00  0.00    +0.095 C 
ATOM      9  C   UNL     1     -10.120   9.265  19.081  0.00  0.00    +0.033 C 
ATOM     10  C   UNL     1     -11.855   7.628  19.006  0.00  0.00    +0.121 C 
ATOM     11  C   UNL     1     -11.322   9.827  19.826  0.00  0.00    +0.109 C 
ATOM     13  C   UNL     1     -13.456   8.826  20.594  0.00  0.00    +0.247 C 
ENDROOT
BRANCH   8  12
ATOM      1  O   UNL     1     -12.369   8.488  16.339  0.00  0.00    -0.425 OA
ATOM      6  N   UNL     1     -10.468   9.626  16.021  0.00  0.00    -0.112 NA
ATOM      7  N   UNL     1     -11.297   9.870  14.942  0.00  0.00    -0.113 NA
ATOM     12  C   UNL     1     -11.134   8.815  16.810  0.00  0.00    +0.222 A 
ATOM     15  C   UNL     1     -12.395   9.186  15.169  0.00  0.00    +0.214 A 
ATOM     20  C   UNL     1     -13.613   9.077  14.359  0.00  0.00    +0.111 C 
ENDBRANCH   8  12
BRANCH  13  14
ATOM     14  C   UNL     1     -14.367   7.672  20.565  0.00  0.00    +0.041 A 
ATOM     16  C   UNL     1     -14.163   6.600  21.433  0.00  0.00    +0.062 A 
ATOM     17  C   UNL     1     -15.436   7.649  19.668  0.00  0.00    +0.017 A 
ATOM     18  C   UNL     1     -15.026   5.505  21.405  0.00  0.00    +0.162 A 
ATOM     19  C   UNL     1     -16.299   6.555  19.641  0.00  0.00    +0.050 A 
ATOM     21  C   UNL     1     -16.095   5.482  20.510  0.00  0.00    +0.162 A 
BRANCH  18   3
ATOM      3  O   UNL     1     -14.816   4.463  22.259  0.00  0.00    -0.491 OA
ATOM     22  C   UNL     1     -14.922   4.738  23.654  0.00  0.00    +0.277 C 
ENDBRANCH  18   3
BRANCH  21   4
ATOM      4  O   UNL     1     -16.946   4.420  20.472  0.00  0.00    -0.491 OA
ATOM     23  C   UNL     1     -17.924   4.407  19.434  0.00  0.00    +0.277 C 
ENDBRANCH  21   4
ENDBRANCH  13  14
TORSDOF 4
ENDMDL
MODEL 10
REMARK VINA RESULT:      -5.4     15.381     19.974
REMARK  Name = 51137714
REMARK  7 active torsions:
REMARK  status: ('A' for Active; 'I' for Inactive)
REMARK    1  A    between atoms: O_3  and  C_18
REMARK    2  A    between atoms: O_3  and  C_22
REMARK    3  A    between atoms: O_4  and  C_21
REMARK    4  A    between atoms: O_4  and  C_23
REMARK    5  A    between atoms: C_8  and  C_12
REMARK    6  A    between atoms: C_13  and  C_14
REMARK    7  A    between atoms: C_15  and  C_20
REMARK                            x       y       z     vdW  Elec       q    Type
REMARK                         _______ _______ _______ _____ _____    ______ ____
ROOT
ATOM      2  O   UNL     1      10.027   7.886   1.720  0.00  0.00    -0.270 OA
ATOM      5  N   UNL     1       9.530   6.407   3.441  0.00  0.00    -0.297 N 
ATOM      8  C   UNL     1       9.246   5.389   5.573  0.00  0.00    +0.095 C 
ATOM      9  C   UNL     1       8.268   6.566   5.428  0.00  0.00    +0.033 C 
ATOM     10  C   UNL     1       9.626   5.110   4.111  0.00  0.00    +0.121 C 
ATOM     11  C   UNL     1       8.842   7.380   4.276  0.00  0.00    +0.109 C 
ATOM     13  C   UNL     1      10.069   6.761   2.214  0.00  0.00    +0.247 C 
ENDROOT
BRANCH   8  12
ATOM      1  O   UNL     1      11.504   6.268   5.966  0.00  0.00    -0.425 OA
ATOM      6  N   UNL     1      10.466   5.568   7.821  0.00  0.00    -0.112 NA
ATOM      7  N   UNL     1      11.716   6.034   8.181  0.00  0.00    -0.113 NA
ATOM     12  C   UNL     1      10.387   5.723   6.519  0.00  0.00    +0.222 A 
ATOM     15  C   UNL     1      12.287   6.432   7.068  0.00  0.00    +0.214 A 
ATOM     20  C   UNL     1      13.616   7.018   6.856  0.00  0.00    +0.111 C 
ENDBRANCH   8  12
BRANCH  13  14
ATOM     14  C   UNL     1      10.759   5.712   1.447  0.00  0.00    +0.041 A 
ATOM     16  C   UNL     1      11.894   5.095   1.973  0.00  0.00    +0.062 A 
ATOM     17  C   UNL     1      10.280   5.336   0.192  0.00  0.00    +0.017 A 
ATOM     18  C   UNL     1      12.549   4.101   1.246  0.00  0.00    +0.162 A 
ATOM     19  C   UNL     1      10.935   4.342  -0.535  0.00  0.00    +0.050 A 
ATOM     21  C   UNL     1      12.069   3.724  -0.008  0.00  0.00    +0.162 A 
BRANCH  18   3
ATOM      3  O   UNL     1      13.656   3.506   1.772  0.00  0.00    -0.491 OA
ATOM     22  C   UNL     1      14.917   4.097   1.466  0.00  0.00    +0.277 C 
ENDBRANCH  18   3
BRANCH  21   4
ATOM      4  O   UNL     1      12.699   2.755  -0.728  0.00  0.00    -0.491 OA
ATOM     23  C   UNL     1      12.343   2.634  -2.104  0.00  0.00    +0.277 C 
ENDBRANCH  21   4
ENDBRANCH  13  14
TORSDOF 4
ENDMDL
