MODEL 1
REMARK VINA RESULT:      -6.7      0.000      0.000
REMARK  Name = 45360480
REMARK  11 active torsions:
REMARK  status: ('A' for Active; 'I' for Inactive)
REMARK    1  A    between atoms: N_3  and  C_15
REMARK    2  A    between atoms: N_3  and  C_17
REMARK    3  A    between atoms: C_9  and  C_15
REMARK    4  A    between atoms: C_10  and  C_16
REMARK    5  A    between atoms: C_23  and  C_25
REMARK    6  A    between atoms: C_24  and  C_29
REMARK    7  A    between atoms: C_25  and  C_26
REMARK    8  A    between atoms: C_25  and  C_27
REMARK    9  A    between atoms: C_26  and  C_30
REMARK   10  A    between atoms: C_27  and  C_31
REMARK   11  A    between atoms: C_28  and  C_32
REMARK                            x       y       z     vdW  Elec       q    Type
REMARK                         _______ _______ _______ _____ _____    ______ ____
ROOT
ATOM      2  N   UNL     1      -4.670 -12.601  16.936  0.00  0.00    -0.298 NA
ATOM      8  C   UNL     1      -6.416 -11.072  18.118  0.00  0.00    +0.002 C 
ATOM      9  C   UNL     1      -4.058 -11.286  17.258  0.00  0.00    +0.071 C 
ATOM     10  C   UNL     1      -7.017 -11.681  16.821  0.00  0.00    +0.055 C 
ATOM     11  C   UNL     1      -5.128 -10.298  17.768  0.00  0.00    +0.024 C 
ATOM     12  C   UNL     1      -6.002 -12.258  19.016  0.00  0.00    +0.019 C 
ATOM     13  C   UNL     1      -5.863 -12.409  16.073  0.00  0.00    +0.094 C 
ATOM     14  C   UNL     1      -5.114 -13.220  18.207  0.00  0.00    +0.085 C 
ENDROOT
BRANCH  10  16
ATOM      4  N   UNL     1      -7.481 -10.785  14.593  0.00  0.00    -0.232 NA
ATOM      6  N   UNL     1      -9.211  -9.154  14.199  0.00  0.00    -0.232 NA
ATOM     16  C   UNL     1      -7.814 -10.768  15.901  0.00  0.00    +0.050 A 
ATOM     18  C   UNL     1      -8.819  -9.981  16.425  0.00  0.00    +0.047 A 
ATOM     23  C   UNL     1      -9.490  -9.187  15.519  0.00  0.00    +0.048 A 
ATOM     24  C   UNL     1      -8.209  -9.966  13.810  0.00  0.00    +0.160 A 
BRANCH  24  29
ATOM      7  N   UNL     1      -7.241  -9.933   9.688  0.00  0.00    -0.263 NA
ATOM     29  C   UNL     1      -7.880  -9.955  12.409  0.00  0.00    +0.022 A 
ATOM     33  C   UNL     1      -6.941  -9.053  11.920  0.00  0.00    +0.031 A 
ATOM     34  C   UNL     1      -8.500 -10.845  11.539  0.00  0.00    +0.031 A 
ATOM     35  C   UNL     1      -6.659  -9.083  10.563  0.00  0.00    +0.111 A 
ATOM     36  C   UNL     1      -8.148 -10.795  10.200  0.00  0.00    +0.111 A 
ENDBRANCH  24  29
BRANCH  23  25
ATOM     25  C   UNL     1     -10.595  -8.303  15.993  0.00  0.00    +0.037 C 
BRANCH  25  26
ATOM     26  C   UNL     1     -10.958  -8.530  17.490  0.00  0.00    +0.006 C 
ATOM     30  C   UNL     1     -12.289  -9.250  17.673  0.00  0.00    +0.004 C 
ENDBRANCH  25  26
BRANCH  25  27
ATOM     27  C   UNL     1     -10.301  -6.789  15.778  0.00  0.00    +0.006 C 
ATOM     31  C   UNL     1     -11.569  -5.950  15.670  0.00  0.00    +0.004 C 
ENDBRANCH  25  27
ENDBRANCH  23  25
ENDBRANCH  10  16
BRANCH   9  15
ATOM     15  C   UNL     1      -3.263 -10.710  16.084  0.00  0.00    +0.100 C 
BRANCH  15   3
ATOM      3  N   UNL     1      -2.026 -11.449  15.888  0.00  0.00    -0.312 NA
ATOM     37  H   UNL     1      -2.098 -12.348  16.364  0.00  0.00    +0.122 HD
BRANCH   3  17
ATOM      1  O   UNL     1      -3.472 -10.157  10.053  0.00  0.00    -0.276 OA
ATOM      5  N   UNL     1      -2.626 -11.554  11.705  0.00  0.00    -0.302 N 
ATOM     17  C   UNL     1      -1.763 -11.664  14.467  0.00  0.00    +0.057 C 
ATOM     19  C   UNL     1      -1.860 -10.335  13.707  0.00  0.00    +0.037 C 
ATOM     20  C   UNL     1      -2.758 -12.682  13.895  0.00  0.00    +0.037 C 
ATOM     21  C   UNL     1      -1.683 -10.551  12.205  0.00  0.00    +0.109 C 
ATOM     22  C   UNL     1      -2.563 -12.852  12.388  0.00  0.00    +0.109 C 
ATOM     28  C   UNL     1      -3.463 -11.245  10.634  0.00  0.00    +0.212 C 
ATOM     32  C   UNL     1      -4.408 -12.330  10.181  0.00  0.00    +0.109 C 
ENDBRANCH   3  17
ENDBRANCH  15   3
ENDBRANCH   9  15
TORSDOF 8
ENDMDL
MODEL 2
REMARK VINA RESULT:      -6.6     24.656     28.158
REMARK  Name = 45360480
REMARK  11 active torsions:
REMARK  status: ('A' for Active; 'I' for Inactive)
REMARK    1  A    between atoms: N_3  and  C_15
REMARK    2  A    between atoms: N_3  and  C_17
REMARK    3  A    between atoms: C_9  and  C_15
REMARK    4  A    between atoms: C_10  and  C_16
REMARK    5  A    between atoms: C_23  and  C_25
REMARK    6  A    between atoms: C_24  and  C_29
REMARK    7  A    between atoms: C_25  and  C_26
REMARK    8  A    between atoms: C_25  and  C_27
REMARK    9  A    between atoms: C_26  and  C_30
REMARK   10  A    between atoms: C_27  and  C_31
REMARK   11  A    between atoms: C_28  and  C_32
REMARK                            x       y       z     vdW  Elec       q    Type
REMARK                         _______ _______ _______ _____ _____    ______ ____
ROOT
ATOM      2  N   UNL     1      15.931   8.407   4.637  0.00  0.00    -0.298 NA
ATOM      8  C   UNL     1      13.733   9.347   5.671  0.00  0.00    +0.002 C 
ATOM      9  C   UNL     1      15.236   9.276   3.650  0.00  0.00    +0.071 C 
ATOM     10  C   UNL     1      13.812   7.808   5.869  0.00  0.00    +0.055 C 
ATOM     11  C   UNL     1      13.837   9.673   4.166  0.00  0.00    +0.024 C 
ATOM     12  C   UNL     1      14.981   9.948   6.352  0.00  0.00    +0.019 C 
ATOM     13  C   UNL     1      15.037   7.298   5.056  0.00  0.00    +0.094 C 
ATOM     14  C   UNL     1      16.239   9.230   5.831  0.00  0.00    +0.085 C 
ENDROOT
BRANCH  10  16
ATOM      4  N   UNL     1      12.390   6.531   4.342  0.00  0.00    -0.232 NA
ATOM      6  N   UNL     1      10.336   5.497   5.063  0.00  0.00    -0.232 NA
ATOM     16  C   UNL     1      12.561   6.983   5.602  0.00  0.00    +0.050 A 
ATOM     18  C   UNL     1      11.675   6.737   6.631  0.00  0.00    +0.047 A 
ATOM     23  C   UNL     1      10.569   5.981   6.300  0.00  0.00    +0.048 A 
ATOM     24  C   UNL     1      11.273   5.805   4.146  0.00  0.00    +0.160 A 
BRANCH  24  29
ATOM      7  N   UNL     1      10.631   4.339   0.225  0.00  0.00    -0.263 NA
ATOM     29  C   UNL     1      11.055   5.307   2.813  0.00  0.00    +0.022 A 
ATOM     33  C   UNL     1      11.578   4.076   2.433  0.00  0.00    +0.031 A 
ATOM     34  C   UNL     1      10.320   6.055   1.899  0.00  0.00    +0.031 A 
ATOM     35  C   UNL     1      11.339   3.640   1.139  0.00  0.00    +0.111 A 
ATOM     36  C   UNL     1      10.138   5.531   0.630  0.00  0.00    +0.111 A 
ENDBRANCH  24  29
BRANCH  23  25
ATOM     25  C   UNL     1       9.556   5.663   7.348  0.00  0.00    +0.037 C 
BRANCH  25  26
ATOM     26  C   UNL     1      10.096   4.699   8.445  0.00  0.00    +0.006 C 
ATOM     30  C   UNL     1       9.255   4.719   9.717  0.00  0.00    +0.004 C 
ENDBRANCH  25  26
BRANCH  25  27
ATOM     27  C   UNL     1       8.976   6.930   8.041  0.00  0.00    +0.006 C 
ATOM     31  C   UNL     1       8.293   7.879   7.063  0.00  0.00    +0.004 C 
ENDBRANCH  25  27
ENDBRANCH  23  25
ENDBRANCH  10  16
BRANCH   9  15
ATOM     15  C   UNL     1      15.173   8.642   2.259  0.00  0.00    +0.100 C 
BRANCH  15   3
ATOM      3  N   UNL     1      13.818   8.213   1.949  0.00  0.00    -0.312 NA
ATOM     37  H   UNL     1      13.331   8.973   1.476  0.00  0.00    +0.122 HD
BRANCH   3  17
ATOM      1  O   UNL     1      17.010   3.576  -0.521  0.00  0.00    -0.276 OA
ATOM      5  N   UNL     1      15.259   5.103  -0.523  0.00  0.00    -0.302 N 
ATOM     17  C   UNL     1      13.826   7.026   1.098  0.00  0.00    +0.057 C 
ATOM     19  C   UNL     1      14.694   5.931   1.730  0.00  0.00    +0.037 C 
ATOM     20  C   UNL     1      14.345   7.383  -0.300  0.00  0.00    +0.037 C 
ATOM     21  C   UNL     1      14.793   4.715   0.810  0.00  0.00    +0.109 C 
ATOM     22  C   UNL     1      14.451   6.138  -1.180  0.00  0.00    +0.109 C 
ATOM     28  C   UNL     1      16.369   4.469  -1.081  0.00  0.00    +0.212 C 
ATOM     32  C   UNL     1      16.788   4.927  -2.455  0.00  0.00    +0.109 C 
ENDBRANCH   3  17
ENDBRANCH  15   3
ENDBRANCH   9  15
TORSDOF 8
ENDMDL
MODEL 3
REMARK VINA RESULT:      -6.5      1.348      4.182
REMARK  Name = 45360480
REMARK  11 active torsions:
REMARK  status: ('A' for Active; 'I' for Inactive)
REMARK    1  A    between atoms: N_3  and  C_15
REMARK    2  A    between atoms: N_3  and  C_17
REMARK    3  A    between atoms: C_9  and  C_15
REMARK    4  A    between atoms: C_10  and  C_16
REMARK    5  A    between atoms: C_23  and  C_25
REMARK    6  A    between atoms: C_24  and  C_29
REMARK    7  A    between atoms: C_25  and  C_26
REMARK    8  A    between atoms: C_25  and  C_27
REMARK    9  A    between atoms: C_26  and  C_30
REMARK   10  A    between atoms: C_27  and  C_31
REMARK   11  A    between atoms: C_28  and  C_32
REMARK                            x       y       z     vdW  Elec       q    Type
REMARK                         _______ _______ _______ _____ _____    ______ ____
ROOT
ATOM      2  N   UNL     1      -5.581 -12.544  17.836  0.00  0.00    -0.298 NA
ATOM      8  C   UNL     1      -6.261 -10.036  18.000  0.00  0.00    +0.002 C 
ATOM      9  C   UNL     1      -4.468 -11.684  17.358  0.00  0.00    +0.071 C 
ATOM     10  C   UNL     1      -7.367 -10.852  17.275  0.00  0.00    +0.055 C 
ATOM     11  C   UNL     1      -4.923 -10.213  17.252  0.00  0.00    +0.024 C 
ATOM     12  C   UNL     1      -6.086 -10.667  19.398  0.00  0.00    +0.019 C 
ATOM     13  C   UNL     1      -6.806 -12.283  17.037  0.00  0.00    +0.094 C 
ATOM     14  C   UNL     1      -5.863 -12.182  19.246  0.00  0.00    +0.085 C 
ENDROOT
BRANCH  10  16
ATOM      4  N   UNL     1      -9.016  -9.403  16.197  0.00  0.00    -0.232 NA
ATOM      6  N   UNL     1      -9.148  -9.166  13.803  0.00  0.00    -0.232 NA
ATOM     16  C   UNL     1      -7.990 -10.261  16.019  0.00  0.00    +0.050 A 
ATOM     18  C   UNL     1      -7.495 -10.616  14.780  0.00  0.00    +0.047 A 
ATOM     23  C   UNL     1      -8.119 -10.032  13.697  0.00  0.00    +0.048 A 
ATOM     24  C   UNL     1      -9.541  -8.901  15.063  0.00  0.00    +0.160 A 
BRANCH  24  29
ATOM      7  N   UNL     1     -12.774  -6.203  15.507  0.00  0.00    -0.263 NA
ATOM     29  C   UNL     1     -10.639  -7.984  15.214  0.00  0.00    +0.022 A 
ATOM     33  C   UNL     1     -11.872  -8.270  14.637  0.00  0.00    +0.031 A 
ATOM     34  C   UNL     1     -10.474  -6.807  15.937  0.00  0.00    +0.031 A 
ATOM     35  C   UNL     1     -12.898  -7.355  14.812  0.00  0.00    +0.111 A 
ATOM     36  C   UNL     1     -11.562  -5.959  16.054  0.00  0.00    +0.111 A 
ENDBRANCH  24  29
BRANCH  23  25
ATOM     25  C   UNL     1      -7.651 -10.354  12.318  0.00  0.00    +0.037 C 
BRANCH  25  26
ATOM     26  C   UNL     1      -6.730  -9.254  11.713  0.00  0.00    +0.006 C 
ATOM     30  C   UNL     1      -6.896  -9.106  10.205  0.00  0.00    +0.004 C 
ENDBRANCH  25  26
BRANCH  25  27
ATOM     27  C   UNL     1      -6.914 -11.723  12.227  0.00  0.00    +0.006 C 
ATOM     31  C   UNL     1      -7.614 -12.710  11.299  0.00  0.00    +0.004 C 
ENDBRANCH  25  27
ENDBRANCH  23  25
ENDBRANCH  10  16
BRANCH   9  15
ATOM     15  C   UNL     1      -3.863 -12.190  16.046  0.00  0.00    +0.100 C 
BRANCH  15   3
ATOM      3  N   UNL     1      -2.474 -11.778  15.927  0.00  0.00    -0.312 NA
ATOM     37  H   UNL     1      -1.889 -12.426  16.454  0.00  0.00    +0.122 HD
BRANCH   3  17
ATOM      1  O   UNL     1      -3.310  -9.582  10.245  0.00  0.00    -0.276 OA
ATOM      5  N   UNL     1      -2.609 -11.217  11.740  0.00  0.00    -0.302 N 
ATOM     17  C   UNL     1      -2.051 -11.759  14.529  0.00  0.00    +0.057 C 
ATOM     19  C   UNL     1      -2.102 -10.326  13.983  0.00  0.00    +0.037 C 
ATOM     20  C   UNL     1      -2.946 -12.683  13.694  0.00  0.00    +0.037 C 
ATOM     21  C   UNL     1      -1.755 -10.297  12.495  0.00  0.00    +0.109 C 
ATOM     22  C   UNL     1      -2.582 -12.607  12.212  0.00  0.00    +0.109 C 
ATOM     28  C   UNL     1      -3.332 -10.750  10.643  0.00  0.00    +0.212 C 
ATOM     32  C   UNL     1      -4.189 -11.759   9.920  0.00  0.00    +0.109 C 
ENDBRANCH   3  17
ENDBRANCH  15   3
ENDBRANCH   9  15
TORSDOF 8
ENDMDL
MODEL 4
REMARK VINA RESULT:      -6.4     24.412     27.657
REMARK  Name = 45360480
REMARK  11 active torsions:
REMARK  status: ('A' for Active; 'I' for Inactive)
REMARK    1  A    between atoms: N_3  and  C_15
REMARK    2  A    between atoms: N_3  and  C_17
REMARK    3  A    between atoms: C_9  and  C_15
REMARK    4  A    between atoms: C_10  and  C_16
REMARK    5  A    between atoms: C_23  and  C_25
REMARK    6  A    between atoms: C_24  and  C_29
REMARK    7  A    between atoms: C_25  and  C_26
REMARK    8  A    between atoms: C_25  and  C_27
REMARK    9  A    between atoms: C_26  and  C_30
REMARK   10  A    between atoms: C_27  and  C_31
REMARK   11  A    between atoms: C_28  and  C_32
REMARK                            x       y       z     vdW  Elec       q    Type
REMARK                         _______ _______ _______ _____ _____    ______ ____
ROOT
ATOM      2  N   UNL     1      10.664   5.719   7.539  0.00  0.00    -0.298 NA
ATOM      8  C   UNL     1       9.341   7.697   6.481  0.00  0.00    +0.002 C 
ATOM      9  C   UNL     1      11.514   6.938   7.506  0.00  0.00    +0.071 C 
ATOM     10  C   UNL     1       9.249   6.436   5.577  0.00  0.00    +0.055 C 
ATOM     11  C   UNL     1      10.826   8.059   6.700  0.00  0.00    +0.024 C 
ATOM     12  C   UNL     1       8.764   7.302   7.856  0.00  0.00    +0.019 C 
ATOM     13  C   UNL     1      10.219   5.372   6.165  0.00  0.00    +0.094 C 
ATOM     14  C   UNL     1       9.462   6.022   8.351  0.00  0.00    +0.085 C 
ENDROOT
BRANCH  10  16
ATOM      4  N   UNL     1      10.224   5.718   3.452  0.00  0.00    -0.232 NA
ATOM      6  N   UNL     1       9.787   6.875   1.383  0.00  0.00    -0.232 NA
ATOM     16  C   UNL     1       9.428   6.612   4.076  0.00  0.00    +0.050 A 
ATOM     18  C   UNL     1       8.788   7.650   3.430  0.00  0.00    +0.047 A 
ATOM     23  C   UNL     1       9.005   7.733   2.071  0.00  0.00    +0.048 A 
ATOM     24  C   UNL     1      10.357   5.906   2.125  0.00  0.00    +0.160 A 
BRANCH  24  29
ATOM      7  N   UNL     1      12.838   3.162   0.065  0.00  0.00    -0.263 NA
ATOM     29  C   UNL     1      11.201   4.974   1.425  0.00  0.00    +0.022 A 
ATOM     33  C   UNL     1      12.220   4.311   2.100  0.00  0.00    +0.031 A 
ATOM     34  C   UNL     1      11.000   4.731   0.070  0.00  0.00    +0.031 A 
ATOM     35  C   UNL     1      13.003   3.422   1.381  0.00  0.00    +0.111 A 
ATOM     36  C   UNL     1      11.838   3.824  -0.557  0.00  0.00    +0.111 A 
ENDBRANCH  24  29
BRANCH  23  25
ATOM     25  C   UNL     1       8.353   8.822   1.287  0.00  0.00    +0.037 C 
BRANCH  25  26
ATOM     26  C   UNL     1       7.639   9.876   2.185  0.00  0.00    +0.006 C 
ATOM     30  C   UNL     1       6.126   9.880   2.004  0.00  0.00    +0.004 C 
ENDBRANCH  25  26
BRANCH  25  27
ATOM     27  C   UNL     1       9.336   9.564   0.336  0.00  0.00    +0.006 C 
ATOM     31  C   UNL     1       9.477  11.045   0.669  0.00  0.00    +0.004 C 
ENDBRANCH  25  27
ENDBRANCH  23  25
ENDBRANCH  10  16
BRANCH   9  15
ATOM     15  C   UNL     1      12.926   6.650   6.994  0.00  0.00    +0.100 C 
BRANCH  15   3
ATOM      3  N   UNL     1      12.986   6.784   5.547  0.00  0.00    -0.312 NA
ATOM     37  H   UNL     1      12.071   7.075   5.203  0.00  0.00    +0.122 HD
BRANCH   3  17
ATOM      1  O   UNL     1      18.777   7.912   3.817  0.00  0.00    -0.276 OA
ATOM      5  N   UNL     1      16.770   8.520   4.816  0.00  0.00    -0.302 N 
ATOM     17  C   UNL     1      13.995   7.764   5.152  0.00  0.00    +0.057 C 
ATOM     19  C   UNL     1      14.846   7.208   4.003  0.00  0.00    +0.037 C 
ATOM     20  C   UNL     1      14.881   8.120   6.352  0.00  0.00    +0.037 C 
ATOM     21  C   UNL     1      15.969   8.178   3.638  0.00  0.00    +0.109 C 
ATOM     22  C   UNL     1      16.004   9.073   5.940  0.00  0.00    +0.109 C 
ATOM     28  C   UNL     1      18.153   8.346   4.789  0.00  0.00    +0.212 C 
ATOM     32  C   UNL     1      18.905   8.718   6.042  0.00  0.00    +0.109 C 
ENDBRANCH   3  17
ENDBRANCH  15   3
ENDBRANCH   9  15
TORSDOF 8
ENDMDL
MODEL 5
REMARK VINA RESULT:      -6.3      2.605      7.147
REMARK  Name = 45360480
REMARK  11 active torsions:
REMARK  status: ('A' for Active; 'I' for Inactive)
REMARK    1  A    between atoms: N_3  and  C_15
REMARK    2  A    between atoms: N_3  and  C_17
REMARK    3  A    between atoms: C_9  and  C_15
REMARK    4  A    between atoms: C_10  and  C_16
REMARK    5  A    between atoms: C_23  and  C_25
REMARK    6  A    between atoms: C_24  and  C_29
REMARK    7  A    between atoms: C_25  and  C_26
REMARK    8  A    between atoms: C_25  and  C_27
REMARK    9  A    between atoms: C_26  and  C_30
REMARK   10  A    between atoms: C_27  and  C_31
REMARK   11  A    between atoms: C_28  and  C_32
REMARK                            x       y       z     vdW  Elec       q    Type
REMARK                         _______ _______ _______ _____ _____    ______ ____
ROOT
ATOM      2  N   UNL     1      -7.226 -10.298  18.555  0.00  0.00    -0.298 NA
ATOM      8  C   UNL     1      -5.184 -11.760  17.867  0.00  0.00    +0.002 C 
ATOM      9  C   UNL     1      -7.683 -11.657  18.164  0.00  0.00    +0.071 C 
ATOM     10  C   UNL     1      -5.146 -10.393  17.129  0.00  0.00    +0.055 C 
ATOM     11  C   UNL     1      -6.520 -12.469  17.558  0.00  0.00    +0.024 C 
ATOM     12  C   UNL     1      -5.173 -11.451  19.379  0.00  0.00    +0.019 C 
ATOM     13  C   UNL     1      -6.488  -9.666  17.431  0.00  0.00    +0.094 C 
ATOM     14  C   UNL     1      -6.292 -10.443  19.698  0.00  0.00    +0.085 C 
ENDROOT
BRANCH  10  16
ATOM      4  N   UNL     1      -5.820 -10.107  14.795  0.00  0.00    -0.232 NA
ATOM      6  N   UNL     1      -4.266 -10.355  12.970  0.00  0.00    -0.232 NA
ATOM     16  C   UNL     1      -4.809 -10.386  15.645  0.00  0.00    +0.050 A 
ATOM     18  C   UNL     1      -3.519 -10.656  15.238  0.00  0.00    +0.047 A 
ATOM     23  C   UNL     1      -3.303 -10.626  13.876  0.00  0.00    +0.048 A 
ATOM     24  C   UNL     1      -5.483 -10.109  13.492  0.00  0.00    +0.160 A 
BRANCH  24  29
ATOM      7  N   UNL     1      -8.582  -9.255  10.735  0.00  0.00    -0.263 NA
ATOM     29  C   UNL     1      -6.536  -9.819  12.554  0.00  0.00    +0.022 A 
ATOM     33  C   UNL     1      -7.841 -10.216  12.825  0.00  0.00    +0.031 A 
ATOM     34  C   UNL     1      -6.253  -9.140  11.374  0.00  0.00    +0.031 A 
ATOM     35  C   UNL     1      -8.819  -9.912  11.892  0.00  0.00    +0.111 A 
ATOM     36  C   UNL     1      -7.302  -8.884  10.506  0.00  0.00    +0.111 A 
ENDBRANCH  24  29
BRANCH  23  25
ATOM     25  C   UNL     1      -1.938 -10.904  13.342  0.00  0.00    +0.037 C 
BRANCH  25  26
ATOM     26  C   UNL     1      -1.453 -12.355  13.632  0.00  0.00    +0.006 C 
ATOM     30  C   UNL     1      -2.262 -13.410  12.884  0.00  0.00    +0.004 C 
ENDBRANCH  25  26
BRANCH  25  27
ATOM     27  C   UNL     1      -1.813 -10.635  11.814  0.00  0.00    +0.006 C 
ATOM     31  C   UNL     1      -1.006  -9.381  11.498  0.00  0.00    +0.004 C 
ENDBRANCH  25  27
ENDBRANCH  23  25
ENDBRANCH  10  16
BRANCH   9  15
ATOM     15  C   UNL     1      -8.897 -11.617  17.233  0.00  0.00    +0.100 C 
BRANCH  15   3
ATOM      3  N   UNL     1      -9.830 -10.581  17.648  0.00  0.00    -0.312 NA
ATOM     37  H   UNL     1      -9.499 -10.166  18.518  0.00  0.00    +0.122 HD
BRANCH   3  17
ATOM      1  O   UNL     1     -12.987  -5.810  15.396  0.00  0.00    -0.276 OA
ATOM      5  N   UNL     1     -11.561  -7.630  15.166  0.00  0.00    -0.302 N 
ATOM     17  C   UNL     1      -9.954  -9.547  16.624  0.00  0.00    +0.057 C 
ATOM     19  C   UNL     1     -10.407  -8.227  17.262  0.00  0.00    +0.037 C 
ATOM     20  C   UNL     1     -10.948  -9.989  15.544  0.00  0.00    +0.037 C 
ATOM     21  C   UNL     1     -10.634  -7.156  16.196  0.00  0.00    +0.109 C 
ATOM     22  C   UNL     1     -11.165  -8.883  14.512  0.00  0.00    +0.109 C 
ATOM     28  C   UNL     1     -12.694  -6.880  14.855  0.00  0.00    +0.212 C 
ATOM     32  C   UNL     1     -13.601  -7.437  13.786  0.00  0.00    +0.109 C 
ENDBRANCH   3  17
ENDBRANCH  15   3
ENDBRANCH   9  15
TORSDOF 8
ENDMDL
MODEL 6
REMARK VINA RESULT:      -6.3     24.844     29.453
REMARK  Name = 45360480
REMARK  11 active torsions:
REMARK  status: ('A' for Active; 'I' for Inactive)
REMARK    1  A    between atoms: N_3  and  C_15
REMARK    2  A    between atoms: N_3  and  C_17
REMARK    3  A    between atoms: C_9  and  C_15
REMARK    4  A    between atoms: C_10  and  C_16
REMARK    5  A    between atoms: C_23  and  C_25
REMARK    6  A    between atoms: C_24  and  C_29
REMARK    7  A    between atoms: C_25  and  C_26
REMARK    8  A    between atoms: C_25  and  C_27
REMARK    9  A    between atoms: C_26  and  C_30
REMARK   10  A    between atoms: C_27  and  C_31
REMARK   11  A    between atoms: C_28  and  C_32
REMARK                            x       y       z     vdW  Elec       q    Type
REMARK                         _______ _______ _______ _____ _____    ______ ____
ROOT
ATOM      2  N   UNL     1      19.455 -11.659  -1.427  0.00  0.00    -0.298 NA
ATOM      8  C   UNL     1      18.757  -9.620  -2.889  0.00  0.00    +0.002 C 
ATOM      9  C   UNL     1      17.984 -11.462  -1.354  0.00  0.00    +0.071 C 
ATOM     10  C   UNL     1      19.933  -9.237  -1.948  0.00  0.00    +0.055 C 
ATOM     11  C   UNL     1      17.577 -10.142  -2.043  0.00  0.00    +0.024 C 
ATOM     12  C   UNL     1      19.248 -10.797  -3.758  0.00  0.00    +0.019 C 
ATOM     13  C   UNL     1      20.156 -10.430  -0.975  0.00  0.00    +0.094 C 
ATOM     14  C   UNL     1      19.813 -11.901  -2.845  0.00  0.00    +0.085 C 
ENDROOT
BRANCH  10  16
ATOM      4  N   UNL     1      19.203  -6.905  -1.841  0.00  0.00    -0.232 NA
ATOM      6  N   UNL     1      19.707  -5.487   0.041  0.00  0.00    -0.232 NA
ATOM     16  C   UNL     1      19.865  -7.903  -1.219  0.00  0.00    +0.050 A 
ATOM     18  C   UNL     1      20.466  -7.770   0.016  0.00  0.00    +0.047 A 
ATOM     23  C   UNL     1      20.354  -6.528   0.605  0.00  0.00    +0.048 A 
ATOM     24  C   UNL     1      19.163  -5.742  -1.165  0.00  0.00    +0.160 A 
BRANCH  24  29
ATOM      7  N   UNL     1      17.118  -2.537  -3.030  0.00  0.00    -0.263 NA
ATOM     29  C   UNL     1      18.468  -4.653  -1.798  0.00  0.00    +0.022 A 
ATOM     33  C   UNL     1      18.941  -3.352  -1.668  0.00  0.00    +0.031 A 
ATOM     34  C   UNL     1      17.319  -4.897  -2.544  0.00  0.00    +0.031 A 
ATOM     35  C   UNL     1      18.236  -2.338  -2.298  0.00  0.00    +0.111 A 
ATOM     36  C   UNL     1      16.688  -3.814  -3.134  0.00  0.00    +0.111 A 
ENDBRANCH  24  29
BRANCH  23  25
ATOM     25  C   UNL     1      20.971  -6.290   1.942  0.00  0.00    +0.037 C 
BRANCH  25  26
ATOM     26  C   UNL     1      21.978  -7.403   2.356  0.00  0.00    +0.006 C 
ATOM     30  C   UNL     1      21.547  -8.156   3.610  0.00  0.00    +0.004 C 
ENDBRANCH  25  26
BRANCH  25  27
ATOM     27  C   UNL     1      21.684  -4.911   2.050  0.00  0.00    +0.006 C 
ATOM     31  C   UNL     1      23.167  -5.035   2.382  0.00  0.00    +0.004 C 
ENDBRANCH  25  27
ENDBRANCH  23  25
ENDBRANCH  10  16
BRANCH   9  15
ATOM     15  C   UNL     1      17.455 -11.545   0.079  0.00  0.00    +0.100 C 
BRANCH  15   3
ATOM      3  N   UNL     1      16.002 -11.485   0.097  0.00  0.00    -0.312 NA
ATOM     37  H   UNL     1      15.636 -12.138  -0.595  0.00  0.00    +0.122 HD
BRANCH   3  17
ATOM      1  O   UNL     1      17.160 -12.946   5.956  0.00  0.00    -0.276 OA
ATOM      5  N   UNL     1      15.842 -12.990   4.043  0.00  0.00    -0.302 N 
ATOM     17  C   UNL     1      15.480 -11.822   1.419  0.00  0.00    +0.057 C 
ATOM     19  C   UNL     1      16.304 -11.118   2.505  0.00  0.00    +0.037 C 
ATOM     20  C   UNL     1      15.507 -13.341   1.625  0.00  0.00    +0.037 C 
ATOM     21  C   UNL     1      15.834 -11.532   3.899  0.00  0.00    +0.109 C 
ATOM     22  C   UNL     1      15.053 -13.711   3.037  0.00  0.00    +0.109 C 
ATOM     28  C   UNL     1      16.533 -13.578   5.101  0.00  0.00    +0.212 C 
ATOM     32  C   UNL     1      16.495 -15.084   5.179  0.00  0.00    +0.109 C 
ENDBRANCH   3  17
ENDBRANCH  15   3
ENDBRANCH   9  15
TORSDOF 8
ENDMDL
MODEL 7
REMARK VINA RESULT:      -6.3     26.989     29.883
REMARK  Name = 45360480
REMARK  11 active torsions:
REMARK  status: ('A' for Active; 'I' for Inactive)
REMARK    1  A    between atoms: N_3  and  C_15
REMARK    2  A    between atoms: N_3  and  C_17
REMARK    3  A    between atoms: C_9  and  C_15
REMARK    4  A    between atoms: C_10  and  C_16
REMARK    5  A    between atoms: C_23  and  C_25
REMARK    6  A    between atoms: C_24  and  C_29
REMARK    7  A    between atoms: C_25  and  C_26
REMARK    8  A    between atoms: C_25  and  C_27
REMARK    9  A    between atoms: C_26  and  C_30
REMARK   10  A    between atoms: C_27  and  C_31
REMARK   11  A    between atoms: C_28  and  C_32
REMARK                            x       y       z     vdW  Elec       q    Type
REMARK                         _______ _______ _______ _____ _____    ______ ____
ROOT
ATOM      2  N   UNL     1      -5.157  14.844  32.889  0.00  0.00    -0.298 NA
ATOM      8  C   UNL     1      -6.040  13.197  31.075  0.00  0.00    +0.002 C 
ATOM      9  C   UNL     1      -4.216  13.703  32.738  0.00  0.00    +0.071 C 
ATOM     10  C   UNL     1      -7.161  13.528  32.100  0.00  0.00    +0.055 C 
ATOM     11  C   UNL     1      -4.820  12.617  31.823  0.00  0.00    +0.024 C 
ATOM     12  C   UNL     1      -5.595  14.537  30.453  0.00  0.00    +0.019 C 
ATOM     13  C   UNL     1      -6.508  14.344  33.252  0.00  0.00    +0.094 C 
ATOM     14  C   UNL     1      -5.255  15.530  31.579  0.00  0.00    +0.085 C 
ENDROOT
BRANCH  10  16
ATOM      4  N   UNL     1      -7.588  11.759  33.734  0.00  0.00    -0.232 NA
ATOM      6  N   UNL     1      -9.522  10.328  33.602  0.00  0.00    -0.232 NA
ATOM     16  C   UNL     1      -8.021  12.385  32.620  0.00  0.00    +0.050 A 
ATOM     18  C   UNL     1      -9.178  12.043  31.950  0.00  0.00    +0.047 A 
ATOM     23  C   UNL     1      -9.895  10.997  32.491  0.00  0.00    +0.048 A 
ATOM     24  C   UNL     1      -8.375  10.754  34.164  0.00  0.00    +0.160 A 
BRANCH  24  29
ATOM      7  N   UNL     1      -7.107   8.712  37.649  0.00  0.00    -0.263 NA
ATOM     29  C   UNL     1      -7.944  10.061  35.349  0.00  0.00    +0.022 A 
ATOM     33  C   UNL     1      -8.831   9.242  36.040  0.00  0.00    +0.031 A 
ATOM     34  C   UNL     1      -6.639  10.205  35.807  0.00  0.00    +0.031 A 
ATOM     35  C   UNL     1      -8.367   8.595  37.174  0.00  0.00    +0.111 A 
ATOM     36  C   UNL     1      -6.274   9.515  36.951  0.00  0.00    +0.111 A 
ENDBRANCH  24  29
BRANCH  23  25
ATOM     25  C   UNL     1     -11.162  10.558  31.836  0.00  0.00    +0.037 C 
BRANCH  25  26
ATOM     26  C   UNL     1     -11.426  11.273  30.478  0.00  0.00    +0.006 C 
ATOM     30  C   UNL     1     -11.590  10.298  29.318  0.00  0.00    +0.004 C 
ENDBRANCH  25  26
BRANCH  25  27
ATOM     27  C   UNL     1     -11.230   9.020  31.609  0.00  0.00    +0.006 C 
ATOM     31  C   UNL     1     -12.311   8.346  32.445  0.00  0.00    +0.004 C 
ENDBRANCH  25  27
ENDBRANCH  23  25
ENDBRANCH  10  16
BRANCH   9  15
ATOM     15  C   UNL     1      -3.773  13.131  34.087  0.00  0.00    +0.100 C 
BRANCH  15   3
ATOM      3  N   UNL     1      -2.339  12.891  34.097  0.00  0.00    -0.312 NA
ATOM     37  H   UNL     1      -1.853  13.777  33.959  0.00  0.00    +0.122 HD
BRANCH   3  17
ATOM      1  O   UNL     1      -0.320   7.921  37.103  0.00  0.00    -0.276 OA
ATOM      5  N   UNL     1      -1.448   9.950  36.999  0.00  0.00    -0.302 N 
ATOM     17  C   UNL     1      -1.918  12.290  35.360  0.00  0.00    +0.057 C 
ATOM     19  C   UNL     1      -0.706  11.378  35.130  0.00  0.00    +0.037 C 
ATOM     20  C   UNL     1      -3.075  11.498  35.980  0.00  0.00    +0.037 C 
ATOM     21  C   UNL     1      -0.308  10.665  36.422  0.00  0.00    +0.109 C 
ATOM     22  C   UNL     1      -2.630  10.783  37.255  0.00  0.00    +0.109 C 
ATOM     28  C   UNL     1      -1.338   8.592  37.295  0.00  0.00    +0.212 C 
ATOM     32  C   UNL     1      -2.557   7.928  37.884  0.00  0.00    +0.109 C 
ENDBRANCH   3  17
ENDBRANCH  15   3
ENDBRANCH   9  15
TORSDOF 8
ENDMDL
MODEL 8
REMARK VINA RESULT:      -6.2      2.872      5.581
REMARK  Name = 45360480
REMARK  11 active torsions:
REMARK  status: ('A' for Active; 'I' for Inactive)
REMARK    1  A    between atoms: N_3  and  C_15
REMARK    2  A    between atoms: N_3  and  C_17
REMARK    3  A    between atoms: C_9  and  C_15
REMARK    4  A    between atoms: C_10  and  C_16
REMARK    5  A    between atoms: C_23  and  C_25
REMARK    6  A    between atoms: C_24  and  C_29
REMARK    7  A    between atoms: C_25  and  C_26
REMARK    8  A    between atoms: C_25  and  C_27
REMARK    9  A    between atoms: C_26  and  C_30
REMARK   10  A    between atoms: C_27  and  C_31
REMARK   11  A    between atoms: C_28  and  C_32
REMARK                            x       y       z     vdW  Elec       q    Type
REMARK                         _______ _______ _______ _____ _____    ______ ____
ROOT
ATOM      2  N   UNL     1      -7.312 -12.282  17.333  0.00  0.00    -0.298 NA
ATOM      8  C   UNL     1      -6.414  -9.859  17.006  0.00  0.00    +0.002 C 
ATOM      9  C   UNL     1      -5.990 -12.136  17.998  0.00  0.00    +0.071 C 
ATOM     10  C   UNL     1      -6.864 -10.460  15.646  0.00  0.00    +0.055 C 
ATOM     11  C   UNL     1      -5.349 -10.778  17.642  0.00  0.00    +0.024 C 
ATOM     12  C   UNL     1      -7.646  -9.884  17.934  0.00  0.00    +0.019 C 
ATOM     13  C   UNL     1      -7.193 -11.961  15.888  0.00  0.00    +0.094 C 
ATOM     14  C   UNL     1      -8.241 -11.304  17.949  0.00  0.00    +0.085 C 
ENDROOT
BRANCH  10  16
ATOM      4  N   UNL     1      -6.558  -9.816  13.306  0.00  0.00    -0.232 NA
ATOM      6  N   UNL     1      -4.402  -9.867  12.232  0.00  0.00    -0.232 NA
ATOM     16  C   UNL     1      -5.964 -10.255  14.436  0.00  0.00    +0.050 A 
ATOM     18  C   UNL     1      -4.614 -10.518  14.538  0.00  0.00    +0.047 A 
ATOM     23  C   UNL     1      -3.874 -10.304  13.394  0.00  0.00    +0.048 A 
ATOM     24  C   UNL     1      -5.730  -9.647  12.258  0.00  0.00    +0.160 A 
BRANCH  24  29
ATOM      7  N   UNL     1      -7.489  -8.282   8.656  0.00  0.00    -0.263 NA
ATOM     29  C   UNL     1      -6.328  -9.182  11.034  0.00  0.00    +0.022 A 
ATOM     33  C   UNL     1      -5.528  -8.696  10.006  0.00  0.00    +0.031 A 
ATOM     34  C   UNL     1      -7.709  -9.220  10.873  0.00  0.00    +0.031 A 
ATOM     35  C   UNL     1      -6.152  -8.262   8.848  0.00  0.00    +0.111 A 
ATOM     36  C   UNL     1      -8.235  -8.762   9.676  0.00  0.00    +0.111 A 
ENDBRANCH  24  29
BRANCH  23  25
ATOM     25  C   UNL     1      -2.404 -10.561  13.410  0.00  0.00    +0.037 C 
BRANCH  25  26
ATOM     26  C   UNL     1      -1.916 -11.230  14.728  0.00  0.00    +0.006 C 
ATOM     30  C   UNL     1      -1.080 -10.293  15.593  0.00  0.00    +0.004 C 
ENDBRANCH  25  26
BRANCH  25  27
ATOM     27  C   UNL     1      -1.921 -11.423  12.207  0.00  0.00    +0.006 C 
ATOM     31  C   UNL     1      -2.696 -12.728  12.066  0.00  0.00    +0.004 C 
ENDBRANCH  25  27
ENDBRANCH  23  25
ENDBRANCH  10  16
BRANCH   9  15
ATOM     15  C   UNL     1      -5.053 -13.307  17.693  0.00  0.00    +0.100 C 
BRANCH  15   3
ATOM      3  N   UNL     1      -5.811 -14.526  17.464  0.00  0.00    -0.312 NA
ATOM     37  H   UNL     1      -6.754 -14.279  17.165  0.00  0.00    +0.122 HD
BRANCH   3  17
ATOM      1  O   UNL     1      -0.673 -17.125  15.306  0.00  0.00    -0.276 OA
ATOM      5  N   UNL     1      -2.799 -16.226  15.034  0.00  0.00    -0.302 N 
ATOM     17  C   UNL     1      -5.173 -15.356  16.444  0.00  0.00    +0.057 C 
ATOM     19  C   UNL     1      -4.151 -16.296  17.096  0.00  0.00    +0.037 C 
ATOM     20  C   UNL     1      -4.493 -14.470  15.393  0.00  0.00    +0.037 C 
ATOM     21  C   UNL     1      -3.403 -17.106  16.037  0.00  0.00    +0.109 C 
ATOM     22  C   UNL     1      -3.739 -15.316  14.368  0.00  0.00    +0.109 C 
ATOM     28  C   UNL     1      -1.436 -16.326  14.756  0.00  0.00    +0.212 C 
ATOM     32  C   UNL     1      -0.889 -15.383  13.713  0.00  0.00    +0.109 C 
ENDBRANCH   3  17
ENDBRANCH  15   3
ENDBRANCH   9  15
TORSDOF 8
ENDMDL
MODEL 9
REMARK VINA RESULT:      -6.2      2.777      5.223
REMARK  Name = 45360480
REMARK  11 active torsions:
REMARK  status: ('A' for Active; 'I' for Inactive)
REMARK    1  A    between atoms: N_3  and  C_15
REMARK    2  A    between atoms: N_3  and  C_17
REMARK    3  A    between atoms: C_9  and  C_15
REMARK    4  A    between atoms: C_10  and  C_16
REMARK    5  A    between atoms: C_23  and  C_25
REMARK    6  A    between atoms: C_24  and  C_29
REMARK    7  A    between atoms: C_25  and  C_26
REMARK    8  A    between atoms: C_25  and  C_27
REMARK    9  A    between atoms: C_26  and  C_30
REMARK   10  A    between atoms: C_27  and  C_31
REMARK   11  A    between atoms: C_28  and  C_32
REMARK                            x       y       z     vdW  Elec       q    Type
REMARK                         _______ _______ _______ _____ _____    ______ ____
ROOT
ATOM      2  N   UNL     1      -5.218 -12.656  17.019  0.00  0.00    -0.298 NA
ATOM      8  C   UNL     1      -5.632 -10.848  18.847  0.00  0.00    +0.002 C 
ATOM      9  C   UNL     1      -4.712 -11.338  16.554  0.00  0.00    +0.071 C 
ATOM     10  C   UNL     1      -6.935 -11.649  18.570  0.00  0.00    +0.055 C 
ATOM     11  C   UNL     1      -5.131 -10.219  17.529  0.00  0.00    +0.024 C 
ATOM     12  C   UNL     1      -4.567 -11.871  19.295  0.00  0.00    +0.019 C 
ATOM     13  C   UNL     1      -6.665 -12.561  17.339  0.00  0.00    +0.094 C 
ATOM     14  C   UNL     1      -4.492 -13.010  18.262  0.00  0.00    +0.085 C 
ENDROOT
BRANCH  10  16
ATOM      4  N   UNL     1      -9.250 -11.254  19.254  0.00  0.00    -0.232 NA
ATOM      6  N   UNL     1     -10.607  -9.530  18.258  0.00  0.00    -0.232 NA
ATOM     16  C   UNL     1      -8.240 -10.878  18.441  0.00  0.00    +0.050 A 
ATOM     18  C   UNL     1      -8.338  -9.851  17.524  0.00  0.00    +0.047 A 
ATOM     23  C   UNL     1      -9.556  -9.206  17.476  0.00  0.00    +0.048 A 
ATOM     24  C   UNL     1     -10.387 -10.549  19.111  0.00  0.00    +0.160 A 
BRANCH  24  29
ATOM      7  N   UNL     1     -13.626 -11.652  21.606  0.00  0.00    -0.263 NA
ATOM     29  C   UNL     1     -11.488 -10.924  19.960  0.00  0.00    +0.022 A 
ATOM     33  C   UNL     1     -12.485 -10.001  20.259  0.00  0.00    +0.031 A 
ATOM     34  C   UNL     1     -11.560 -12.210  20.483  0.00  0.00    +0.031 A 
ATOM     35  C   UNL     1     -13.523 -10.412  21.079  0.00  0.00    +0.111 A 
ATOM     36  C   UNL     1     -12.640 -12.522  21.292  0.00  0.00    +0.111 A 
ENDBRANCH  24  29
BRANCH  23  25
ATOM     25  C   UNL     1      -9.755  -8.082  16.515  0.00  0.00    +0.037 C 
BRANCH  25  26
ATOM     26  C   UNL     1      -9.728  -8.539  15.027  0.00  0.00    +0.006 C 
ATOM     30  C   UNL     1     -10.932  -9.395  14.649  0.00  0.00    +0.004 C 
ENDBRANCH  25  26
BRANCH  25  27
ATOM     27  C   UNL     1     -11.070  -7.289  16.767  0.00  0.00    +0.006 C 
ATOM     31  C   UNL     1     -11.108  -5.956  16.028  0.00  0.00    +0.004 C 
ENDBRANCH  25  27
ENDBRANCH  23  25
ENDBRANCH  10  16
BRANCH   9  15
ATOM     15  C   UNL     1      -5.131 -11.028  15.115  0.00  0.00    +0.100 C 
BRANCH  15   3
ATOM      3  N   UNL     1      -4.080 -11.402  14.181  0.00  0.00    -0.312 NA
ATOM     37  H   UNL     1      -4.245 -12.356  13.862  0.00  0.00    +0.122 HD
BRANCH   3  17
ATOM      1  O   UNL     1      -6.661  -9.559   8.914  0.00  0.00    -0.276 OA
ATOM      5  N   UNL     1      -4.839  -9.843  10.326  0.00  0.00    -0.302 N 
ATOM     17  C   UNL     1      -4.052 -10.497  13.035  0.00  0.00    +0.057 C 
ATOM     19  C   UNL     1      -5.474 -10.024  12.703  0.00  0.00    +0.037 C 
ATOM     20  C   UNL     1      -3.423 -11.197  11.825  0.00  0.00    +0.037 C 
ATOM     21  C   UNL     1      -5.479  -9.152  11.448  0.00  0.00    +0.109 C 
ATOM     22  C   UNL     1      -3.469 -10.301  10.587  0.00  0.00    +0.109 C 
ATOM     28  C   UNL     1      -5.522  -9.985   9.119  0.00  0.00    +0.212 C 
ATOM     32  C   UNL     1      -4.796 -10.711   8.014  0.00  0.00    +0.109 C 
ENDBRANCH   3  17
ENDBRANCH  15   3
ENDBRANCH   9  15
TORSDOF 8
ENDMDL
MODEL 10
REMARK VINA RESULT:      -6.2     22.598     26.927
REMARK  Name = 45360480
REMARK  11 active torsions:
REMARK  status: ('A' for Active; 'I' for Inactive)
REMARK    1  A    between atoms: N_3  and  C_15
REMARK    2  A    between atoms: N_3  and  C_17
REMARK    3  A    between atoms: C_9  and  C_15
REMARK    4  A    between atoms: C_10  and  C_16
REMARK    5  A    between atoms: C_23  and  C_25
REMARK    6  A    between atoms: C_24  and  C_29
REMARK    7  A    between atoms: C_25  and  C_26
REMARK    8  A    between atoms: C_25  and  C_27
REMARK    9  A    between atoms: C_26  and  C_30
REMARK   10  A    between atoms: C_27  and  C_31
REMARK   11  A    between atoms: C_28  and  C_32
REMARK                            x       y       z     vdW  Elec       q    Type
REMARK                         _______ _______ _______ _____ _____    ______ ____
ROOT
ATOM      2  N   UNL     1     -15.551   7.824  32.282  0.00  0.00    -0.298 NA
ATOM      8  C   UNL     1     -14.444   9.764  33.620  0.00  0.00    +0.002 C 
ATOM      9  C   UNL     1     -14.625   7.271  33.305  0.00  0.00    +0.071 C 
ATOM     10  C   UNL     1     -14.319  10.017  32.092  0.00  0.00    +0.055 C 
ATOM     11  C   UNL     1     -13.807   8.401  33.965  0.00  0.00    +0.024 C 
ATOM     12  C   UNL     1     -15.951   9.652  33.931  0.00  0.00    +0.019 C 
ATOM     13  C   UNL     1     -14.815   8.733  31.367  0.00  0.00    +0.094 C 
ATOM     14  C   UNL     1     -16.588   8.615  32.987  0.00  0.00    +0.085 C 
ENDROOT
BRANCH  10  16
ATOM      4  N   UNL     1     -11.956  10.554  32.426  0.00  0.00    -0.232 NA
ATOM      6  N   UNL     1     -10.558  11.366  30.639  0.00  0.00    -0.232 NA
ATOM     16  C   UNL     1     -12.982  10.503  31.550  0.00  0.00    +0.050 A 
ATOM     18  C   UNL     1     -12.874  10.863  30.223  0.00  0.00    +0.047 A 
ATOM     23  C   UNL     1     -11.627  11.290  29.818  0.00  0.00    +0.048 A 
ATOM     24  C   UNL     1     -10.791  10.988  31.911  0.00  0.00    +0.160 A 
BRANCH  24  29
ATOM      7  N   UNL     1      -7.503  11.196  34.571  0.00  0.00    -0.263 NA
ATOM     29  C   UNL     1      -9.673  11.059  32.815  0.00  0.00    +0.022 A 
ATOM     33  C   UNL     1      -9.574  10.163  33.873  0.00  0.00    +0.031 A 
ATOM     34  C   UNL     1      -8.688  12.024  32.634  0.00  0.00    +0.031 A 
ATOM     35  C   UNL     1      -8.478  10.272  34.715  0.00  0.00    +0.111 A 
ATOM     36  C   UNL     1      -7.633  12.049  33.531  0.00  0.00    +0.111 A 
ENDBRANCH  24  29
BRANCH  23  25
ATOM     25  C   UNL     1     -11.414  11.698  28.399  0.00  0.00    +0.037 C 
BRANCH  25  26
ATOM     26  C   UNL     1     -11.453  10.499  27.407  0.00  0.00    +0.006 C 
ATOM     30  C   UNL     1     -10.064  10.042  26.976  0.00  0.00    +0.004 C 
ENDBRANCH  25  26
BRANCH  25  27
ATOM     27  C   UNL     1     -12.427  12.776  27.915  0.00  0.00    +0.006 C 
ATOM     31  C   UNL     1     -11.876  14.194  28.016  0.00  0.00    +0.004 C 
ENDBRANCH  25  27
ENDBRANCH  23  25
ENDBRANCH  10  16
BRANCH   9  15
ATOM     15  C   UNL     1     -13.725   6.169  32.741  0.00  0.00    +0.100 C 
BRANCH  15   3
ATOM      3  N   UNL     1     -14.301   4.857  32.990  0.00  0.00    -0.312 NA
ATOM     37  H   UNL     1     -15.193   4.972  33.470  0.00  0.00    +0.122 HD
BRANCH   3  17
ATOM      1  O   UNL     1     -16.027  -0.338  30.192  0.00  0.00    -0.276 OA
ATOM      5  N   UNL     1     -14.802   1.633  30.304  0.00  0.00    -0.302 N 
ATOM     17  C   UNL     1     -14.504   4.129  31.740  0.00  0.00    +0.057 C 
ATOM     19  C   UNL     1     -15.798   3.308  31.814  0.00  0.00    +0.037 C 
ATOM     20  C   UNL     1     -13.305   3.215  31.461  0.00  0.00    +0.037 C 
ATOM     21  C   UNL     1     -15.981   2.464  30.553  0.00  0.00    +0.109 C 
ATOM     22  C   UNL     1     -13.537   2.372  30.207  0.00  0.00    +0.109 C 
ATOM     28  C   UNL     1     -14.946   0.255  30.141  0.00  0.00    +0.212 C 
ATOM     32  C   UNL     1     -13.684  -0.531  29.890  0.00  0.00    +0.109 C 
ENDBRANCH   3  17
ENDBRANCH  15   3
ENDBRANCH   9  15
TORSDOF 8
ENDMDL
