MODEL 1
REMARK VINA RESULT:      -6.3      0.000      0.000
REMARK  Name = 26742298
REMARK  6 active torsions:
REMARK  status: ('A' for Active; 'I' for Inactive)
REMARK    1  A    between atoms: O_3  and  C_21
REMARK    2  A    between atoms: O_3  and  C_27
REMARK    3  A    between atoms: O_4  and  C_28
REMARK    4  A    between atoms: C_15  and  C_20
REMARK    5  A    between atoms: C_17  and  C_21
REMARK    6  A    between atoms: C_27  and  C_28
REMARK                            x       y       z     vdW  Elec       q    Type
REMARK                         _______ _______ _______ _____ _____    ______ ____
ROOT
ATOM      1  O   UNL     1       7.350   9.091   4.211  0.00  0.00    -0.268 OA
ATOM      2  O   UNL     1      11.567   9.771   7.292  0.00  0.00    -0.273 OA
ATOM      6  N   UNL     1      11.306   7.513   6.810  0.00  0.00    -0.299 N 
ATOM      7  N   UNL     1       8.835   7.380   4.809  0.00  0.00    -0.311 N 
ATOM      8  C   UNL     1       9.040   6.570   7.234  0.00  0.00    +0.027 C 
ATOM      9  C   UNL     1      10.459   5.584   5.485  0.00  0.00    +0.054 C 
ATOM     10  C   UNL     1       9.473   5.255   6.605  0.00  0.00    +0.018 C 
ATOM     11  C   UNL     1      10.251   7.326   7.806  0.00  0.00    +0.113 C 
ATOM     12  C   UNL     1       8.299   7.393   6.179  0.00  0.00    +0.130 C 
ATOM     13  C   UNL     1      11.690   6.299   6.080  0.00  0.00    +0.117 C 
ATOM     14  C   UNL     1       9.814   6.453   4.402  0.00  0.00    +0.034 A 
ATOM     15  C   UNL     1      10.170   6.378   3.093  0.00  0.00    +0.002 A 
ATOM     16  C   UNL     1       8.219   8.271   3.912  0.00  0.00    +0.252 A 
ATOM     17  C   UNL     1      11.908   8.763   6.667  0.00  0.00    +0.241 C 
ATOM     18  C   UNL     1       9.559   7.283   2.139  0.00  0.00    +0.015 A 
ATOM     19  C   UNL     1       8.653   8.190   2.499  0.00  0.00    +0.071 A 
ENDROOT
BRANCH  15  20
ATOM     20  C   UNL     1      11.179   5.406   2.614  0.00  0.00    -0.016 A 
ATOM     22  C   UNL     1      12.456   5.844   2.265  0.00  0.00    +0.008 A 
ATOM     23  C   UNL     1      10.854   4.054   2.513  0.00  0.00    +0.008 A 
ATOM     24  C   UNL     1      13.408   4.930   1.814  0.00  0.00    +0.001 A 
ATOM     25  C   UNL     1      11.805   3.139   2.063  0.00  0.00    +0.001 A 
ATOM     26  C   UNL     1      13.083   3.577   1.714  0.00  0.00    +0.000 A 
ENDBRANCH  15  20
BRANCH  17  21
ATOM     21  C   UNL     1      13.036   8.861   5.672  0.00  0.00    +0.256 C 
BRANCH  21   3
ATOM      3  O   UNL     1      14.229   8.896   6.417  0.00  0.00    -0.359 OA
BRANCH   3  27
ATOM     27  C   UNL     1      14.999   7.706   6.251  0.00  0.00    +0.280 C 
BRANCH  27  28
ATOM      5  O   UNL     1      16.290   8.624   4.409  0.00  0.00    -0.248 OA
ATOM     28  C   UNL     1      15.648   7.705   4.895  0.00  0.00    +0.331 C 
BRANCH  28   4
ATOM      4  O   UNL     1      15.423   6.522   4.269  0.00  0.00    -0.479 OA
ATOM     29  H   UNL     1      15.471   5.764   4.890  0.00  0.00    +0.295 HD
ENDBRANCH  28   4
ENDBRANCH  27  28
ENDBRANCH   3  27
ENDBRANCH  21   3
ENDBRANCH  17  21
TORSDOF 6
ENDMDL
MODEL 2
REMARK VINA RESULT:      -5.9     24.249     26.661
REMARK  Name = 26742298
REMARK  6 active torsions:
REMARK  status: ('A' for Active; 'I' for Inactive)
REMARK    1  A    between atoms: O_3  and  C_21
REMARK    2  A    between atoms: O_3  and  C_27
REMARK    3  A    between atoms: O_4  and  C_28
REMARK    4  A    between atoms: C_15  and  C_20
REMARK    5  A    between atoms: C_17  and  C_21
REMARK    6  A    between atoms: C_27  and  C_28
REMARK                            x       y       z     vdW  Elec       q    Type
REMARK                         _______ _______ _______ _____ _____    ______ ____
ROOT
ATOM      1  O   UNL     1      -1.159 -11.047  15.565  0.00  0.00    -0.268 OA
ATOM      2  O   UNL     1      -4.970 -14.496  16.715  0.00  0.00    -0.273 OA
ATOM      6  N   UNL     1      -5.913 -12.506  15.973  0.00  0.00    -0.299 N 
ATOM      7  N   UNL     1      -3.438 -10.671  15.175  0.00  0.00    -0.311 N 
ATOM      8  C   UNL     1      -5.109 -10.438  17.106  0.00  0.00    +0.027 C 
ATOM      9  C   UNL     1      -5.895 -10.321  14.781  0.00  0.00    +0.054 C 
ATOM     10  C   UNL     1      -5.904  -9.593  16.123  0.00  0.00    +0.018 C 
ATOM     11  C   UNL     1      -5.737 -11.834  17.260  0.00  0.00    +0.113 C 
ATOM     12  C   UNL     1      -3.660 -10.514  16.619  0.00  0.00    +0.130 C 
ATOM     13  C   UNL     1      -6.572 -11.699  14.939  0.00  0.00    +0.117 C 
ATOM     14  C   UNL     1      -4.474 -10.489  14.237  0.00  0.00    +0.034 A 
ATOM     15  C   UNL     1      -4.192 -10.494  12.909  0.00  0.00    +0.002 A 
ATOM     16  C   UNL     1      -2.103 -10.895  14.790  0.00  0.00    +0.252 A 
ATOM     17  C   UNL     1      -5.524 -13.837  15.831  0.00  0.00    +0.241 C 
ATOM     18  C   UNL     1      -2.828 -10.726  12.474  0.00  0.00    +0.015 A 
ATOM     19  C   UNL     1      -1.832 -10.932  13.336  0.00  0.00    +0.071 A 
ENDROOT
BRANCH  15  20
ATOM     20  C   UNL     1      -5.243 -10.287  11.888  0.00  0.00    -0.016 A 
ATOM     22  C   UNL     1      -5.583  -8.994  11.490  0.00  0.00    +0.008 A 
ATOM     23  C   UNL     1      -5.893 -11.384  11.322  0.00  0.00    +0.008 A 
ATOM     24  C   UNL     1      -6.572  -8.798  10.527  0.00  0.00    +0.001 A 
ATOM     25  C   UNL     1      -6.883 -11.188  10.359  0.00  0.00    +0.001 A 
ATOM     26  C   UNL     1      -7.222  -9.895   9.961  0.00  0.00    +0.000 A 
ENDBRANCH  15  20
BRANCH  17  21
ATOM     21  C   UNL     1      -5.803 -14.483  14.497  0.00  0.00    +0.256 C 
BRANCH  21   3
ATOM      3  O   UNL     1      -4.626 -15.160  14.123  0.00  0.00    -0.359 OA
BRANCH   3  27
ATOM     27  C   UNL     1      -3.649 -14.274  13.578  0.00  0.00    +0.280 C 
BRANCH  27  28
ATOM      5  O   UNL     1      -1.220 -14.316  13.588  0.00  0.00    -0.248 OA
ATOM     28  C   UNL     1      -2.285 -14.644  14.089  0.00  0.00    +0.331 C 
BRANCH  28   4
ATOM      4  O   UNL     1      -2.395 -15.407  15.206  0.00  0.00    -0.479 OA
ATOM     29  H   UNL     1      -2.074 -16.321  15.058  0.00  0.00    +0.295 HD
ENDBRANCH  28   4
ENDBRANCH  27  28
ENDBRANCH   3  27
ENDBRANCH  21   3
ENDBRANCH  17  21
TORSDOF 6
ENDMDL
MODEL 3
REMARK VINA RESULT:      -5.9     23.973     26.814
REMARK  Name = 26742298
REMARK  6 active torsions:
REMARK  status: ('A' for Active; 'I' for Inactive)
REMARK    1  A    between atoms: O_3  and  C_21
REMARK    2  A    between atoms: O_3  and  C_27
REMARK    3  A    between atoms: O_4  and  C_28
REMARK    4  A    between atoms: C_15  and  C_20
REMARK    5  A    between atoms: C_17  and  C_21
REMARK    6  A    between atoms: C_27  and  C_28
REMARK                            x       y       z     vdW  Elec       q    Type
REMARK                         _______ _______ _______ _____ _____    ______ ____
ROOT
ATOM      1  O   UNL     1      -0.836 -12.667  13.757  0.00  0.00    -0.268 OA
ATOM      2  O   UNL     1      -5.046 -12.209  10.625  0.00  0.00    -0.273 OA
ATOM      6  N   UNL     1      -5.710 -12.944  12.727  0.00  0.00    -0.299 N 
ATOM      7  N   UNL     1      -3.048 -12.963  14.470  0.00  0.00    -0.311 N 
ATOM      8  C   UNL     1      -4.479 -14.915  13.624  0.00  0.00    +0.027 C 
ATOM      9  C   UNL     1      -5.439 -13.272  15.179  0.00  0.00    +0.054 C 
ATOM     10  C   UNL     1      -5.209 -14.765  14.950  0.00  0.00    +0.018 C 
ATOM     11  C   UNL     1      -5.313 -14.328  12.472  0.00  0.00    +0.113 C 
ATOM     12  C   UNL     1      -3.112 -14.239  13.743  0.00  0.00    +0.130 C 
ATOM     13  C   UNL     1      -6.317 -12.707  14.043  0.00  0.00    +0.117 C 
ATOM     14  C   UNL     1      -4.119 -12.502  15.262  0.00  0.00    +0.034 A 
ATOM     15  C   UNL     1      -3.960 -11.398  16.035  0.00  0.00    +0.002 A 
ATOM     16  C   UNL     1      -1.808 -12.301  14.419  0.00  0.00    +0.252 A 
ATOM     17  C   UNL     1      -5.560 -11.986  11.725  0.00  0.00    +0.241 C 
ATOM     18  C   UNL     1      -2.697 -10.686  16.005  0.00  0.00    +0.015 A 
ATOM     19  C   UNL     1      -1.677 -11.080  15.245  0.00  0.00    +0.071 A 
ENDROOT
BRANCH  15  20
ATOM     20  C   UNL     1      -5.049 -10.887  16.898  0.00  0.00    -0.016 A 
ATOM     22  C   UNL     1      -5.123 -11.281  18.233  0.00  0.00    +0.008 A 
ATOM     23  C   UNL     1      -6.001 -10.011  16.376  0.00  0.00    +0.008 A 
ATOM     24  C   UNL     1      -6.148 -10.799  19.048  0.00  0.00    +0.001 A 
ATOM     25  C   UNL     1      -7.026  -9.529  17.190  0.00  0.00    +0.001 A 
ATOM     26  C   UNL     1      -7.100  -9.923  18.525  0.00  0.00    +0.000 A 
ENDBRANCH  15  20
BRANCH  17  21
ATOM     21  C   UNL     1      -6.059 -10.598  12.037  0.00  0.00    +0.256 C 
BRANCH  21   3
ATOM      3  O   UNL     1      -4.945  -9.741  11.951  0.00  0.00    -0.359 OA
BRANCH   3  27
ATOM     27  C   UNL     1      -5.083  -8.787  10.899  0.00  0.00    +0.280 C 
BRANCH  27  28
ATOM      5  O   UNL     1      -2.795  -9.277  10.243  0.00  0.00    -0.248 OA
ATOM     28  C   UNL     1      -3.922  -8.905   9.951  0.00  0.00    +0.331 C 
BRANCH  28   4
ATOM      4  O   UNL     1      -4.299  -8.536   8.701  0.00  0.00    -0.479 OA
ATOM     29  H   UNL     1      -5.246  -8.728   8.533  0.00  0.00    +0.295 HD
ENDBRANCH  28   4
ENDBRANCH  27  28
ENDBRANCH   3  27
ENDBRANCH  21   3
ENDBRANCH  17  21
TORSDOF 6
ENDMDL
MODEL 4
REMARK VINA RESULT:      -5.8     24.928     27.644
REMARK  Name = 26742298
REMARK  6 active torsions:
REMARK  status: ('A' for Active; 'I' for Inactive)
REMARK    1  A    between atoms: O_3  and  C_21
REMARK    2  A    between atoms: O_3  and  C_27
REMARK    3  A    between atoms: O_4  and  C_28
REMARK    4  A    between atoms: C_15  and  C_20
REMARK    5  A    between atoms: C_17  and  C_21
REMARK    6  A    between atoms: C_27  and  C_28
REMARK                            x       y       z     vdW  Elec       q    Type
REMARK                         _______ _______ _______ _____ _____    ______ ____
ROOT
ATOM      1  O   UNL     1      -6.101 -15.187  16.681  0.00  0.00    -0.268 OA
ATOM      2  O   UNL     1      -8.296 -10.566  17.933  0.00  0.00    -0.273 OA
ATOM      6  N   UNL     1      -6.158 -10.215  17.093  0.00  0.00    -0.299 N 
ATOM      7  N   UNL     1      -5.124 -13.103  16.246  0.00  0.00    -0.311 N 
ATOM      8  C   UNL     1      -4.347 -11.563  18.144  0.00  0.00    +0.027 C 
ATOM      9  C   UNL     1      -4.122 -10.840  15.806  0.00  0.00    +0.054 C 
ATOM     10  C   UNL     1      -3.360 -11.034  17.116  0.00  0.00    +0.018 C 
ATOM     11  C   UNL     1      -5.504 -10.571  18.352  0.00  0.00    +0.113 C 
ATOM     12  C   UNL     1      -4.845 -12.933  17.679  0.00  0.00    +0.130 C 
ATOM     13  C   UNL     1      -5.248  -9.806  16.016  0.00  0.00    +0.117 C 
ATOM     14  C   UNL     1      -4.703 -12.158  15.289  0.00  0.00    +0.034 A 
ATOM     15  C   UNL     1      -4.848 -12.427  13.965  0.00  0.00    +0.002 A 
ATOM     16  C   UNL     1      -5.728 -14.321  15.888  0.00  0.00    +0.252 A 
ATOM     17  C   UNL     1      -7.551 -10.217  17.014  0.00  0.00    +0.241 C 
ATOM     18  C   UNL     1      -5.469 -13.672  13.558  0.00  0.00    +0.015 A 
ATOM     19  C   UNL     1      -5.905 -14.571  14.440  0.00  0.00    +0.071 A 
ENDROOT
BRANCH  15  20
ATOM     20  C   UNL     1      -4.403 -11.475  12.923  0.00  0.00    -0.016 A 
ATOM     22  C   UNL     1      -5.303 -10.550  12.394  0.00  0.00    +0.008 A 
ATOM     23  C   UNL     1      -3.084 -11.501  12.471  0.00  0.00    +0.008 A 
ATOM     24  C   UNL     1      -4.884  -9.651  11.413  0.00  0.00    +0.001 A 
ATOM     25  C   UNL     1      -2.664 -10.603  11.489  0.00  0.00    +0.001 A 
ATOM     26  C   UNL     1      -3.564  -9.678  10.961  0.00  0.00    +0.000 A 
ENDBRANCH  15  20
BRANCH  17  21
ATOM     21  C   UNL     1      -8.154  -9.769  15.707  0.00  0.00    +0.256 C 
BRANCH  21   3
ATOM      3  O   UNL     1      -9.497  -9.444  15.973  0.00  0.00    -0.359 OA
BRANCH   3  27
ATOM     27  C   UNL     1      -9.834  -8.136  15.512  0.00  0.00    +0.280 C 
BRANCH  27  28
ATOM      5  O   UNL     1     -11.187  -6.434  16.595  0.00  0.00    -0.248 OA
ATOM     28  C   UNL     1     -10.332  -7.305  16.661  0.00  0.00    +0.331 C 
BRANCH  28   4
ATOM      4  O   UNL     1      -9.696  -7.658  17.806  0.00  0.00    -0.479 OA
ATOM     29  H   UNL     1      -9.908  -7.050  18.545  0.00  0.00    +0.295 HD
ENDBRANCH  28   4
ENDBRANCH  27  28
ENDBRANCH   3  27
ENDBRANCH  21   3
ENDBRANCH  17  21
TORSDOF 6
ENDMDL
MODEL 5
REMARK VINA RESULT:      -5.7     24.021     26.323
REMARK  Name = 26742298
REMARK  6 active torsions:
REMARK  status: ('A' for Active; 'I' for Inactive)
REMARK    1  A    between atoms: O_3  and  C_21
REMARK    2  A    between atoms: O_3  and  C_27
REMARK    3  A    between atoms: O_4  and  C_28
REMARK    4  A    between atoms: C_15  and  C_20
REMARK    5  A    between atoms: C_17  and  C_21
REMARK    6  A    between atoms: C_27  and  C_28
REMARK                            x       y       z     vdW  Elec       q    Type
REMARK                         _______ _______ _______ _____ _____    ______ ____
ROOT
ATOM      1  O   UNL     1      -2.018 -15.190  12.809  0.00  0.00    -0.268 OA
ATOM      2  O   UNL     1      -5.100 -13.058  16.511  0.00  0.00    -0.273 OA
ATOM      6  N   UNL     1      -4.164 -11.377  15.208  0.00  0.00    -0.299 N 
ATOM      7  N   UNL     1      -2.514 -12.905  12.956  0.00  0.00    -0.311 N 
ATOM      8  C   UNL     1      -1.692 -11.478  14.922  0.00  0.00    +0.027 C 
ATOM      9  C   UNL     1      -3.077 -10.464  13.164  0.00  0.00    +0.054 C 
ATOM     10  C   UNL     1      -1.762 -10.329  13.929  0.00  0.00    +0.018 C 
ATOM     11  C   UNL     1      -2.877 -11.428  15.901  0.00  0.00    +0.113 C 
ATOM     12  C   UNL     1      -1.651 -12.793  14.141  0.00  0.00    +0.130 C 
ATOM     13  C   UNL     1      -4.258 -10.362  14.151  0.00  0.00    +0.117 C 
ATOM     14  C   UNL     1      -3.147 -11.782  12.388  0.00  0.00    +0.034 A 
ATOM     15  C   UNL     1      -3.810 -11.905  11.209  0.00  0.00    +0.002 A 
ATOM     16  C   UNL     1      -2.564 -14.179  12.364  0.00  0.00    +0.252 A 
ATOM     17  C   UNL     1      -5.203 -12.211  15.619  0.00  0.00    +0.241 C 
ATOM     18  C   UNL     1      -3.886 -13.204  10.570  0.00  0.00    +0.015 A 
ATOM     19  C   UNL     1      -3.323 -14.290  11.098  0.00  0.00    +0.071 A 
ENDROOT
BRANCH  15  20
ATOM     20  C   UNL     1      -4.474 -10.750  10.563  0.00  0.00    -0.016 A 
ATOM     22  C   UNL     1      -5.838 -10.533  10.757  0.00  0.00    +0.008 A 
ATOM     23  C   UNL     1      -3.736  -9.878   9.764  0.00  0.00    +0.008 A 
ATOM     24  C   UNL     1      -6.464  -9.444  10.150  0.00  0.00    +0.001 A 
ATOM     25  C   UNL     1      -4.361  -8.789   9.156  0.00  0.00    +0.001 A 
ATOM     26  C   UNL     1      -5.725  -8.572   9.350  0.00  0.00    +0.000 A 
ENDBRANCH  15  20
BRANCH  17  21
ATOM     21  C   UNL     1      -6.521 -12.051  14.904  0.00  0.00    +0.256 C 
BRANCH  21   3
ATOM      3  O   UNL     1      -7.462 -11.665  15.877  0.00  0.00    -0.359 OA
BRANCH   3  27
ATOM     27  C   UNL     1      -7.552 -10.246  16.001  0.00  0.00    +0.280 C 
BRANCH  27  28
ATOM      5  O   UNL     1      -6.673 -10.387  18.262  0.00  0.00    -0.248 OA
ATOM     28  C   UNL     1      -7.408  -9.852  17.445  0.00  0.00    +0.331 C 
BRANCH  28   4
ATOM      4  O   UNL     1      -8.216  -8.800  17.726  0.00  0.00    -0.479 OA
ATOM     29  H   UNL     1      -8.124  -8.080  17.067  0.00  0.00    +0.295 HD
ENDBRANCH  28   4
ENDBRANCH  27  28
ENDBRANCH   3  27
ENDBRANCH  21   3
ENDBRANCH  17  21
TORSDOF 6
ENDMDL
MODEL 6
REMARK VINA RESULT:      -5.6      2.559      5.342
REMARK  Name = 26742298
REMARK  6 active torsions:
REMARK  status: ('A' for Active; 'I' for Inactive)
REMARK    1  A    between atoms: O_3  and  C_21
REMARK    2  A    between atoms: O_3  and  C_27
REMARK    3  A    between atoms: O_4  and  C_28
REMARK    4  A    between atoms: C_15  and  C_20
REMARK    5  A    between atoms: C_17  and  C_21
REMARK    6  A    between atoms: C_27  and  C_28
REMARK                            x       y       z     vdW  Elec       q    Type
REMARK                         _______ _______ _______ _____ _____    ______ ____
ROOT
ATOM      1  O   UNL     1       7.936   5.846   5.504  0.00  0.00    -0.268 OA
ATOM      2  O   UNL     1      10.225   5.218   0.802  0.00  0.00    -0.273 OA
ATOM      6  N   UNL     1      10.866   7.254   1.719  0.00  0.00    -0.299 N 
ATOM      7  N   UNL     1       9.519   7.318   4.602  0.00  0.00    -0.311 N 
ATOM      8  C   UNL     1       9.012   8.716   2.513  0.00  0.00    +0.027 C 
ATOM      9  C   UNL     1      11.219   8.865   3.584  0.00  0.00    +0.054 C 
ATOM     10  C   UNL     1      10.029   9.687   3.093  0.00  0.00    +0.018 C 
ATOM     11  C   UNL     1       9.620   7.922   1.344  0.00  0.00    +0.113 C 
ATOM     12  C   UNL     1       8.522   7.799   3.634  0.00  0.00    +0.130 C 
ATOM     13  C   UNL     1      11.849   8.112   2.393  0.00  0.00    +0.117 C 
ATOM     14  C   UNL     1      10.810   7.876   4.679  0.00  0.00    +0.034 A 
ATOM     15  C   UNL     1      11.646   7.509   5.684  0.00  0.00    +0.002 A 
ATOM     16  C   UNL     1       9.057   6.356   5.517  0.00  0.00    +0.252 A 
ATOM     17  C   UNL     1      11.067   5.920   1.369  0.00  0.00    +0.241 C 
ATOM     18  C   UNL     1      11.206   6.515   6.645  0.00  0.00    +0.015 A 
ATOM     19  C   UNL     1      10.002   5.948   6.580  0.00  0.00    +0.071 A 
ENDROOT
BRANCH  15  20
ATOM     20  C   UNL     1      13.004   8.082   5.818  0.00  0.00    -0.016 A 
ATOM     22  C   UNL     1      14.104   7.396   5.303  0.00  0.00    +0.008 A 
ATOM     23  C   UNL     1      13.185   9.307   6.459  0.00  0.00    +0.008 A 
ATOM     24  C   UNL     1      15.384   7.936   5.427  0.00  0.00    +0.001 A 
ATOM     25  C   UNL     1      14.465   9.848   6.584  0.00  0.00    +0.001 A 
ATOM     26  C   UNL     1      15.564   9.162   6.068  0.00  0.00    +0.000 A 
ENDBRANCH  15  20
BRANCH  17  21
ATOM     21  C   UNL     1      12.404   5.321   1.726  0.00  0.00    +0.256 C 
BRANCH  21   3
ATOM      3  O   UNL     1      12.588   4.212   0.879  0.00  0.00    -0.359 OA
BRANCH   3  27
ATOM     27  C   UNL     1      13.400   3.206   1.484  0.00  0.00    +0.280 C 
BRANCH  27  28
ATOM      5  O   UNL     1      15.355   4.087   0.341  0.00  0.00    -0.248 OA
ATOM     28  C   UNL     1      14.852   3.559   1.322  0.00  0.00    +0.331 C 
BRANCH  28   4
ATOM      4  O   UNL     1      15.546   3.208   2.434  0.00  0.00    -0.479 OA
ATOM     29  H   UNL     1      15.697   2.240   2.481  0.00  0.00    +0.295 HD
ENDBRANCH  28   4
ENDBRANCH  27  28
ENDBRANCH   3  27
ENDBRANCH  21   3
ENDBRANCH  17  21
TORSDOF 6
ENDMDL
MODEL 7
REMARK VINA RESULT:      -5.5     23.364     25.451
REMARK  Name = 26742298
REMARK  6 active torsions:
REMARK  status: ('A' for Active; 'I' for Inactive)
REMARK    1  A    between atoms: O_3  and  C_21
REMARK    2  A    between atoms: O_3  and  C_27
REMARK    3  A    between atoms: O_4  and  C_28
REMARK    4  A    between atoms: C_15  and  C_20
REMARK    5  A    between atoms: C_17  and  C_21
REMARK    6  A    between atoms: C_27  and  C_28
REMARK                            x       y       z     vdW  Elec       q    Type
REMARK                         _______ _______ _______ _____ _____    ______ ____
ROOT
ATOM      1  O   UNL     1      21.859  -7.182  23.239  0.00  0.00    -0.268 OA
ATOM      2  O   UNL     1      18.511  -8.109  27.197  0.00  0.00    -0.273 OA
ATOM      6  N   UNL     1      18.692  -5.819  26.845  0.00  0.00    -0.299 N 
ATOM      7  N   UNL     1      20.601  -5.525  24.316  0.00  0.00    -0.311 N 
ATOM      8  C   UNL     1      21.011  -4.915  26.772  0.00  0.00    +0.027 C 
ATOM      9  C   UNL     1      19.229  -3.789  25.509  0.00  0.00    +0.054 C 
ATOM     10  C   UNL     1      20.465  -3.553  26.374  0.00  0.00    +0.018 C 
ATOM     11  C   UNL     1      19.962  -5.715  27.563  0.00  0.00    +0.113 C 
ATOM     12  C   UNL     1      21.455  -5.649  25.506  0.00  0.00    +0.130 C 
ATOM     13  C   UNL     1      18.166  -4.549  26.329  0.00  0.00    +0.117 C 
ATOM     14  C   UNL     1      19.571  -4.567  24.235  0.00  0.00    +0.034 A 
ATOM     15  C   UNL     1      18.908  -4.385  23.064  0.00  0.00    +0.002 A 
ATOM     16  C   UNL     1      20.960  -6.340  23.227  0.00  0.00    +0.252 A 
ATOM     17  C   UNL     1      18.049  -7.053  26.756  0.00  0.00    +0.241 C 
ATOM     18  C   UNL     1      19.248  -5.210  21.921  0.00  0.00    +0.015 A 
ATOM     19  C   UNL     1      20.196  -6.144  21.975  0.00  0.00    +0.071 A 
ENDROOT
BRANCH  15  20
ATOM     20  C   UNL     1      17.832  -3.378  22.926  0.00  0.00    -0.016 A 
ATOM     22  C   UNL     1      16.497  -3.763  23.045  0.00  0.00    +0.008 A 
ATOM     23  C   UNL     1      18.153  -2.044  22.677  0.00  0.00    +0.008 A 
ATOM     24  C   UNL     1      15.483  -2.814  22.916  0.00  0.00    +0.001 A 
ATOM     25  C   UNL     1      17.139  -1.094  22.547  0.00  0.00    +0.001 A 
ATOM     26  C   UNL     1      15.804  -1.479  22.667  0.00  0.00    +0.000 A 
ENDBRANCH  15  20
BRANCH  17  21
ATOM     21  C   UNL     1      16.709  -7.069  26.063  0.00  0.00    +0.256 C 
BRANCH  21   3
ATOM      3  O   UNL     1      15.959  -8.100  26.659  0.00  0.00    -0.359 OA
BRANCH   3  27
ATOM     27  C   UNL     1      15.326  -8.932  25.688  0.00  0.00    +0.280 C 
BRANCH  27  28
ATOM      5  O   UNL     1      14.915 -11.317  25.903  0.00  0.00    -0.248 OA
ATOM     28  C   UNL     1      15.686 -10.370  25.937  0.00  0.00    +0.331 C 
BRANCH  28   4
ATOM      4  O   UNL     1      17.011 -10.480  26.209  0.00  0.00    -0.479 OA
ATOM     29  H   UNL     1      17.431  -9.605  26.348  0.00  0.00    +0.295 HD
ENDBRANCH  28   4
ENDBRANCH  27  28
ENDBRANCH   3  27
ENDBRANCH  21   3
ENDBRANCH  17  21
TORSDOF 6
ENDMDL
MODEL 8
REMARK VINA RESULT:      -5.4      2.476      4.988
REMARK  Name = 26742298
REMARK  6 active torsions:
REMARK  status: ('A' for Active; 'I' for Inactive)
REMARK    1  A    between atoms: O_3  and  C_21
REMARK    2  A    between atoms: O_3  and  C_27
REMARK    3  A    between atoms: O_4  and  C_28
REMARK    4  A    between atoms: C_15  and  C_20
REMARK    5  A    between atoms: C_17  and  C_21
REMARK    6  A    between atoms: C_27  and  C_28
REMARK                            x       y       z     vdW  Elec       q    Type
REMARK                         _______ _______ _______ _____ _____    ______ ____
ROOT
ATOM      1  O   UNL     1       9.983  10.068   8.478  0.00  0.00    -0.268 OA
ATOM      2  O   UNL     1      12.875   6.948   5.374  0.00  0.00    -0.273 OA
ATOM      6  N   UNL     1      10.619   6.639   4.911  0.00  0.00    -0.299 N 
ATOM      7  N   UNL     1       9.105   8.742   6.759  0.00  0.00    -0.311 N 
ATOM      8  C   UNL     1       9.163   6.181   6.879  0.00  0.00    +0.027 C 
ATOM      9  C   UNL     1       8.219   7.296   4.903  0.00  0.00    +0.054 C 
ATOM     10  C   UNL     1       7.935   6.256   5.985  0.00  0.00    +0.018 C 
ATOM     11  C   UNL     1      10.405   5.771   6.069  0.00  0.00    +0.113 C 
ATOM     12  C   UNL     1       9.349   7.536   7.564  0.00  0.00    +0.130 C 
ATOM     13  C   UNL     1       9.436   6.849   4.067  0.00  0.00    +0.117 C 
ATOM     14  C   UNL     1       8.469   8.682   5.503  0.00  0.00    +0.034 A 
ATOM     15  C   UNL     1       8.128   9.831   4.864  0.00  0.00    +0.002 A 
ATOM     16  C   UNL     1       9.440   9.959   7.379  0.00  0.00    +0.252 A 
ATOM     17  C   UNL     1      11.895   7.138   4.649  0.00  0.00    +0.241 C 
ATOM     18  C   UNL     1       8.460  11.105   5.470  0.00  0.00    +0.015 A 
ATOM     19  C   UNL     1       9.089  11.194   6.642  0.00  0.00    +0.071 A 
ENDROOT
BRANCH  15  20
ATOM     20  C   UNL     1       7.441   9.819   3.553  0.00  0.00    -0.016 A 
ATOM     22  C   UNL     1       8.182   9.687   2.379  0.00  0.00    +0.008 A 
ATOM     23  C   UNL     1       6.053   9.938   3.491  0.00  0.00    +0.008 A 
ATOM     24  C   UNL     1       7.535   9.674   1.143  0.00  0.00    +0.001 A 
ATOM     25  C   UNL     1       5.405   9.926   2.256  0.00  0.00    +0.001 A 
ATOM     26  C   UNL     1       6.147   9.794   1.081  0.00  0.00    +0.000 A 
ENDBRANCH  15  20
BRANCH  17  21
ATOM     21  C   UNL     1      12.053   7.965   3.398  0.00  0.00    +0.256 C 
BRANCH  21   3
ATOM      3  O   UNL     1      12.918   7.250   2.549  0.00  0.00    -0.359 OA
BRANCH   3  27
ATOM     27  C   UNL     1      12.224   6.668   1.446  0.00  0.00    +0.280 C 
BRANCH  27  28
ATOM      5  O   UNL     1      10.913   4.623   1.409  0.00  0.00    -0.248 OA
ATOM     28  C   UNL     1      11.924   5.225   1.739  0.00  0.00    +0.331 C 
BRANCH  28   4
ATOM      4  O   UNL     1      12.947   4.665   2.433  0.00  0.00    -0.479 OA
ATOM     29  H   UNL     1      13.014   3.700   2.271  0.00  0.00    +0.295 HD
ENDBRANCH  28   4
ENDBRANCH  27  28
ENDBRANCH   3  27
ENDBRANCH  21   3
ENDBRANCH  17  21
TORSDOF 6
ENDMDL
MODEL 9
REMARK VINA RESULT:      -5.3     22.973     25.073
REMARK  Name = 26742298
REMARK  6 active torsions:
REMARK  status: ('A' for Active; 'I' for Inactive)
REMARK    1  A    between atoms: O_3  and  C_21
REMARK    2  A    between atoms: O_3  and  C_27
REMARK    3  A    between atoms: O_4  and  C_28
REMARK    4  A    between atoms: C_15  and  C_20
REMARK    5  A    between atoms: C_17  and  C_21
REMARK    6  A    between atoms: C_27  and  C_28
REMARK                            x       y       z     vdW  Elec       q    Type
REMARK                         _______ _______ _______ _____ _____    ______ ____
ROOT
ATOM      1  O   UNL     1      19.786  -4.932  21.632  0.00  0.00    -0.268 OA
ATOM      2  O   UNL     1      20.763  -0.968  24.959  0.00  0.00    -0.273 OA
ATOM      6  N   UNL     1      18.563  -1.675  25.207  0.00  0.00    -0.299 N 
ATOM      7  N   UNL     1      18.274  -4.166  23.249  0.00  0.00    -0.311 N 
ATOM      8  C   UNL     1      17.231  -1.828  23.108  0.00  0.00    +0.027 C 
ATOM      9  C   UNL     1      16.691  -3.301  24.999  0.00  0.00    +0.054 C 
ATOM     10  C   UNL     1      16.083  -2.452  23.885  0.00  0.00    +0.018 C 
ATOM     11  C   UNL     1      18.098  -0.949  24.026  0.00  0.00    +0.113 C 
ATOM     12  C   UNL     1      18.043  -2.949  22.457  0.00  0.00    +0.130 C 
ATOM     13  C   UNL     1      17.517  -2.400  25.940  0.00  0.00    +0.117 C 
ATOM     14  C   UNL     1      17.566  -4.426  24.439  0.00  0.00    +0.034 A 
ATOM     15  C   UNL     1      17.700  -5.628  25.056  0.00  0.00    +0.002 A 
ATOM     16  C   UNL     1      19.154  -5.101  22.675  0.00  0.00    +0.252 A 
ATOM     17  C   UNL     1      19.900  -1.584  25.592  0.00  0.00    +0.241 C 
ATOM     18  C   UNL     1      18.602  -6.616  24.496  0.00  0.00    +0.015 A 
ATOM     19  C   UNL     1      19.307  -6.389  23.389  0.00  0.00    +0.071 A 
ENDROOT
BRANCH  15  20
ATOM     20  C   UNL     1      16.963  -5.954  26.297  0.00  0.00    -0.016 A 
ATOM     22  C   UNL     1      17.492  -5.595  27.537  0.00  0.00    +0.008 A 
ATOM     23  C   UNL     1      15.738  -6.618  26.228  0.00  0.00    +0.008 A 
ATOM     24  C   UNL     1      16.797  -5.900  28.707  0.00  0.00    +0.001 A 
ATOM     25  C   UNL     1      15.043  -6.924  27.398  0.00  0.00    +0.001 A 
ATOM     26  C   UNL     1      15.572  -6.565  28.637  0.00  0.00    +0.000 A 
ENDBRANCH  15  20
BRANCH  17  21
ATOM     21  C   UNL     1      20.289  -2.301  26.860  0.00  0.00    +0.256 C 
BRANCH  21   3
ATOM      3  O   UNL     1      20.295  -1.335  27.884  0.00  0.00    -0.359 OA
BRANCH   3  27
ATOM     27  C   UNL     1      20.297  -1.929  29.181  0.00  0.00    +0.280 C 
BRANCH  27  28
ATOM      5  O   UNL     1      18.725  -0.724  30.589  0.00  0.00    -0.248 OA
ATOM     28  C   UNL     1      18.981  -1.672  29.861  0.00  0.00    +0.331 C 
BRANCH  28   4
ATOM      4  O   UNL     1      18.095  -2.651  29.551  0.00  0.00    -0.479 OA
ATOM     29  H   UNL     1      17.992  -3.297  30.282  0.00  0.00    +0.295 HD
ENDBRANCH  28   4
ENDBRANCH  27  28
ENDBRANCH   3  27
ENDBRANCH  21   3
ENDBRANCH  17  21
TORSDOF 6
ENDMDL
MODEL 10
REMARK VINA RESULT:      -5.2     23.440     25.558
REMARK  Name = 26742298
REMARK  6 active torsions:
REMARK  status: ('A' for Active; 'I' for Inactive)
REMARK    1  A    between atoms: O_3  and  C_21
REMARK    2  A    between atoms: O_3  and  C_27
REMARK    3  A    between atoms: O_4  and  C_28
REMARK    4  A    between atoms: C_15  and  C_20
REMARK    5  A    between atoms: C_17  and  C_21
REMARK    6  A    between atoms: C_27  and  C_28
REMARK                            x       y       z     vdW  Elec       q    Type
REMARK                         _______ _______ _______ _____ _____    ______ ____
ROOT
ATOM      1  O   UNL     1      22.836  -5.516  25.088  0.00  0.00    -0.268 OA
ATOM      2  O   UNL     1      19.928  -4.921  29.438  0.00  0.00    -0.273 OA
ATOM      6  N   UNL     1      19.595  -3.110  28.021  0.00  0.00    -0.299 N 
ATOM      7  N   UNL     1      21.293  -3.784  25.415  0.00  0.00    -0.311 N 
ATOM      8  C   UNL     1      21.659  -1.982  27.202  0.00  0.00    +0.027 C 
ATOM      9  C   UNL     1      19.627  -1.947  25.821  0.00  0.00    +0.054 C 
ATOM     10  C   UNL     1      20.816  -1.108  26.286  0.00  0.00    +0.018 C 
ATOM     11  C   UNL     1      20.840  -2.452  28.416  0.00  0.00    +0.113 C 
ATOM     12  C   UNL     1      22.201  -3.158  26.387  0.00  0.00    +0.130 C 
ATOM     13  C   UNL     1      18.787  -2.370  27.044  0.00  0.00    +0.117 C 
ATOM     14  C   UNL     1      20.078  -3.181  25.035  0.00  0.00    +0.034 A 
ATOM     15  C   UNL     1      19.345  -3.716  24.025  0.00  0.00    +0.002 A 
ATOM     16  C   UNL     1      21.777  -4.955  24.805  0.00  0.00    +0.252 A 
ATOM     17  C   UNL     1      19.231  -4.316  28.620  0.00  0.00    +0.241 C 
ATOM     18  C   UNL     1      19.809  -4.925  23.375  0.00  0.00    +0.015 A 
ATOM     19  C   UNL     1      20.939  -5.536  23.731  0.00  0.00    +0.071 A 
ENDROOT
BRANCH  15  20
ATOM     20  C   UNL     1      18.072  -3.107  23.578  0.00  0.00    -0.016 A 
ATOM     22  C   UNL     1      16.856  -3.678  23.954  0.00  0.00    +0.008 A 
ATOM     23  C   UNL     1      18.087  -1.961  22.782  0.00  0.00    +0.008 A 
ATOM     24  C   UNL     1      15.656  -3.104  23.534  0.00  0.00    +0.001 A 
ATOM     25  C   UNL     1      16.888  -1.387  22.362  0.00  0.00    +0.001 A 
ATOM     26  C   UNL     1      15.672  -1.958  22.738  0.00  0.00    +0.000 A 
ENDBRANCH  15  20
BRANCH  17  21
ATOM     21  C   UNL     1      17.901  -4.898  28.213  0.00  0.00    +0.256 C 
BRANCH  21   3
ATOM      3  O   UNL     1      18.130  -6.253  27.908  0.00  0.00    -0.359 OA
BRANCH   3  27
ATOM     27  C   UNL     1      18.553  -6.434  26.558  0.00  0.00    +0.280 C 
BRANCH  27  28
ATOM      5  O   UNL     1      19.660  -8.445  25.762  0.00  0.00    -0.248 OA
ATOM     28  C   UNL     1      19.639  -7.472  26.500  0.00  0.00    +0.331 C 
BRANCH  28   4
ATOM      4  O   UNL     1      20.616  -7.178  27.395  0.00  0.00    -0.479 OA
ATOM     29  H   UNL     1      21.015  -6.298  27.226  0.00  0.00    +0.295 HD
ENDBRANCH  28   4
ENDBRANCH  27  28
ENDBRANCH   3  27
ENDBRANCH  21   3
ENDBRANCH  17  21
TORSDOF 6
ENDMDL
