MODEL 1
REMARK VINA RESULT:      -7.1      0.000      0.000
REMARK  Name = 51138096
REMARK  8 active torsions:
REMARK  status: ('A' for Active; 'I' for Inactive)
REMARK    1  A    between atoms: N_4  and  C_21
REMARK    2  A    between atoms: N_6  and  C_31
REMARK    3  A    between atoms: C_8  and  C_14
REMARK    4  A    between atoms: C_9  and  C_18
REMARK    5  A    between atoms: C_14  and  C_16
REMARK    6  A    between atoms: C_16  and  C_23
REMARK    7  A    between atoms: C_16  and  C_24
REMARK    8  A    between atoms: C_21  and  C_29
REMARK                            x       y       z     vdW  Elec       q    Type
REMARK                         _______ _______ _______ _____ _____    ______ ____
ROOT
ATOM      3  N   UNL     1      14.741   9.411  19.133  0.00  0.00    -0.299 NA
ATOM      4  N   UNL     1      11.818  10.719  23.039  0.00  0.00    -0.339 N 
ATOM      8  C   UNL     1      13.657   8.420  19.169  0.00  0.00    +0.085 C 
ATOM      9  C   UNL     1      14.297  10.794  19.039  0.00  0.00    +0.145 C 
ATOM     10  C   UNL     1      12.727   8.488  20.385  0.00  0.00    -0.021 A 
ATOM     11  C   UNL     1      12.616   9.599  21.271  0.00  0.00    +0.008 A 
ATOM     12  C   UNL     1      14.259  11.467  20.409  0.00  0.00    +0.065 C 
ATOM     13  C   UNL     1      13.240  10.893  21.336  0.00  0.00    -0.020 A 
ATOM     15  C   UNL     1      11.715   9.539  22.340  0.00  0.00    +0.050 A 
ATOM     17  C   UNL     1      12.727  11.542  22.441  0.00  0.00    +0.091 A 
ATOM     19  C   UNL     1      11.842   7.406  20.625  0.00  0.00    +0.006 A 
ATOM     20  C   UNL     1      10.885   8.444  22.587  0.00  0.00    +0.026 A 
ATOM     22  C   UNL     1      10.955   7.380  21.698  0.00  0.00    +0.002 A 
ATOM     33  H   UNL     1      15.378   9.281  19.918  0.00  0.00    +0.123 HD
ENDROOT
BRANCH   9  18
ATOM      1  O   UNL     1      16.299  12.007  18.719  0.00  0.00    -0.274 OA
ATOM      2  O   UNL     1      15.108  10.845  14.062  0.00  0.00    -0.377 OA
ATOM      5  N   UNL     1      15.094  11.465  16.810  0.00  0.00    -0.296 N 
ATOM     18  C   UNL     1      15.322  11.477  18.185  0.00  0.00    +0.233 C 
ATOM     25  C   UNL     1      13.884  10.960  16.153  0.00  0.00    +0.136 C 
ATOM     26  C   UNL     1      16.047  12.105  15.905  0.00  0.00    +0.136 C 
ATOM     27  C   UNL     1      14.256  10.110  14.944  0.00  0.00    +0.179 C 
ATOM     28  C   UNL     1      16.331  11.205  14.711  0.00  0.00    +0.179 C 
ENDBRANCH   9  18
BRANCH   8  14
ATOM     14  C   UNL     1      14.368   7.060  19.046  0.00  0.00    +0.026 C 
BRANCH  14  16
ATOM     16  C   UNL     1      15.739   7.038  19.729  0.00  0.00    -0.015 C 
ATOM     23  C   UNL     1      15.661   6.612  21.195  0.00  0.00    +0.007 C 
ATOM     24  C   UNL     1      16.669   6.092  18.964  0.00  0.00    +0.007 C 
ENDBRANCH  14  16
ENDBRANCH   8  14
BRANCH   4  21
ATOM     21  C   UNL     1      11.067  11.064  24.226  0.00  0.00    +0.196 C 
BRANCH  21  29
ATOM      6  N   UNL     1      11.183  13.473  24.950  0.00  0.00    -0.336 N 
ATOM      7  N   UNL     1      12.710  12.113  25.818  0.00  0.00    -0.239 NA
ATOM     29  C   UNL     1      11.675  12.199  25.011  0.00  0.00    +0.129 A 
ATOM     30  C   UNL     1      11.954  14.250  25.770  0.00  0.00    +0.106 A 
ATOM     31  C   UNL     1      10.060  13.933  24.168  0.00  0.00    +0.150 C 
ATOM     32  C   UNL     1      12.888  13.388  26.295  0.00  0.00    +0.130 A 
ENDBRANCH  21  29
ENDBRANCH   4  21
TORSDOF 5
ENDMDL
MODEL 2
REMARK VINA RESULT:      -6.8      4.464      6.496
REMARK  Name = 51138096
REMARK  8 active torsions:
REMARK  status: ('A' for Active; 'I' for Inactive)
REMARK    1  A    between atoms: N_4  and  C_21
REMARK    2  A    between atoms: N_6  and  C_31
REMARK    3  A    between atoms: C_8  and  C_14
REMARK    4  A    between atoms: C_9  and  C_18
REMARK    5  A    between atoms: C_14  and  C_16
REMARK    6  A    between atoms: C_16  and  C_23
REMARK    7  A    between atoms: C_16  and  C_24
REMARK    8  A    between atoms: C_21  and  C_29
REMARK                            x       y       z     vdW  Elec       q    Type
REMARK                         _______ _______ _______ _____ _____    ______ ____
ROOT
ATOM      3  N   UNL     1      19.038   8.876  22.407  0.00  0.00    -0.299 NA
ATOM      4  N   UNL     1      14.450   9.093  20.308  0.00  0.00    -0.339 N 
ATOM      8  C   UNL     1      19.035   7.855  21.349  0.00  0.00    +0.085 C 
ATOM      9  C   UNL     1      18.712  10.221  21.954  0.00  0.00    +0.145 C 
ATOM     10  C   UNL     1      17.684   7.593  20.677  0.00  0.00    -0.021 A 
ATOM     11  C   UNL     1      16.553   8.457  20.742  0.00  0.00    +0.008 A 
ATOM     12  C   UNL     1      17.239  10.550  22.186  0.00  0.00    +0.065 C 
ATOM     13  C   UNL     1      16.300   9.727  21.368  0.00  0.00    -0.020 A 
ATOM     15  C   UNL     1      15.377   8.107  20.069  0.00  0.00    +0.050 A 
ATOM     17  C   UNL     1      14.995  10.074  21.083  0.00  0.00    +0.091 A 
ATOM     19  C   UNL     1      17.546   6.445  19.855  0.00  0.00    +0.006 A 
ATOM     20  C   UNL     1      15.246   6.947  19.302  0.00  0.00    +0.026 A 
ATOM     22  C   UNL     1      16.361   6.126  19.196  0.00  0.00    +0.002 A 
ATOM     33  H   UNL     1      18.444   8.595  23.186  0.00  0.00    +0.123 HD
ENDROOT
BRANCH   9  18
ATOM      1  O   UNL     1      19.154  11.477  23.905  0.00  0.00    -0.274 OA
ATOM      2  O   UNL     1      23.492  11.775  21.549  0.00  0.00    -0.377 OA
ATOM      5  N   UNL     1      20.771  11.536  22.240  0.00  0.00    -0.296 N 
ATOM     18  C   UNL     1      19.557  11.132  22.791  0.00  0.00    +0.233 C 
ATOM     25  C   UNL     1      21.222  11.250  20.873  0.00  0.00    +0.136 C 
ATOM     26  C   UNL     1      21.658  12.421  22.993  0.00  0.00    +0.136 C 
ATOM     27  C   UNL     1      22.680  10.806  20.881  0.00  0.00    +0.179 C 
ATOM     28  C   UNL     1      23.095  11.925  22.915  0.00  0.00    +0.179 C 
ENDBRANCH   9  18
BRANCH   8  14
ATOM     14  C   UNL     1      19.614   6.597  22.022  0.00  0.00    +0.026 C 
BRANCH  14  16
ATOM     16  C   UNL     1      20.925   6.128  21.385  0.00  0.00    -0.015 C 
ATOM     23  C   UNL     1      20.761   4.838  20.580  0.00  0.00    +0.007 C 
ATOM     24  C   UNL     1      21.471   7.236  20.481  0.00  0.00    +0.007 C 
ENDBRANCH  14  16
ENDBRANCH   8  14
BRANCH   4  21
ATOM     21  C   UNL     1      13.093   9.114  19.804  0.00  0.00    +0.196 C 
BRANCH  21  29
ATOM      6  N   UNL     1      11.570   7.869  21.376  0.00  0.00    -0.336 N 
ATOM      7  N   UNL     1      11.494  10.087  21.487  0.00  0.00    -0.239 NA
ATOM     29  C   UNL     1      12.050   9.054  20.892  0.00  0.00    +0.129 A 
ATOM     30  C   UNL     1      10.648   8.165  22.341  0.00  0.00    +0.106 A 
ATOM     31  C   UNL     1      11.952   6.542  20.957  0.00  0.00    +0.150 C 
ATOM     32  C   UNL     1      10.619   9.539  22.392  0.00  0.00    +0.130 A 
ENDBRANCH  21  29
ENDBRANCH   4  21
TORSDOF 5
ENDMDL
MODEL 3
REMARK VINA RESULT:      -6.7     27.777     30.575
REMARK  Name = 51138096
REMARK  8 active torsions:
REMARK  status: ('A' for Active; 'I' for Inactive)
REMARK    1  A    between atoms: N_4  and  C_21
REMARK    2  A    between atoms: N_6  and  C_31
REMARK    3  A    between atoms: C_8  and  C_14
REMARK    4  A    between atoms: C_9  and  C_18
REMARK    5  A    between atoms: C_14  and  C_16
REMARK    6  A    between atoms: C_16  and  C_23
REMARK    7  A    between atoms: C_16  and  C_24
REMARK    8  A    between atoms: C_21  and  C_29
REMARK                            x       y       z     vdW  Elec       q    Type
REMARK                         _______ _______ _______ _____ _____    ______ ____
ROOT
ATOM      3  N   UNL     1      -9.516 -10.750  16.531  0.00  0.00    -0.299 NA
ATOM      4  N   UNL     1      -4.497 -10.644  15.983  0.00  0.00    -0.339 N 
ATOM      8  C   UNL     1      -8.967 -10.715  17.894  0.00  0.00    +0.085 C 
ATOM      9  C   UNL     1      -9.087  -9.653  15.675  0.00  0.00    +0.145 C 
ATOM     10  C   UNL     1      -7.447 -10.863  18.007  0.00  0.00    -0.021 A 
ATOM     11  C   UNL     1      -6.523 -10.692  16.935  0.00  0.00    +0.008 A 
ATOM     12  C   UNL     1      -7.911 -10.059  14.789  0.00  0.00    +0.065 C 
ATOM     13  C   UNL     1      -6.658 -10.351  15.544  0.00  0.00    -0.020 A 
ATOM     15  C   UNL     1      -5.153 -10.843  17.175  0.00  0.00    +0.050 A 
ATOM     17  C   UNL     1      -5.390 -10.342  14.998  0.00  0.00    +0.091 A 
ATOM     19  C   UNL     1      -6.882 -11.115  19.284  0.00  0.00    +0.006 A 
ATOM     20  C   UNL     1      -4.620 -11.138  18.431  0.00  0.00    +0.026 A 
ATOM     22  C   UNL     1      -5.512 -11.258  19.489  0.00  0.00    +0.002 A 
ATOM     33  H   UNL     1      -9.339 -11.652  16.091  0.00  0.00    +0.123 HD
ENDROOT
BRANCH   9  18
ATOM      1  O   UNL     1     -10.727 -10.223  14.073  0.00  0.00    -0.274 OA
ATOM      2  O   UNL     1     -12.321  -5.785  15.564  0.00  0.00    -0.377 OA
ATOM      5  N   UNL     1     -10.789  -8.055  14.900  0.00  0.00    -0.296 N 
ATOM     18  C   UNL     1     -10.271  -9.345  14.809  0.00  0.00    +0.233 C 
ATOM     25  C   UNL     1     -10.196  -6.951  15.665  0.00  0.00    +0.136 C 
ATOM     26  C   UNL     1     -11.946  -7.672  14.093  0.00  0.00    +0.136 C 
ATOM     27  C   UNL     1     -11.276  -6.210  16.443  0.00  0.00    +0.179 C 
ATOM     28  C   UNL     1     -12.953  -6.905  14.939  0.00  0.00    +0.179 C 
ENDBRANCH   9  18
BRANCH   8  14
ATOM     14  C   UNL     1      -9.726 -11.822  18.647  0.00  0.00    +0.026 C 
BRANCH  14  16
ATOM     16  C   UNL     1     -10.374 -11.327  19.944  0.00  0.00    -0.015 C 
ATOM     23  C   UNL     1     -11.151 -10.024  19.755  0.00  0.00    +0.007 C 
ATOM     24  C   UNL     1     -11.307 -12.411  20.488  0.00  0.00    +0.007 C 
ENDBRANCH  14  16
ENDBRANCH   8  14
BRANCH   4  21
ATOM     21  C   UNL     1      -3.065 -10.720  15.787  0.00  0.00    +0.196 C 
BRANCH  21  29
ATOM      6  N   UNL     1      -2.792 -12.355  13.891  0.00  0.00    -0.336 N 
ATOM      7  N   UNL     1      -2.189 -10.258  13.473  0.00  0.00    -0.239 NA
ATOM     29  C   UNL     1      -2.673 -11.082  14.376  0.00  0.00    +0.129 A 
ATOM     30  C   UNL     1      -2.355 -12.341  12.595  0.00  0.00    +0.106 A 
ATOM     31  C   UNL     1      -3.284 -13.511  14.600  0.00  0.00    +0.150 C 
ATOM     32  C   UNL     1      -1.989 -11.036  12.361  0.00  0.00    +0.130 A 
ENDBRANCH  21  29
ENDBRANCH   4  21
TORSDOF 5
ENDMDL
MODEL 4
REMARK VINA RESULT:      -6.6      4.208      7.939
REMARK  Name = 51138096
REMARK  8 active torsions:
REMARK  status: ('A' for Active; 'I' for Inactive)
REMARK    1  A    between atoms: N_4  and  C_21
REMARK    2  A    between atoms: N_6  and  C_31
REMARK    3  A    between atoms: C_8  and  C_14
REMARK    4  A    between atoms: C_9  and  C_18
REMARK    5  A    between atoms: C_14  and  C_16
REMARK    6  A    between atoms: C_16  and  C_23
REMARK    7  A    between atoms: C_16  and  C_24
REMARK    8  A    between atoms: C_21  and  C_29
REMARK                            x       y       z     vdW  Elec       q    Type
REMARK                         _______ _______ _______ _____ _____    ______ ____
ROOT
ATOM      3  N   UNL     1      15.252   9.688  20.287  0.00  0.00    -0.299 NA
ATOM      4  N   UNL     1      19.664   7.560  21.518  0.00  0.00    -0.339 N 
ATOM      8  C   UNL     1      15.163   8.294  19.832  0.00  0.00    +0.085 C 
ATOM      9  C   UNL     1      15.554   9.846  21.703  0.00  0.00    +0.145 C 
ATOM     10  C   UNL     1      16.454   7.475  19.925  0.00  0.00    -0.021 A 
ATOM     11  C   UNL     1      17.595   7.828  20.702  0.00  0.00    +0.008 A 
ATOM     12  C   UNL     1      17.044  10.088  21.935  0.00  0.00    +0.065 C 
ATOM     13  C   UNL     1      17.909   8.925  21.577  0.00  0.00    -0.020 A 
ATOM     15  C   UNL     1      18.711   6.983  20.712  0.00  0.00    +0.050 A 
ATOM     17  C   UNL     1      19.191   8.725  22.048  0.00  0.00    +0.091 A 
ATOM     19  C   UNL     1      16.517   6.226  19.255  0.00  0.00    +0.006 A 
ATOM     20  C   UNL     1      18.770   5.779  20.008  0.00  0.00    +0.026 A 
ATOM     22  C   UNL     1      17.643   5.407  19.287  0.00  0.00    +0.002 A 
ATOM     33  H   UNL     1      15.903  10.218  19.709  0.00  0.00    +0.123 HD
ENDROOT
BRANCH   9  18
ATOM      1  O   UNL     1      15.364  12.146  22.207  0.00  0.00    -0.274 OA
ATOM      2  O   UNL     1      10.627  10.730  22.308  0.00  0.00    -0.377 OA
ATOM      5  N   UNL     1      13.439  10.869  22.429  0.00  0.00    -0.296 N 
ATOM     18  C   UNL     1      14.787  11.059  22.134  0.00  0.00    +0.233 C 
ATOM     25  C   UNL     1      12.752   9.573  22.477  0.00  0.00    +0.136 C 
ATOM     26  C   UNL     1      12.615  12.000  22.853  0.00  0.00    +0.136 C 
ATOM     27  C   UNL     1      11.407   9.662  21.766  0.00  0.00    +0.179 C 
ATOM     28  C   UNL     1      11.280  11.989  22.123  0.00  0.00    +0.179 C 
ENDBRANCH   9  18
BRANCH   8  14
ATOM     14  C   UNL     1      14.627   8.389  18.391  0.00  0.00    +0.026 C 
BRANCH  14  16
ATOM     16  C   UNL     1      13.250   7.739  18.222  0.00  0.00    -0.015 C 
ATOM     23  C   UNL     1      12.815   6.949  19.457  0.00  0.00    +0.007 C 
ATOM     24  C   UNL     1      12.215   8.824  17.911  0.00  0.00    +0.007 C 
ENDBRANCH  14  16
ENDBRANCH   8  14
BRANCH   4  21
ATOM     21  C   UNL     1      20.977   7.017  21.792  0.00  0.00    +0.196 C 
BRANCH  21  29
ATOM      6  N   UNL     1      22.968   8.554  21.908  0.00  0.00    -0.336 N 
ATOM      7  N   UNL     1      22.364   7.882  19.879  0.00  0.00    -0.239 NA
ATOM     29  C   UNL     1      22.096   7.809  21.164  0.00  0.00    +0.129 A 
ATOM     30  C   UNL     1      23.849   9.140  21.042  0.00  0.00    +0.106 A 
ATOM     31  C   UNL     1      22.973   8.707  23.343  0.00  0.00    +0.150 C 
ATOM     32  C   UNL     1      23.456   8.709  19.796  0.00  0.00    +0.130 A 
ENDBRANCH  21  29
ENDBRANCH   4  21
TORSDOF 5
ENDMDL
MODEL 5
REMARK VINA RESULT:      -6.6     27.734     30.557
REMARK  Name = 51138096
REMARK  8 active torsions:
REMARK  status: ('A' for Active; 'I' for Inactive)
REMARK    1  A    between atoms: N_4  and  C_21
REMARK    2  A    between atoms: N_6  and  C_31
REMARK    3  A    between atoms: C_8  and  C_14
REMARK    4  A    between atoms: C_9  and  C_18
REMARK    5  A    between atoms: C_14  and  C_16
REMARK    6  A    between atoms: C_16  and  C_23
REMARK    7  A    between atoms: C_16  and  C_24
REMARK    8  A    between atoms: C_21  and  C_29
REMARK                            x       y       z     vdW  Elec       q    Type
REMARK                         _______ _______ _______ _____ _____    ______ ____
ROOT
ATOM      3  N   UNL     1      -7.216 -11.750  16.448  0.00  0.00    -0.299 NA
ATOM      4  N   UNL     1      -4.081 -10.698  12.630  0.00  0.00    -0.339 N 
ATOM      8  C   UNL     1      -5.974 -11.271  17.071  0.00  0.00    +0.085 C 
ATOM      9  C   UNL     1      -7.813 -10.825  15.495  0.00  0.00    +0.145 C 
ATOM     10  C   UNL     1      -4.789 -11.056  16.126  0.00  0.00    -0.021 A 
ATOM     11  C   UNL     1      -4.880 -10.952  14.707  0.00  0.00    +0.008 A 
ATOM     12  C   UNL     1      -7.422 -11.168  14.059  0.00  0.00    +0.065 C 
ATOM     13  C   UNL     1      -5.969 -10.992  13.769  0.00  0.00    -0.020 A 
ATOM     15  C   UNL     1      -3.718 -10.742  13.956  0.00  0.00    +0.050 A 
ATOM     17  C   UNL     1      -5.432 -10.841  12.507  0.00  0.00    +0.091 A 
ATOM     19  C   UNL     1      -3.499 -10.866  16.685  0.00  0.00    +0.006 A 
ATOM     20  C   UNL     1      -2.449 -10.603  14.523  0.00  0.00    +0.026 A 
ATOM     22  C   UNL     1      -2.363 -10.656  15.908  0.00  0.00    +0.002 A 
ATOM     33  H   UNL     1      -7.082 -12.671  16.033  0.00  0.00    +0.123 HD
ENDROOT
BRANCH   9  18
ATOM      1  O   UNL     1      -9.785 -12.124  15.560  0.00  0.00    -0.274 OA
ATOM      2  O   UNL     1     -11.446  -7.746  17.152  0.00  0.00    -0.377 OA
ATOM      5  N   UNL     1     -10.028  -9.842  15.912  0.00  0.00    -0.296 N 
ATOM     18  C   UNL     1      -9.293 -10.997  15.656  0.00  0.00    +0.233 C 
ATOM     25  C   UNL     1      -9.496  -8.475  15.907  0.00  0.00    +0.136 C 
ATOM     26  C   UNL     1     -11.478  -9.921  16.088  0.00  0.00    +0.136 C 
ATOM     27  C   UNL     1     -10.018  -7.701  17.111  0.00  0.00    +0.179 C 
ATOM     28  C   UNL     1     -11.914  -9.091  17.286  0.00  0.00    +0.179 C 
ENDBRANCH   9  18
BRANCH   8  14
ATOM     14  C   UNL     1      -5.670 -12.302  18.174  0.00  0.00    +0.026 C 
BRANCH  14  16
ATOM     16  C   UNL     1      -6.154 -11.858  19.558  0.00  0.00    -0.015 C 
ATOM     23  C   UNL     1      -6.240 -10.337  19.692  0.00  0.00    +0.007 C 
ATOM     24  C   UNL     1      -7.525 -12.480  19.837  0.00  0.00    +0.007 C 
ENDBRANCH  14  16
ENDBRANCH   8  14
BRANCH   4  21
ATOM     21  C   UNL     1      -3.178 -10.508  11.516  0.00  0.00    +0.196 C 
BRANCH  21  29
ATOM      6  N   UNL     1      -4.171 -10.331   9.208  0.00  0.00    -0.336 N 
ATOM      7  N   UNL     1      -3.724 -12.384   9.929  0.00  0.00    -0.239 NA
ATOM     29  C   UNL     1      -3.685 -11.104  10.226  0.00  0.00    +0.129 A 
ATOM     30  C   UNL     1      -4.544 -11.172   8.197  0.00  0.00    +0.106 A 
ATOM     31  C   UNL     1      -4.279  -8.892   9.187  0.00  0.00    +0.150 C 
ATOM     32  C   UNL     1      -4.258 -12.433   8.665  0.00  0.00    +0.130 A 
ENDBRANCH  21  29
ENDBRANCH   4  21
TORSDOF 5
ENDMDL
MODEL 6
REMARK VINA RESULT:      -6.4     28.333     30.446
REMARK  Name = 51138096
REMARK  8 active torsions:
REMARK  status: ('A' for Active; 'I' for Inactive)
REMARK    1  A    between atoms: N_4  and  C_21
REMARK    2  A    between atoms: N_6  and  C_31
REMARK    3  A    between atoms: C_8  and  C_14
REMARK    4  A    between atoms: C_9  and  C_18
REMARK    5  A    between atoms: C_14  and  C_16
REMARK    6  A    between atoms: C_16  and  C_23
REMARK    7  A    between atoms: C_16  and  C_24
REMARK    8  A    between atoms: C_21  and  C_29
REMARK                            x       y       z     vdW  Elec       q    Type
REMARK                         _______ _______ _______ _____ _____    ______ ____
ROOT
ATOM      3  N   UNL     1      -5.853 -12.052  15.172  0.00  0.00    -0.299 NA
ATOM      4  N   UNL     1      -5.198  -9.045  11.168  0.00  0.00    -0.339 N 
ATOM      8  C   UNL     1      -4.406 -12.041  14.913  0.00  0.00    +0.085 C 
ATOM      9  C   UNL     1      -6.443 -10.737  15.379  0.00  0.00    +0.145 C 
ATOM     10  C   UNL     1      -3.961 -11.340  13.627  0.00  0.00    -0.021 A 
ATOM     11  C   UNL     1      -4.759 -10.436  12.866  0.00  0.00    +0.008 A 
ATOM     12  C   UNL     1      -7.073 -10.196  14.098  0.00  0.00    +0.065 C 
ATOM     13  C   UNL     1      -6.089  -9.910  13.013  0.00  0.00    -0.020 A 
ATOM     15  C   UNL     1      -4.227  -9.851  11.712  0.00  0.00    +0.050 A 
ATOM     17  C   UNL     1      -6.319  -9.068  11.944  0.00  0.00    +0.091 A 
ATOM     19  C   UNL     1      -2.629 -11.529  13.176  0.00  0.00    +0.006 A 
ATOM     20  C   UNL     1      -2.927 -10.086  11.259  0.00  0.00    +0.026 A 
ATOM     22  C   UNL     1      -2.130 -10.929  12.023  0.00  0.00    +0.002 A 
ATOM     33  H   UNL     1      -6.348 -12.568  14.445  0.00  0.00    +0.123 HD
ENDROOT
BRANCH   9  18
ATOM      1  O   UNL     1      -8.674 -11.152  16.035  0.00  0.00    -0.274 OA
ATOM      2  O   UNL     1      -6.298 -11.544  20.355  0.00  0.00    -0.377 OA
ATOM      5  N   UNL     1      -7.118 -10.893  17.739  0.00  0.00    -0.296 N 
ATOM     18  C   UNL     1      -7.515 -10.945  16.405  0.00  0.00    +0.233 C 
ATOM     25  C   UNL     1      -5.780 -10.525  18.215  0.00  0.00    +0.136 C 
ATOM     26  C   UNL     1      -8.101 -11.090  18.804  0.00  0.00    +0.136 C 
ATOM     27  C   UNL     1      -5.327 -11.486  19.307  0.00  0.00    +0.179 C 
ATOM     28  C   UNL     1      -7.551 -12.030  19.866  0.00  0.00    +0.179 C 
ENDBRANCH   9  18
BRANCH   8  14
ATOM     14  C   UNL     1      -3.994 -13.524  14.951  0.00  0.00    +0.026 C 
BRANCH  14  16
ATOM     16  C   UNL     1      -4.959 -14.433  14.185  0.00  0.00    -0.015 C 
ATOM     23  C   UNL     1      -4.423 -14.837  12.810  0.00  0.00    +0.007 C 
ATOM     24  C   UNL     1      -5.242 -15.686  15.018  0.00  0.00    +0.007 C 
ENDBRANCH  14  16
ENDBRANCH   8  14
BRANCH   4  21
ATOM     21  C   UNL     1      -5.063  -8.262   9.958  0.00  0.00    +0.196 C 
BRANCH  21  29
ATOM      6  N   UNL     1      -6.802  -8.758   8.205  0.00  0.00    -0.336 N 
ATOM      7  N   UNL     1      -4.882  -9.861   8.023  0.00  0.00    -0.239 NA
ATOM     29  C   UNL     1      -5.556  -8.977   8.725  0.00  0.00    +0.129 A 
ATOM     30  C   UNL     1      -6.931  -9.554   7.101  0.00  0.00    +0.106 A 
ATOM     31  C   UNL     1      -7.808  -7.857   8.714  0.00  0.00    +0.150 C 
ATOM     32  C   UNL     1      -5.734 -10.224   7.009  0.00  0.00    +0.130 A 
ENDBRANCH  21  29
ENDBRANCH   4  21
TORSDOF 5
ENDMDL
MODEL 7
REMARK VINA RESULT:      -6.4     27.846     31.155
REMARK  Name = 51138096
REMARK  8 active torsions:
REMARK  status: ('A' for Active; 'I' for Inactive)
REMARK    1  A    between atoms: N_4  and  C_21
REMARK    2  A    between atoms: N_6  and  C_31
REMARK    3  A    between atoms: C_8  and  C_14
REMARK    4  A    between atoms: C_9  and  C_18
REMARK    5  A    between atoms: C_14  and  C_16
REMARK    6  A    between atoms: C_16  and  C_23
REMARK    7  A    between atoms: C_16  and  C_24
REMARK    8  A    between atoms: C_21  and  C_29
REMARK                            x       y       z     vdW  Elec       q    Type
REMARK                         _______ _______ _______ _____ _____    ______ ____
ROOT
ATOM      3  N   UNL     1     -16.056   4.124  32.203  0.00  0.00    -0.299 NA
ATOM      4  N   UNL     1     -13.620   8.080  34.184  0.00  0.00    -0.339 N 
ATOM      8  C   UNL     1     -16.204   5.213  31.227  0.00  0.00    +0.085 C 
ATOM      9  C   UNL     1     -14.679   3.797  32.544  0.00  0.00    +0.145 C 
ATOM     10  C   UNL     1     -15.704   6.589  31.678  0.00  0.00    -0.021 A 
ATOM     11  C   UNL     1     -14.831   6.824  32.780  0.00  0.00    +0.008 A 
ATOM     12  C   UNL     1     -14.242   4.485  33.836  0.00  0.00    +0.065 C 
ATOM     13  C   UNL     1     -14.176   5.973  33.736  0.00  0.00    -0.020 A 
ATOM     15  C   UNL     1     -14.437   8.133  33.079  0.00  0.00    +0.050 A 
ATOM     17  C   UNL     1     -13.451   6.786  34.583  0.00  0.00    +0.091 A 
ATOM     19  C   UNL     1     -16.062   7.727  30.910  0.00  0.00    +0.006 A 
ATOM     20  C   UNL     1     -14.838   9.246  32.339  0.00  0.00    +0.026 A 
ATOM     22  C   UNL     1     -15.651   9.017  31.235  0.00  0.00    +0.002 A 
ATOM     33  H   UNL     1     -16.610   4.308  33.039  0.00  0.00    +0.123 HD
ENDROOT
BRANCH   9  18
ATOM      1  O   UNL     1     -14.712   1.861  33.897  0.00  0.00    -0.274 OA
ATOM      2  O   UNL     1     -15.246  -0.092  29.385  0.00  0.00    -0.377 OA
ATOM      5  N   UNL     1     -14.609   1.526  31.602  0.00  0.00    -0.296 N 
ATOM     18  C   UNL     1     -14.668   2.313  32.750  0.00  0.00    +0.233 C 
ATOM     25  C   UNL     1     -14.428   2.027  30.235  0.00  0.00    +0.136 C 
ATOM     26  C   UNL     1     -14.599   0.068  31.713  0.00  0.00    +0.136 C 
ATOM     27  C   UNL     1     -15.390   1.327  29.284  0.00  0.00    +0.179 C 
ATOM     28  C   UNL     1     -15.558  -0.548  30.704  0.00  0.00    +0.179 C 
ENDBRANCH   9  18
BRANCH   8  14
ATOM     14  C   UNL     1     -17.702   5.216  30.872  0.00  0.00    +0.026 C 
BRANCH  14  16
ATOM     16  C   UNL     1     -17.977   4.766  29.434  0.00  0.00    -0.015 C 
ATOM     23  C   UNL     1     -16.721   4.777  28.563  0.00  0.00    +0.007 C 
ATOM     24  C   UNL     1     -18.581   3.360  29.453  0.00  0.00    +0.007 C 
ENDBRANCH  14  16
ENDBRANCH   8  14
BRANCH   4  21
ATOM     21  C   UNL     1     -13.002   9.217  34.831  0.00  0.00    +0.196 C 
BRANCH  21  29
ATOM      6  N   UNL     1     -10.536   9.579  35.186  0.00  0.00    -0.336 N 
ATOM      7  N   UNL     1     -11.253   9.701  33.087  0.00  0.00    -0.239 NA
ATOM     29  C   UNL     1     -11.605   9.501  34.338  0.00  0.00    +0.129 A 
ATOM     30  C   UNL     1      -9.430   9.846  34.427  0.00  0.00    +0.106 A 
ATOM     31  C   UNL     1     -10.551   9.414  36.620  0.00  0.00    +0.150 C 
ATOM     32  C   UNL     1      -9.898   9.916  33.136  0.00  0.00    +0.130 A 
ENDBRANCH  21  29
ENDBRANCH   4  21
TORSDOF 5
ENDMDL
MODEL 8
REMARK VINA RESULT:      -6.3      3.772      7.036
REMARK  Name = 51138096
REMARK  8 active torsions:
REMARK  status: ('A' for Active; 'I' for Inactive)
REMARK    1  A    between atoms: N_4  and  C_21
REMARK    2  A    between atoms: N_6  and  C_31
REMARK    3  A    between atoms: C_8  and  C_14
REMARK    4  A    between atoms: C_9  and  C_18
REMARK    5  A    between atoms: C_14  and  C_16
REMARK    6  A    between atoms: C_16  and  C_23
REMARK    7  A    between atoms: C_16  and  C_24
REMARK    8  A    between atoms: C_21  and  C_29
REMARK                            x       y       z     vdW  Elec       q    Type
REMARK                         _______ _______ _______ _____ _____    ______ ____
ROOT
ATOM      3  N   UNL     1      13.220  10.167  20.447  0.00  0.00    -0.299 NA
ATOM      4  N   UNL     1      18.127   9.323  21.297  0.00  0.00    -0.339 N 
ATOM      8  C   UNL     1      13.355   8.711  20.595  0.00  0.00    +0.085 C 
ATOM      9  C   UNL     1      13.716  10.940  21.577  0.00  0.00    +0.145 C 
ATOM     10  C   UNL     1      14.787   8.176  20.680  0.00  0.00    -0.021 A 
ATOM     11  C   UNL     1      15.941   8.962  20.964  0.00  0.00    +0.008 A 
ATOM     12  C   UNL     1      15.137  11.442  21.334  0.00  0.00    +0.065 C 
ATOM     13  C   UNL     1      16.157  10.355  21.251  0.00  0.00    -0.020 A 
ATOM     15  C   UNL     1      17.196   8.347  21.027  0.00  0.00    +0.050 A 
ATOM     17  C   UNL     1      17.512  10.532  21.439  0.00  0.00    +0.091 A 
ATOM     19  C   UNL     1      15.000   6.780  20.544  0.00  0.00    +0.006 A 
ATOM     20  C   UNL     1      17.391   6.976  20.844  0.00  0.00    +0.026 A 
ATOM     22  C   UNL     1      16.264   6.199  20.614  0.00  0.00    +0.002 A 
ATOM     33  H   UNL     1      13.637  10.484  19.573  0.00  0.00    +0.123 HD
ENDROOT
BRANCH   9  18
ATOM      1  O   UNL     1      12.569  12.803  20.685  0.00  0.00    -0.274 OA
ATOM      2  O   UNL     1      10.515  12.449  25.170  0.00  0.00    -0.377 OA
ATOM      5  N   UNL     1      12.232  12.353  22.937  0.00  0.00    -0.296 N 
ATOM     18  C   UNL     1      12.792  12.115  21.684  0.00  0.00    +0.233 C 
ATOM     25  C   UNL     1      12.571  11.637  24.172  0.00  0.00    +0.136 C 
ATOM     26  C   UNL     1      11.315  13.476  23.128  0.00  0.00    +0.136 C 
ATOM     27  C   UNL     1      11.305  11.280  24.940  0.00  0.00    +0.179 C 
ATOM     28  C   UNL     1      10.101  13.040  23.935  0.00  0.00    +0.179 C 
ENDBRANCH   9  18
BRANCH   8  14
ATOM     14  C   UNL     1      12.576   8.126  19.402  0.00  0.00    +0.026 C 
BRANCH  14  16
ATOM     16  C   UNL     1      12.776   8.922  18.109  0.00  0.00    -0.015 C 
ATOM     23  C   UNL     1      14.009   8.472  17.324  0.00  0.00    +0.007 C 
ATOM     24  C   UNL     1      11.528   8.784  17.233  0.00  0.00    +0.007 C 
ENDBRANCH  14  16
ENDBRANCH   8  14
BRANCH   4  21
ATOM     21  C   UNL     1      19.552   9.114  21.433  0.00  0.00    +0.196 C 
BRANCH  21  29
ATOM      6  N   UNL     1      20.341   9.627  23.769  0.00  0.00    -0.336 N 
ATOM      7  N   UNL     1      20.020   7.481  23.291  0.00  0.00    -0.239 NA
ATOM     29  C   UNL     1      19.967   8.710  22.826  0.00  0.00    +0.129 A 
ATOM     30  C   UNL     1      20.653   8.939  24.908  0.00  0.00    +0.106 A 
ATOM     31  C   UNL     1      20.403  11.060  23.609  0.00  0.00    +0.150 C 
ATOM     32  C   UNL     1      20.446   7.617  24.589  0.00  0.00    +0.130 A 
ENDBRANCH  21  29
ENDBRANCH   4  21
TORSDOF 5
ENDMDL
MODEL 9
REMARK VINA RESULT:      -6.3     27.017     29.751
REMARK  Name = 51138096
REMARK  8 active torsions:
REMARK  status: ('A' for Active; 'I' for Inactive)
REMARK    1  A    between atoms: N_4  and  C_21
REMARK    2  A    between atoms: N_6  and  C_31
REMARK    3  A    between atoms: C_8  and  C_14
REMARK    4  A    between atoms: C_9  and  C_18
REMARK    5  A    between atoms: C_14  and  C_16
REMARK    6  A    between atoms: C_16  and  C_23
REMARK    7  A    between atoms: C_16  and  C_24
REMARK    8  A    between atoms: C_21  and  C_29
REMARK                            x       y       z     vdW  Elec       q    Type
REMARK                         _______ _______ _______ _____ _____    ______ ____
ROOT
ATOM      3  N   UNL     1      -4.731  -9.921  14.796  0.00  0.00    -0.299 NA
ATOM      4  N   UNL     1      -8.062 -10.623  18.527  0.00  0.00    -0.339 N 
ATOM      8  C   UNL     1      -4.052 -10.774  15.782  0.00  0.00    +0.085 C 
ATOM      9  C   UNL     1      -5.995 -10.451  14.303  0.00  0.00    +0.145 C 
ATOM     10  C   UNL     1      -4.791 -10.986  17.106  0.00  0.00    -0.021 A 
ATOM     11  C   UNL     1      -6.175 -10.724  17.325  0.00  0.00    +0.008 A 
ATOM     12  C   UNL     1      -7.184  -9.856  15.053  0.00  0.00    +0.065 C 
ATOM     13  C   UNL     1      -7.245 -10.242  16.493  0.00  0.00    -0.020 A 
ATOM     15  C   UNL     1      -6.734 -10.974  18.583  0.00  0.00    +0.050 A 
ATOM     17  C   UNL     1      -8.381 -10.188  17.274  0.00  0.00    +0.091 A 
ATOM     19  C   UNL     1      -4.085 -11.559  18.195  0.00  0.00    +0.006 A 
ATOM     20  C   UNL     1      -6.009 -11.495  19.657  0.00  0.00    +0.026 A 
ATOM     22  C   UNL     1      -4.672 -11.797  19.435  0.00  0.00    +0.002 A 
ATOM     33  H   UNL     1      -4.843  -8.973  15.152  0.00  0.00    +0.123 HD
ENDROOT
BRANCH   9  18
ATOM      1  O   UNL     1      -6.625  -8.976  12.568  0.00  0.00    -0.274 OA
ATOM      2  O   UNL     1      -3.672 -12.120  10.149  0.00  0.00    -0.377 OA
ATOM      5  N   UNL     1      -5.462 -10.885  11.941  0.00  0.00    -0.296 N 
ATOM     18  C   UNL     1      -6.061 -10.032  12.865  0.00  0.00    +0.233 C 
ATOM     25  C   UNL     1      -4.897 -12.205  12.242  0.00  0.00    +0.136 C 
ATOM     26  C   UNL     1      -5.477 -10.548  10.518  0.00  0.00    +0.136 C 
ATOM     27  C   UNL     1      -3.548 -12.370  11.551  0.00  0.00    +0.179 C 
ATOM     28  C   UNL     1      -4.105 -10.779   9.903  0.00  0.00    +0.179 C 
ENDBRANCH   9  18
BRANCH   8  14
ATOM     14  C   UNL     1      -2.671 -10.122  15.974  0.00  0.00    +0.026 C 
BRANCH  14  16
ATOM     16  C   UNL     1      -1.587 -10.742  15.087  0.00  0.00    -0.015 C 
ATOM     23  C   UNL     1      -1.875 -12.204  14.740  0.00  0.00    +0.007 C 
ATOM     24  C   UNL     1      -1.457  -9.922  13.801  0.00  0.00    +0.007 C 
ENDBRANCH  14  16
ENDBRANCH   8  14
BRANCH   4  21
ATOM     21  C   UNL     1      -9.004 -10.714  19.621  0.00  0.00    +0.196 C 
BRANCH  21  29
ATOM      6  N   UNL     1     -11.023 -12.160  19.200  0.00  0.00    -0.336 N 
ATOM      7  N   UNL     1      -9.276 -13.163  20.137  0.00  0.00    -0.239 NA
ATOM     29  C   UNL     1      -9.744 -12.028  19.666  0.00  0.00    +0.129 A 
ATOM     30  C   UNL     1     -11.394 -13.462  19.387  0.00  0.00    +0.106 A 
ATOM     31  C   UNL     1     -11.845 -11.126  18.618  0.00  0.00    +0.150 C 
ATOM     32  C   UNL     1     -10.300 -14.061  19.965  0.00  0.00    +0.130 A 
ENDBRANCH  21  29
ENDBRANCH   4  21
TORSDOF 5
ENDMDL
MODEL 10
REMARK VINA RESULT:      -6.2     14.638     19.349
REMARK  Name = 51138096
REMARK  8 active torsions:
REMARK  status: ('A' for Active; 'I' for Inactive)
REMARK    1  A    between atoms: N_4  and  C_21
REMARK    2  A    between atoms: N_6  and  C_31
REMARK    3  A    between atoms: C_8  and  C_14
REMARK    4  A    between atoms: C_9  and  C_18
REMARK    5  A    between atoms: C_14  and  C_16
REMARK    6  A    between atoms: C_16  and  C_23
REMARK    7  A    between atoms: C_16  and  C_24
REMARK    8  A    between atoms: C_21  and  C_29
REMARK                            x       y       z     vdW  Elec       q    Type
REMARK                         _______ _______ _______ _____ _____    ______ ____
ROOT
ATOM      3  N   UNL     1      11.744   5.278   0.299  0.00  0.00    -0.299 NA
ATOM      4  N   UNL     1       8.941   6.715   4.246  0.00  0.00    -0.339 N 
ATOM      8  C   UNL     1      11.252   6.622  -0.030  0.00  0.00    +0.085 C 
ATOM      9  C   UNL     1      12.485   5.192   1.550  0.00  0.00    +0.145 C 
ATOM     10  C   UNL     1      10.219   7.213   0.935  0.00  0.00    -0.021 A 
ATOM     11  C   UNL     1       9.963   6.737   2.254  0.00  0.00    +0.008 A 
ATOM     12  C   UNL     1      11.595   4.719   2.697  0.00  0.00    +0.065 C 
ATOM     13  C   UNL     1      10.514   5.681   3.060  0.00  0.00    -0.020 A 
ATOM     15  C   UNL     1       8.999   7.376   3.042  0.00  0.00    +0.050 A 
ATOM     17  C   UNL     1       9.850   5.699   4.271  0.00  0.00    +0.091 A 
ATOM     19  C   UNL     1       9.502   8.370   0.538  0.00  0.00    +0.006 A 
ATOM     20  C   UNL     1       8.270   8.487   2.615  0.00  0.00    +0.026 A 
ATOM     22  C   UNL     1       8.550   8.984   1.348  0.00  0.00    +0.002 A 
ATOM     33  H   UNL     1      10.987   4.596   0.271  0.00  0.00    +0.123 HD
ENDROOT
BRANCH   9  18
ATOM      1  O   UNL     1      13.313   2.979   1.518  0.00  0.00    -0.274 OA
ATOM      2  O   UNL     1      16.948   5.416  -0.785  0.00  0.00    -0.377 OA
ATOM      5  N   UNL     1      14.775   4.649   0.836  0.00  0.00    -0.296 N 
ATOM     18  C   UNL     1      13.553   4.170   1.304  0.00  0.00    +0.233 C 
ATOM     25  C   UNL     1      15.136   6.063   0.692  0.00  0.00    +0.136 C 
ATOM     26  C   UNL     1      15.870   3.719   0.565  0.00  0.00    +0.136 C 
ATOM     27  C   UNL     1      15.831   6.297  -0.644  0.00  0.00    +0.179 C 
ATOM     28  C   UNL     1      16.530   4.048  -0.766  0.00  0.00    +0.179 C 
ENDBRANCH   9  18
BRANCH   8  14
ATOM     14  C   UNL     1      10.713   6.498  -1.468  0.00  0.00    +0.026 C 
BRANCH  14  16
ATOM     16  C   UNL     1       9.648   5.407  -1.614  0.00  0.00    -0.015 C 
ATOM     23  C   UNL     1       8.344   5.932  -2.217  0.00  0.00    +0.007 C 
ATOM     24  C   UNL     1      10.201   4.276  -2.485  0.00  0.00    +0.007 C 
ENDBRANCH  14  16
ENDBRANCH   8  14
BRANCH   4  21
ATOM     21  C   UNL     1       8.063   7.047   5.348  0.00  0.00    +0.196 C 
BRANCH  21  29
ATOM      6  N   UNL     1       9.224   7.735   7.474  0.00  0.00    -0.336 N 
ATOM      7  N   UNL     1       8.660   9.377   6.088  0.00  0.00    -0.239 NA
ATOM     29  C   UNL     1       8.642   8.078   6.285  0.00  0.00    +0.129 A 
ATOM     30  C   UNL     1       9.640   8.890   8.074  0.00  0.00    +0.106 A 
ATOM     31  C   UNL     1       9.378   6.405   8.012  0.00  0.00    +0.150 C 
ATOM     32  C   UNL     1       9.282   9.890   7.200  0.00  0.00    +0.130 A 
ENDBRANCH  21  29
ENDBRANCH   4  21
TORSDOF 5
ENDMDL
