MODEL 1
REMARK VINA RESULT:      -6.8      0.000      0.000
REMARK  Name = 38030943
REMARK  14 active torsions:
REMARK  status: ('A' for Active; 'I' for Inactive)
REMARK    1  A    between atoms: O_2  and  C_23
REMARK    2  A    between atoms: O_2  and  C_26
REMARK    3  A    between atoms: N_5  and  C_16
REMARK    4  A    between atoms: N_5  and  C_22
REMARK    5  A    between atoms: N_8  and  C_31
REMARK    6  A    between atoms: C_9  and  C_13
REMARK    7  A    between atoms: C_10  and  C_16
REMARK    8  A    between atoms: C_12  and  C_17
REMARK    9  A    between atoms: C_13  and  C_18
REMARK   10  A    between atoms: C_13  and  C_19
REMARK   11  A    between atoms: C_14  and  C_20
REMARK   12  A    between atoms: C_17  and  C_21
REMARK   13  A    between atoms: C_22  and  C_23
REMARK   14  A    between atoms: C_24  and  C_25
REMARK                            x       y       z     vdW  Elec       q    Type
REMARK                         _______ _______ _______ _____ _____    ______ ____
ROOT
ATOM      9  C   UNL     1      13.006   9.785  20.164  0.00  0.00    +0.000 C 
ATOM     10  C   UNL     1      11.554   9.744  20.700  0.00  0.00    +0.029 C 
ATOM     11  C   UNL     1      13.301   8.537  19.318  0.00  0.00    +0.012 C 
ATOM     12  C   UNL     1      13.111   7.234  20.117  0.00  0.00    +0.024 C 
ATOM     14  C   UNL     1      11.810   7.233  20.893  0.00  0.00    -0.073 C 
ATOM     15  C   UNL     1      11.121   8.363  21.133  0.00  0.00    -0.023 C 
ATOM     20  C   UNL     1      11.295   5.897  21.351  0.00  0.00    +0.039 C 
ENDROOT
BRANCH   9  13
ATOM     13  C   UNL     1      13.273  11.047  19.338  0.00  0.00    -0.013 C 
ATOM     18  C   UNL     1      14.413  11.854  19.951  0.00  0.00    +0.007 C 
ATOM     19  C   UNL     1      13.587  10.678  17.892  0.00  0.00    +0.007 C 
ENDBRANCH   9  13
BRANCH  10  16
ATOM     16  C   UNL     1      11.365  10.726  21.862  0.00  0.00    +0.088 C 
BRANCH  16   5
ATOM      5  N   UNL     1      11.913  10.178  23.091  0.00  0.00    -0.313 NA
ATOM     32  H   UNL     1      11.808   9.164  23.112  0.00  0.00    +0.122 HD
BRANCH   5  22
ATOM     22  C   UNL     1      11.258  10.752  24.260  0.00  0.00    +0.109 C 
BRANCH  22  23
ATOM     23  C   UNL     1      10.937  12.220  24.029  0.00  0.00    +0.174 C 
BRANCH  23   2
ATOM      2  O   UNL     1      10.168  12.697  25.125  0.00  0.00    -0.382 OA
ATOM     26  C   UNL     1      10.747  13.860  25.701  0.00  0.00    +0.194 C 
ENDBRANCH  23   2
ENDBRANCH  22  23
ENDBRANCH   5  22
ENDBRANCH  16   5
ENDBRANCH  10  16
BRANCH  12  17
ATOM     17  C   UNL     1      14.304   6.975  21.045  0.00  0.00    +0.105 C 
BRANCH  17  21
ATOM      1  O   UNL     1      16.706   6.549  20.944  0.00  0.00    -0.420 OA
ATOM      6  N   UNL     1      15.632   6.203  19.012  0.00  0.00    -0.112 NA
ATOM      7  N   UNL     1      16.971   5.926  18.812  0.00  0.00    -0.107 NA
ATOM     21  C   UNL     1      15.522   6.562  20.270  0.00  0.00    +0.218 A 
ATOM     24  C   UNL     1      17.559   6.141  19.966  0.00  0.00    +0.248 A 
BRANCH  24  25
ATOM     25  C   UNL     1      18.936   6.015  20.347  0.00  0.00    +0.039 A 
ATOM     27  C   UNL     1      19.588   7.079  20.970  0.00  0.00    +0.015 A 
ATOM     28  C   UNL     1      19.623   4.829  20.094  0.00  0.00    +0.015 A 
ATOM     29  C   UNL     1      20.927   6.957  21.340  0.00  0.00    +0.033 A 
ATOM     30  C   UNL     1      20.963   4.706  20.463  0.00  0.00    +0.033 A 
ATOM     31  C   UNL     1      21.614   5.770  21.087  0.00  0.00    +0.126 A 
BRANCH  31   8
ATOM      3  O   UNL     1      23.766   6.589  21.222  0.00  0.00    -0.126 OA
ATOM      4  O   UNL     1      23.356   4.591  22.034  0.00  0.00    -0.126 OA
ATOM      8  N   UNL     1      22.977   5.644  21.465  0.00  0.00    +0.056 N 
ENDBRANCH  31   8
ENDBRANCH  24  25
ENDBRANCH  17  21
ENDBRANCH  12  17
TORSDOF 10
ENDMDL
MODEL 2
REMARK VINA RESULT:      -6.3     27.606     29.560
REMARK  Name = 38030943
REMARK  14 active torsions:
REMARK  status: ('A' for Active; 'I' for Inactive)
REMARK    1  A    between atoms: O_2  and  C_23
REMARK    2  A    between atoms: O_2  and  C_26
REMARK    3  A    between atoms: N_5  and  C_16
REMARK    4  A    between atoms: N_5  and  C_22
REMARK    5  A    between atoms: N_8  and  C_31
REMARK    6  A    between atoms: C_9  and  C_13
REMARK    7  A    between atoms: C_10  and  C_16
REMARK    8  A    between atoms: C_12  and  C_17
REMARK    9  A    between atoms: C_13  and  C_18
REMARK   10  A    between atoms: C_13  and  C_19
REMARK   11  A    between atoms: C_14  and  C_20
REMARK   12  A    between atoms: C_17  and  C_21
REMARK   13  A    between atoms: C_22  and  C_23
REMARK   14  A    between atoms: C_24  and  C_25
REMARK                            x       y       z     vdW  Elec       q    Type
REMARK                         _______ _______ _______ _____ _____    ______ ____
ROOT
ATOM      9  C   UNL     1      -6.404 -11.047  16.345  0.00  0.00    +0.000 C 
ATOM     10  C   UNL     1      -6.896 -11.144  17.811  0.00  0.00    +0.029 C 
ATOM     11  C   UNL     1      -5.338 -12.118  16.066  0.00  0.00    +0.012 C 
ATOM     12  C   UNL     1      -4.120 -11.986  17.000  0.00  0.00    +0.024 C 
ATOM     14  C   UNL     1      -4.537 -11.807  18.446  0.00  0.00    -0.073 C 
ATOM     15  C   UNL     1      -5.784 -11.443  18.790  0.00  0.00    -0.023 C 
ATOM     20  C   UNL     1      -3.497 -12.099  19.492  0.00  0.00    +0.039 C 
ENDROOT
BRANCH   9  13
ATOM     13  C   UNL     1      -7.556 -11.189  15.347  0.00  0.00    -0.013 C 
ATOM     18  C   UNL     1      -7.692  -9.923  14.507  0.00  0.00    +0.007 C 
ATOM     19  C   UNL     1      -7.341 -12.409  14.457  0.00  0.00    +0.007 C 
ENDBRANCH   9  13
BRANCH  10  16
ATOM     16  C   UNL     1      -7.620  -9.862  18.236  0.00  0.00    +0.088 C 
BRANCH  16   5
ATOM      5  N   UNL     1      -8.969 -10.160  18.686  0.00  0.00    -0.313 NA
ATOM     32  H   UNL     1      -9.108 -11.167  18.766  0.00  0.00    +0.122 HD
BRANCH   5  22
ATOM     22  C   UNL     1      -9.961  -9.610  17.771  0.00  0.00    +0.109 C 
BRANCH  22  23
ATOM     23  C   UNL     1      -9.534  -8.235  17.278  0.00  0.00    +0.174 C 
BRANCH  23   2
ATOM      2  O   UNL     1     -10.697  -7.454  17.038  0.00  0.00    -0.382 OA
ATOM     26  C   UNL     1     -11.843  -8.273  16.844  0.00  0.00    +0.194 C 
ENDBRANCH  23   2
ENDBRANCH  22  23
ENDBRANCH   5  22
ENDBRANCH  16   5
ENDBRANCH  10  16
BRANCH  12  17
ATOM     17  C   UNL     1      -3.198 -10.848  16.550  0.00  0.00    +0.105 C 
BRANCH  17  21
ATOM      1  O   UNL     1      -3.751 -10.480  14.200  0.00  0.00    -0.420 OA
ATOM      6  N   UNL     1      -1.780 -11.487  14.531  0.00  0.00    -0.112 NA
ATOM      7  N   UNL     1      -1.964 -11.343  13.169  0.00  0.00    -0.107 NA
ATOM     21  C   UNL     1      -2.847 -10.969  15.095  0.00  0.00    +0.218 A 
ATOM     24  C   UNL     1      -3.126 -10.751  13.023  0.00  0.00    +0.248 A 
BRANCH  24  25
ATOM     25  C   UNL     1      -3.825 -10.353  11.835  0.00  0.00    +0.039 A 
ATOM     27  C   UNL     1      -5.217 -10.416  11.790  0.00  0.00    +0.015 A 
ATOM     28  C   UNL     1      -3.112  -9.903  10.725  0.00  0.00    +0.015 A 
ATOM     29  C   UNL     1      -5.897 -10.030  10.635  0.00  0.00    +0.033 A 
ATOM     30  C   UNL     1      -3.791  -9.516   9.569  0.00  0.00    +0.033 A 
ATOM     31  C   UNL     1      -5.183  -9.579   9.525  0.00  0.00    +0.126 A 
BRANCH  31   8
ATOM      3  O   UNL     1      -5.503  -9.640   7.242  0.00  0.00    -0.126 OA
ATOM      4  O   UNL     1      -6.841  -8.389   8.451  0.00  0.00    -0.126 OA
ATOM      8  N   UNL     1      -5.875  -9.184   8.350  0.00  0.00    +0.056 N 
ENDBRANCH  31   8
ENDBRANCH  24  25
ENDBRANCH  17  21
ENDBRANCH  12  17
TORSDOF 10
ENDMDL
MODEL 3
REMARK VINA RESULT:      -6.2     27.307     31.524
REMARK  Name = 38030943
REMARK  14 active torsions:
REMARK  status: ('A' for Active; 'I' for Inactive)
REMARK    1  A    between atoms: O_2  and  C_23
REMARK    2  A    between atoms: O_2  and  C_26
REMARK    3  A    between atoms: N_5  and  C_16
REMARK    4  A    between atoms: N_5  and  C_22
REMARK    5  A    between atoms: N_8  and  C_31
REMARK    6  A    between atoms: C_9  and  C_13
REMARK    7  A    between atoms: C_10  and  C_16
REMARK    8  A    between atoms: C_12  and  C_17
REMARK    9  A    between atoms: C_13  and  C_18
REMARK   10  A    between atoms: C_13  and  C_19
REMARK   11  A    between atoms: C_14  and  C_20
REMARK   12  A    between atoms: C_17  and  C_21
REMARK   13  A    between atoms: C_22  and  C_23
REMARK   14  A    between atoms: C_24  and  C_25
REMARK                            x       y       z     vdW  Elec       q    Type
REMARK                         _______ _______ _______ _____ _____    ______ ____
ROOT
ATOM      9  C   UNL     1      -5.650 -10.701  17.811  0.00  0.00    +0.000 C 
ATOM     10  C   UNL     1      -4.948 -11.000  16.463  0.00  0.00    +0.029 C 
ATOM     11  C   UNL     1      -7.147 -11.038  17.722  0.00  0.00    +0.012 C 
ATOM     12  C   UNL     1      -7.858 -10.241  16.611  0.00  0.00    +0.024 C 
ATOM     14  C   UNL     1      -7.080 -10.268  15.312  0.00  0.00    -0.073 C 
ATOM     15  C   UNL     1      -5.784 -10.623  15.262  0.00  0.00    -0.023 C 
ATOM     20  C   UNL     1      -7.839  -9.921  14.061  0.00  0.00    +0.039 C 
ENDROOT
BRANCH   9  13
ATOM     13  C   UNL     1      -5.013 -11.473  18.969  0.00  0.00    -0.013 C 
ATOM     18  C   UNL     1      -5.908 -11.417  20.203  0.00  0.00    +0.007 C 
ATOM     19  C   UNL     1      -4.744 -12.918  18.561  0.00  0.00    +0.007 C 
ENDBRANCH   9  13
BRANCH  10  16
ATOM     16  C   UNL     1      -3.588 -10.298  16.380  0.00  0.00    +0.088 C 
BRANCH  16   5
ATOM      5  N   UNL     1      -2.530 -11.257  16.118  0.00  0.00    -0.313 NA
ATOM     32  H   UNL     1      -1.827 -11.230  16.856  0.00  0.00    +0.122 HD
BRANCH   5  22
ATOM     22  C   UNL     1      -1.888 -10.995  14.836  0.00  0.00    +0.109 C 
BRANCH  22  23
ATOM     23  C   UNL     1      -1.634 -12.294  14.087  0.00  0.00    +0.174 C 
BRANCH  23   2
ATOM      2  O   UNL     1      -1.842 -12.068  12.698  0.00  0.00    -0.382 OA
ATOM     26  C   UNL     1      -1.833 -10.681  12.389  0.00  0.00    +0.194 C 
ENDBRANCH  23   2
ENDBRANCH  22  23
ENDBRANCH   5  22
ENDBRANCH  16   5
ENDBRANCH  10  16
BRANCH  12  17
ATOM     17  C   UNL     1      -8.135  -8.801  17.056  0.00  0.00    +0.105 C 
BRANCH  17  21
ATOM      1  O   UNL     1     -10.048  -7.655  16.062  0.00  0.00    -0.420 OA
ATOM      6  N   UNL     1     -10.557  -8.917  17.839  0.00  0.00    -0.112 NA
ATOM      7  N   UNL     1     -11.722  -8.332  17.382  0.00  0.00    -0.107 NA
ATOM     21  C   UNL     1      -9.605  -8.494  17.039  0.00  0.00    +0.218 A 
ATOM     24  C   UNL     1     -11.378  -7.605  16.345  0.00  0.00    +0.248 A 
BRANCH  24  25
ATOM     25  C   UNL     1     -12.172  -6.782  15.480  0.00  0.00    +0.039 A 
ATOM     27  C   UNL     1     -11.559  -5.841  14.654  0.00  0.00    +0.015 A 
ATOM     28  C   UNL     1     -13.560  -6.923  15.465  0.00  0.00    +0.015 A 
ATOM     29  C   UNL     1     -12.332  -5.040  13.812  0.00  0.00    +0.033 A 
ATOM     30  C   UNL     1     -14.334  -6.122  14.623  0.00  0.00    +0.033 A 
ATOM     31  C   UNL     1     -13.719  -5.182  13.798  0.00  0.00    +0.126 A 
BRANCH  31   8
ATOM      3  O   UNL     1     -14.973  -4.868  11.888  0.00  0.00    -0.126 OA
ATOM      4  O   UNL     1     -14.714  -3.173  13.258  0.00  0.00    -0.126 OA
ATOM      8  N   UNL     1     -14.506  -4.369  12.940  0.00  0.00    +0.056 N 
ENDBRANCH  31   8
ENDBRANCH  24  25
ENDBRANCH  17  21
ENDBRANCH  12  17
TORSDOF 10
ENDMDL
MODEL 4
REMARK VINA RESULT:      -6.2     17.578     20.986
REMARK  Name = 38030943
REMARK  14 active torsions:
REMARK  status: ('A' for Active; 'I' for Inactive)
REMARK    1  A    between atoms: O_2  and  C_23
REMARK    2  A    between atoms: O_2  and  C_26
REMARK    3  A    between atoms: N_5  and  C_16
REMARK    4  A    between atoms: N_5  and  C_22
REMARK    5  A    between atoms: N_8  and  C_31
REMARK    6  A    between atoms: C_9  and  C_13
REMARK    7  A    between atoms: C_10  and  C_16
REMARK    8  A    between atoms: C_12  and  C_17
REMARK    9  A    between atoms: C_13  and  C_18
REMARK   10  A    between atoms: C_13  and  C_19
REMARK   11  A    between atoms: C_14  and  C_20
REMARK   12  A    between atoms: C_17  and  C_21
REMARK   13  A    between atoms: C_22  and  C_23
REMARK   14  A    between atoms: C_24  and  C_25
REMARK                            x       y       z     vdW  Elec       q    Type
REMARK                         _______ _______ _______ _____ _____    ______ ____
ROOT
ATOM      9  C   UNL     1      13.252   6.400  -0.355  0.00  0.00    +0.000 C 
ATOM     10  C   UNL     1      13.816   4.977  -0.591  0.00  0.00    +0.029 C 
ATOM     11  C   UNL     1      13.043   6.652   1.146  0.00  0.00    +0.012 C 
ATOM     12  C   UNL     1      12.078   5.632   1.780  0.00  0.00    +0.024 C 
ATOM     14  C   UNL     1      12.413   4.211   1.371  0.00  0.00    -0.073 C 
ATOM     15  C   UNL     1      13.201   3.938   0.317  0.00  0.00    -0.023 C 
ATOM     20  C   UNL     1      11.855   3.110   2.231  0.00  0.00    +0.039 C 
ENDROOT
BRANCH   9  13
ATOM     13  C   UNL     1      14.167   7.480  -0.940  0.00  0.00    -0.013 C 
ATOM     18  C   UNL     1      13.635   8.869  -0.601  0.00  0.00    +0.007 C 
ATOM     19  C   UNL     1      15.592   7.305  -0.425  0.00  0.00    +0.007 C 
ENDBRANCH   9  13
BRANCH  10  16
ATOM     16  C   UNL     1      13.638   4.548  -2.052  0.00  0.00    +0.088 C 
BRANCH  16   5
ATOM      5  N   UNL     1      12.229   4.447  -2.389  0.00  0.00    -0.313 NA
ATOM     32  H   UNL     1      11.736   3.866  -1.712  0.00  0.00    +0.122 HD
BRANCH   5  22
ATOM     22  C   UNL     1      12.047   3.888  -3.723  0.00  0.00    +0.109 C 
BRANCH  22  23
ATOM     23  C   UNL     1      10.572   3.847  -4.092  0.00  0.00    +0.174 C 
BRANCH  23   2
ATOM      2  O   UNL     1       9.881   3.064  -3.127  0.00  0.00    -0.382 OA
ATOM     26  C   UNL     1       9.292   1.912  -3.716  0.00  0.00    +0.194 C 
ENDBRANCH  23   2
ENDBRANCH  22  23
ENDBRANCH   5  22
ENDBRANCH  16   5
ENDBRANCH  10  16
BRANCH  12  17
ATOM     17  C   UNL     1      10.621   5.970   1.447  0.00  0.00    +0.105 C 
BRANCH  17  21
ATOM      1  O   UNL     1      10.143   5.832   3.837  0.00  0.00    -0.420 OA
ATOM      6  N   UNL     1       8.999   7.428   2.764  0.00  0.00    -0.112 NA
ATOM      7  N   UNL     1       8.634   7.462   4.097  0.00  0.00    -0.107 NA
ATOM     21  C   UNL     1       9.881   6.462   2.658  0.00  0.00    +0.218 A 
ATOM     24  C   UNL     1       9.326   6.514   4.684  0.00  0.00    +0.248 A 
BRANCH  24  25
ATOM     25  C   UNL     1       9.353   6.096   6.055  0.00  0.00    +0.039 A 
ATOM     27  C   UNL     1       9.836   4.830   6.390  0.00  0.00    +0.015 A 
ATOM     28  C   UNL     1       8.897   6.954   7.056  0.00  0.00    +0.015 A 
ATOM     29  C   UNL     1       9.862   4.423   7.724  0.00  0.00    +0.033 A 
ATOM     30  C   UNL     1       8.923   6.546   8.390  0.00  0.00    +0.033 A 
ATOM     31  C   UNL     1       9.406   5.282   8.723  0.00  0.00    +0.126 A 
BRANCH  31   8
ATOM      3  O   UNL     1       8.369   4.491  10.625  0.00  0.00    -0.126 OA
ATOM      4  O   UNL     1      10.526   4.889  10.701  0.00  0.00    -0.126 OA
ATOM      8  N   UNL     1       9.435   4.868  10.081  0.00  0.00    +0.056 N 
ENDBRANCH  31   8
ENDBRANCH  24  25
ENDBRANCH  17  21
ENDBRANCH  12  17
TORSDOF 10
ENDMDL
MODEL 5
REMARK VINA RESULT:      -6.1      2.979      5.080
REMARK  Name = 38030943
REMARK  14 active torsions:
REMARK  status: ('A' for Active; 'I' for Inactive)
REMARK    1  A    between atoms: O_2  and  C_23
REMARK    2  A    between atoms: O_2  and  C_26
REMARK    3  A    between atoms: N_5  and  C_16
REMARK    4  A    between atoms: N_5  and  C_22
REMARK    5  A    between atoms: N_8  and  C_31
REMARK    6  A    between atoms: C_9  and  C_13
REMARK    7  A    between atoms: C_10  and  C_16
REMARK    8  A    between atoms: C_12  and  C_17
REMARK    9  A    between atoms: C_13  and  C_18
REMARK   10  A    between atoms: C_13  and  C_19
REMARK   11  A    between atoms: C_14  and  C_20
REMARK   12  A    between atoms: C_17  and  C_21
REMARK   13  A    between atoms: C_22  and  C_23
REMARK   14  A    between atoms: C_24  and  C_25
REMARK                            x       y       z     vdW  Elec       q    Type
REMARK                         _______ _______ _______ _____ _____    ______ ____
ROOT
ATOM      9  C   UNL     1      16.001   8.946  21.560  0.00  0.00    +0.000 C 
ATOM     10  C   UNL     1      14.989   8.131  20.717  0.00  0.00    +0.029 C 
ATOM     11  C   UNL     1      17.329   9.101  20.802  0.00  0.00    +0.012 C 
ATOM     12  C   UNL     1      17.964   7.741  20.455  0.00  0.00    +0.024 C 
ATOM     14  C   UNL     1      16.953   6.783  19.861  0.00  0.00    -0.073 C 
ATOM     15  C   UNL     1      15.628   6.979  19.976  0.00  0.00    -0.023 C 
ATOM     20  C   UNL     1      17.501   5.613  19.090  0.00  0.00    +0.039 C 
ENDROOT
BRANCH   9  13
ATOM     13  C   UNL     1      15.451  10.326  21.931  0.00  0.00    -0.013 C 
ATOM     18  C   UNL     1      14.745  10.272  23.282  0.00  0.00    +0.007 C 
ATOM     19  C   UNL     1      16.574  11.358  21.949  0.00  0.00    +0.007 C 
ENDBRANCH   9  13
BRANCH  10  16
ATOM     16  C   UNL     1      13.842   7.605  21.586  0.00  0.00    +0.088 C 
BRANCH  16   5
ATOM      5  N   UNL     1      13.191   6.474  20.948  0.00  0.00    -0.313 NA
ATOM     32  H   UNL     1      13.503   6.376  19.982  0.00  0.00    +0.122 HD
BRANCH   5  22
ATOM     22  C   UNL     1      11.740   6.623  20.969  0.00  0.00    +0.109 C 
BRANCH  22  23
ATOM     23  C   UNL     1      11.343   8.061  20.674  0.00  0.00    +0.174 C 
BRANCH  23   2
ATOM      2  O   UNL     1      10.912   8.147  19.322  0.00  0.00    -0.382 OA
ATOM     26  C   UNL     1      11.877   8.799  18.508  0.00  0.00    +0.194 C 
ENDBRANCH  23   2
ENDBRANCH  22  23
ENDBRANCH   5  22
ENDBRANCH  16   5
ENDBRANCH  10  16
BRANCH  12  17
ATOM     17  C   UNL     1      18.651   7.125  21.679  0.00  0.00    +0.105 C 
BRANCH  17  21
ATOM      1  O   UNL     1      20.427   5.471  21.942  0.00  0.00    -0.420 OA
ATOM      6  N   UNL     1      20.931   7.142  20.542  0.00  0.00    -0.112 NA
ATOM      7  N   UNL     1      22.016   6.288  20.596  0.00  0.00    -0.107 NA
ATOM     21  C   UNL     1      20.027   6.627  21.342  0.00  0.00    +0.218 A 
ATOM     24  C   UNL     1      21.677   5.328  21.424  0.00  0.00    +0.248 A 
BRANCH  24  25
ATOM     25  C   UNL     1      22.408   4.172  21.858  0.00  0.00    +0.039 A 
ATOM     27  C   UNL     1      22.538   3.899  23.220  0.00  0.00    +0.015 A 
ATOM     28  C   UNL     1      22.989   3.321  20.919  0.00  0.00    +0.015 A 
ATOM     29  C   UNL     1      23.248   2.776  23.642  0.00  0.00    +0.033 A 
ATOM     30  C   UNL     1      23.700   2.197  21.341  0.00  0.00    +0.033 A 
ATOM     31  C   UNL     1      23.829   1.925  22.702  0.00  0.00    +0.126 A 
BRANCH  31   8
ATOM      3  O   UNL     1      24.253   0.250  24.229  0.00  0.00    -0.126 OA
ATOM      4  O   UNL     1      25.466   0.329  22.401  0.00  0.00    -0.126 OA
ATOM      8  N   UNL     1      24.551   0.780  23.132  0.00  0.00    +0.056 N 
ENDBRANCH  31   8
ENDBRANCH  24  25
ENDBRANCH  17  21
ENDBRANCH  12  17
TORSDOF 10
ENDMDL
MODEL 6
REMARK VINA RESULT:      -6.1      3.166      5.591
REMARK  Name = 38030943
REMARK  14 active torsions:
REMARK  status: ('A' for Active; 'I' for Inactive)
REMARK    1  A    between atoms: O_2  and  C_23
REMARK    2  A    between atoms: O_2  and  C_26
REMARK    3  A    between atoms: N_5  and  C_16
REMARK    4  A    between atoms: N_5  and  C_22
REMARK    5  A    between atoms: N_8  and  C_31
REMARK    6  A    between atoms: C_9  and  C_13
REMARK    7  A    between atoms: C_10  and  C_16
REMARK    8  A    between atoms: C_12  and  C_17
REMARK    9  A    between atoms: C_13  and  C_18
REMARK   10  A    between atoms: C_13  and  C_19
REMARK   11  A    between atoms: C_14  and  C_20
REMARK   12  A    between atoms: C_17  and  C_21
REMARK   13  A    between atoms: C_22  and  C_23
REMARK   14  A    between atoms: C_24  and  C_25
REMARK                            x       y       z     vdW  Elec       q    Type
REMARK                         _______ _______ _______ _____ _____    ______ ____
ROOT
ATOM      9  C   UNL     1      13.303  12.661  21.765  0.00  0.00    +0.000 C 
ATOM     10  C   UNL     1      13.431  14.065  22.406  0.00  0.00    +0.029 C 
ATOM     11  C   UNL     1      11.827  12.327  21.496  0.00  0.00    +0.012 C 
ATOM     12  C   UNL     1      10.980  12.357  22.782  0.00  0.00    +0.024 C 
ATOM     14  C   UNL     1      11.254  13.598  23.608  0.00  0.00    -0.073 C 
ATOM     15  C   UNL     1      12.347  14.356  23.417  0.00  0.00    -0.023 C 
ATOM     20  C   UNL     1      10.217  13.973  24.631  0.00  0.00    +0.039 C 
ENDROOT
BRANCH   9  13
ATOM     13  C   UNL     1      14.104  12.553  20.464  0.00  0.00    -0.013 C 
ATOM     18  C   UNL     1      15.079  11.382  20.535  0.00  0.00    +0.007 C 
ATOM     19  C   UNL     1      13.165  12.403  19.272  0.00  0.00    +0.007 C 
ENDBRANCH   9  13
BRANCH  10  16
ATOM     16  C   UNL     1      14.804  14.251  23.061  0.00  0.00    +0.088 C 
BRANCH  16   5
ATOM      5  N   UNL     1      14.776  13.812  24.445  0.00  0.00    -0.313 NA
ATOM     32  H   UNL     1      15.152  14.532  25.060  0.00  0.00    +0.122 HD
BRANCH   5  22
ATOM     22  C   UNL     1      15.540  12.583  24.622  0.00  0.00    +0.109 C 
BRANCH  22  23
ATOM     23  C   UNL     1      14.628  11.436  25.031  0.00  0.00    +0.174 C 
BRANCH  23   2
ATOM      2  O   UNL     1      14.333  11.559  26.416  0.00  0.00    -0.382 OA
ATOM     26  C   UNL     1      15.502  11.413  27.212  0.00  0.00    +0.194 C 
ENDBRANCH  23   2
ENDBRANCH  22  23
ENDBRANCH   5  22
ENDBRANCH  16   5
ENDBRANCH  10  16
BRANCH  12  17
ATOM     17  C   UNL     1      11.191  11.087  23.614  0.00  0.00    +0.105 C 
BRANCH  17  21
ATOM      1  O   UNL     1      12.645   9.581  22.357  0.00  0.00    -0.420 OA
ATOM      6  N   UNL     1      10.473   9.049  22.264  0.00  0.00    -0.112 NA
ATOM      7  N   UNL     1      11.173   8.121  21.515  0.00  0.00    -0.107 NA
ATOM     21  C   UNL     1      11.371   9.881  22.737  0.00  0.00    +0.218 A 
ATOM     24  C   UNL     1      12.435   8.471  21.598  0.00  0.00    +0.248 A 
BRANCH  24  25
ATOM     25  C   UNL     1      13.606   7.875  21.023  0.00  0.00    +0.039 A 
ATOM     27  C   UNL     1      14.637   7.425  21.847  0.00  0.00    +0.015 A 
ATOM     28  C   UNL     1      13.713   7.745  19.638  0.00  0.00    +0.015 A 
ATOM     29  C   UNL     1      15.776   6.845  21.288  0.00  0.00    +0.033 A 
ATOM     30  C   UNL     1      14.852   7.165  19.078  0.00  0.00    +0.033 A 
ATOM     31  C   UNL     1      15.883   6.715  19.903  0.00  0.00    +0.126 A 
BRANCH  31   8
ATOM      3  O   UNL     1      18.153   6.308  19.884  0.00  0.00    -0.126 OA
ATOM      4  O   UNL     1      16.920   5.428  18.295  0.00  0.00    -0.126 OA
ATOM      8  N   UNL     1      17.040   6.123  19.333  0.00  0.00    +0.056 N 
ENDBRANCH  31   8
ENDBRANCH  24  25
ENDBRANCH  17  21
ENDBRANCH  12  17
TORSDOF 10
ENDMDL
MODEL 7
REMARK VINA RESULT:      -6.0     27.334     30.147
REMARK  Name = 38030943
REMARK  14 active torsions:
REMARK  status: ('A' for Active; 'I' for Inactive)
REMARK    1  A    between atoms: O_2  and  C_23
REMARK    2  A    between atoms: O_2  and  C_26
REMARK    3  A    between atoms: N_5  and  C_16
REMARK    4  A    between atoms: N_5  and  C_22
REMARK    5  A    between atoms: N_8  and  C_31
REMARK    6  A    between atoms: C_9  and  C_13
REMARK    7  A    between atoms: C_10  and  C_16
REMARK    8  A    between atoms: C_12  and  C_17
REMARK    9  A    between atoms: C_13  and  C_18
REMARK   10  A    between atoms: C_13  and  C_19
REMARK   11  A    between atoms: C_14  and  C_20
REMARK   12  A    between atoms: C_17  and  C_21
REMARK   13  A    between atoms: C_22  and  C_23
REMARK   14  A    between atoms: C_24  and  C_25
REMARK                            x       y       z     vdW  Elec       q    Type
REMARK                         _______ _______ _______ _____ _____    ______ ____
ROOT
ATOM      9  C   UNL     1      -5.999 -10.117   9.943  0.00  0.00    +0.000 C 
ATOM     10  C   UNL     1      -5.347  -9.284   8.811  0.00  0.00    +0.029 C 
ATOM     11  C   UNL     1      -5.501  -9.637  11.316  0.00  0.00    +0.012 C 
ATOM     12  C   UNL     1      -3.970  -9.742  11.450  0.00  0.00    +0.024 C 
ATOM     14  C   UNL     1      -3.258  -9.178  10.236  0.00  0.00    -0.073 C 
ATOM     15  C   UNL     1      -3.893  -8.968   9.070  0.00  0.00    -0.023 C 
ATOM     20  C   UNL     1      -1.808  -8.819  10.408  0.00  0.00    +0.039 C 
ENDROOT
BRANCH   9  13
ATOM     13  C   UNL     1      -7.528 -10.048   9.893  0.00  0.00    -0.013 C 
ATOM     18  C   UNL     1      -8.112 -11.425   9.595  0.00  0.00    +0.007 C 
ATOM     19  C   UNL     1      -8.079  -9.499  11.205  0.00  0.00    +0.007 C 
ENDBRANCH   9  13
BRANCH  10  16
ATOM     16  C   UNL     1      -5.483  -9.991   7.458  0.00  0.00    +0.088 C 
BRANCH  16   5
ATOM      5  N   UNL     1      -6.266  -9.187   6.536  0.00  0.00    -0.313 NA
ATOM     32  H   UNL     1      -7.140  -8.890   6.968  0.00  0.00    +0.122 HD
BRANCH   5  22
ATOM     22  C   UNL     1      -6.563  -9.927   5.315  0.00  0.00    +0.109 C 
BRANCH  22  23
ATOM     23  C   UNL     1      -7.728  -9.291   4.571  0.00  0.00    +0.174 C 
BRANCH  23   2
ATOM      2  O   UNL     1      -8.595  -8.680   5.518  0.00  0.00    -0.382 OA
ATOM     26  C   UNL     1      -9.086  -7.434   5.045  0.00  0.00    +0.194 C 
ENDBRANCH  23   2
ENDBRANCH  22  23
ENDBRANCH   5  22
ENDBRANCH  16   5
ENDBRANCH  10  16
BRANCH  12  17
ATOM     17  C   UNL     1      -3.537 -11.188  11.718  0.00  0.00    +0.105 C 
BRANCH  17  21
ATOM      1  O   UNL     1      -4.144 -11.229  14.082  0.00  0.00    -0.420 OA
ATOM      6  N   UNL     1      -1.994 -11.701  13.679  0.00  0.00    -0.112 NA
ATOM      7  N   UNL     1      -2.197 -11.760  15.045  0.00  0.00    -0.107 NA
ATOM     21  C   UNL     1      -3.157 -11.389  13.156  0.00  0.00    +0.218 A 
ATOM     24  C   UNL     1      -3.464 -11.478  15.234  0.00  0.00    +0.248 A 
BRANCH  24  25
ATOM     25  C   UNL     1      -4.229 -11.393  16.444  0.00  0.00    +0.039 A 
ATOM     27  C   UNL     1      -5.571 -11.016  16.397  0.00  0.00    +0.015 A 
ATOM     28  C   UNL     1      -3.630 -11.687  17.669  0.00  0.00    +0.015 A 
ATOM     29  C   UNL     1      -6.315 -10.934  17.575  0.00  0.00    +0.033 A 
ATOM     30  C   UNL     1      -4.374 -11.605  18.847  0.00  0.00    +0.033 A 
ATOM     31  C   UNL     1      -5.715 -11.228  18.799  0.00  0.00    +0.126 A 
BRANCH  31   8
ATOM      3  O   UNL     1      -7.686 -10.835  19.930  0.00  0.00    -0.126 OA
ATOM      4  O   UNL     1      -5.908 -11.389  21.092  0.00  0.00    -0.126 OA
ATOM      8  N   UNL     1      -6.473 -11.146  19.997  0.00  0.00    +0.056 N 
ENDBRANCH  31   8
ENDBRANCH  24  25
ENDBRANCH  17  21
ENDBRANCH  12  17
TORSDOF 10
ENDMDL
MODEL 8
REMARK VINA RESULT:      -6.0      3.391      9.769
REMARK  Name = 38030943
REMARK  14 active torsions:
REMARK  status: ('A' for Active; 'I' for Inactive)
REMARK    1  A    between atoms: O_2  and  C_23
REMARK    2  A    between atoms: O_2  and  C_26
REMARK    3  A    between atoms: N_5  and  C_16
REMARK    4  A    between atoms: N_5  and  C_22
REMARK    5  A    between atoms: N_8  and  C_31
REMARK    6  A    between atoms: C_9  and  C_13
REMARK    7  A    between atoms: C_10  and  C_16
REMARK    8  A    between atoms: C_12  and  C_17
REMARK    9  A    between atoms: C_13  and  C_18
REMARK   10  A    between atoms: C_13  and  C_19
REMARK   11  A    between atoms: C_14  and  C_20
REMARK   12  A    between atoms: C_17  and  C_21
REMARK   13  A    between atoms: C_22  and  C_23
REMARK   14  A    between atoms: C_24  and  C_25
REMARK                            x       y       z     vdW  Elec       q    Type
REMARK                         _______ _______ _______ _____ _____    ______ ____
ROOT
ATOM      9  C   UNL     1      22.381   5.358  22.761  0.00  0.00    +0.000 C 
ATOM     10  C   UNL     1      23.299   6.585  22.993  0.00  0.00    +0.029 C 
ATOM     11  C   UNL     1      21.730   5.432  21.371  0.00  0.00    +0.012 C 
ATOM     12  C   UNL     1      20.893   6.711  21.187  0.00  0.00    +0.024 C 
ATOM     14  C   UNL     1      21.640   7.945  21.650  0.00  0.00    -0.073 C 
ATOM     15  C   UNL     1      22.721   7.869  22.446  0.00  0.00    -0.023 C 
ATOM     20  C   UNL     1      21.143   9.270  21.140  0.00  0.00    +0.039 C 
ENDROOT
BRANCH   9  13
ATOM     13  C   UNL     1      23.145   4.039  22.907  0.00  0.00    -0.013 C 
ATOM     18  C   UNL     1      22.294   2.874  22.413  0.00  0.00    +0.007 C 
ATOM     19  C   UNL     1      24.467   4.104  22.148  0.00  0.00    +0.007 C 
ENDBRANCH   9  13
BRANCH  10  16
ATOM     16  C   UNL     1      23.618   6.762  24.482  0.00  0.00    +0.088 C 
BRANCH  16   5
ATOM      5  N   UNL     1      22.534   7.450  25.161  0.00  0.00    -0.313 NA
ATOM     32  H   UNL     1      22.897   8.179  25.773  0.00  0.00    +0.122 HD
BRANCH   5  22
ATOM     22  C   UNL     1      21.732   6.520  25.947  0.00  0.00    +0.109 C 
BRANCH  22  23
ATOM     23  C   UNL     1      20.330   7.068  26.161  0.00  0.00    +0.174 C 
BRANCH  23   2
ATOM      2  O   UNL     1      19.953   6.841  27.514  0.00  0.00    -0.382 OA
ATOM     26  C   UNL     1      20.556   5.663  28.031  0.00  0.00    +0.194 C 
ENDBRANCH  23   2
ENDBRANCH  22  23
ENDBRANCH   5  22
ENDBRANCH  16   5
ENDBRANCH  10  16
BRANCH  12  17
ATOM     17  C   UNL     1      19.538   6.592  21.894  0.00  0.00    +0.105 C 
BRANCH  17  21
ATOM      1  O   UNL     1      17.202   6.925  21.270  0.00  0.00    -0.420 OA
ATOM      6  N   UNL     1      18.421   5.860  19.725  0.00  0.00    -0.112 NA
ATOM      7  N   UNL     1      17.131   5.978  19.244  0.00  0.00    -0.107 NA
ATOM     21  C   UNL     1      18.417   6.425  20.909  0.00  0.00    +0.218 A 
ATOM     24  C   UNL     1      16.455   6.605  20.178  0.00  0.00    +0.248 A 
BRANCH  24  25
ATOM     25  C   UNL     1      15.077   6.999  20.224  0.00  0.00    +0.039 A 
ATOM     27  C   UNL     1      14.494   7.360  21.438  0.00  0.00    +0.015 A 
ATOM     28  C   UNL     1      14.319   7.022  19.053  0.00  0.00    +0.015 A 
ATOM     29  C   UNL     1      13.153   7.743  21.483  0.00  0.00    +0.033 A 
ATOM     30  C   UNL     1      12.978   7.405  19.097  0.00  0.00    +0.033 A 
ATOM     31  C   UNL     1      12.396   7.765  20.312  0.00  0.00    +0.126 A 
BRANCH  31   8
ATOM      3  O   UNL     1      10.458   8.486  19.290  0.00  0.00    -0.126 OA
ATOM      4  O   UNL     1      10.436   8.162  21.461  0.00  0.00    -0.126 OA
ATOM      8  N   UNL     1      11.032   8.157  20.356  0.00  0.00    +0.056 N 
ENDBRANCH  31   8
ENDBRANCH  24  25
ENDBRANCH  17  21
ENDBRANCH  12  17
TORSDOF 10
ENDMDL
MODEL 9
REMARK VINA RESULT:      -5.9     14.841     17.103
REMARK  Name = 38030943
REMARK  14 active torsions:
REMARK  status: ('A' for Active; 'I' for Inactive)
REMARK    1  A    between atoms: O_2  and  C_23
REMARK    2  A    between atoms: O_2  and  C_26
REMARK    3  A    between atoms: N_5  and  C_16
REMARK    4  A    between atoms: N_5  and  C_22
REMARK    5  A    between atoms: N_8  and  C_31
REMARK    6  A    between atoms: C_9  and  C_13
REMARK    7  A    between atoms: C_10  and  C_16
REMARK    8  A    between atoms: C_12  and  C_17
REMARK    9  A    between atoms: C_13  and  C_18
REMARK   10  A    between atoms: C_13  and  C_19
REMARK   11  A    between atoms: C_14  and  C_20
REMARK   12  A    between atoms: C_17  and  C_21
REMARK   13  A    between atoms: C_22  and  C_23
REMARK   14  A    between atoms: C_24  and  C_25
REMARK                            x       y       z     vdW  Elec       q    Type
REMARK                         _______ _______ _______ _____ _____    ______ ____
ROOT
ATOM      9  C   UNL     1      10.708   6.411   6.250  0.00  0.00    +0.000 C 
ATOM     10  C   UNL     1      10.501   6.435   4.715  0.00  0.00    +0.029 C 
ATOM     11  C   UNL     1      11.082   7.810   6.763  0.00  0.00    +0.012 C 
ATOM     12  C   UNL     1      12.365   8.349   6.104  0.00  0.00    +0.024 C 
ATOM     14  C   UNL     1      12.348   8.161   4.600  0.00  0.00    -0.073 C 
ATOM     15  C   UNL     1      11.499   7.312   3.996  0.00  0.00    -0.023 C 
ATOM     20  C   UNL     1      13.301   9.008   3.801  0.00  0.00    +0.039 C 
ENDROOT
BRANCH   9  13
ATOM     13  C   UNL     1       9.465   5.904   6.986  0.00  0.00    -0.013 C 
ATOM     18  C   UNL     1       9.843   4.811   7.980  0.00  0.00    +0.007 C 
ATOM     19  C   UNL     1       8.758   7.057   7.692  0.00  0.00    +0.007 C 
ENDBRANCH   9  13
BRANCH  10  16
ATOM     16  C   UNL     1      10.548   5.020   4.129  0.00  0.00    +0.088 C 
BRANCH  16   5
ATOM      5  N   UNL     1      11.572   4.923   3.104  0.00  0.00    -0.313 NA
ATOM     32  H   UNL     1      11.456   5.657   2.407  0.00  0.00    +0.122 HD
BRANCH   5  22
ATOM     22  C   UNL     1      11.534   3.624   2.444  0.00  0.00    +0.109 C 
BRANCH  22  23
ATOM     23  C   UNL     1      12.235   3.685   1.096  0.00  0.00    +0.174 C 
BRANCH  23   2
ATOM      2  O   UNL     1      13.377   2.839   1.137  0.00  0.00    -0.382 OA
ATOM     26  C   UNL     1      14.511   3.521   1.656  0.00  0.00    +0.194 C 
ENDBRANCH  23   2
ENDBRANCH  22  23
ENDBRANCH   5  22
ENDBRANCH  16   5
ENDBRANCH  10  16
BRANCH  12  17
ATOM     17  C   UNL     1      13.614   7.711   6.722  0.00  0.00    +0.105 C 
BRANCH  17  21
ATOM      1  O   UNL     1      15.988   7.883   6.179  0.00  0.00    -0.420 OA
ATOM      6  N   UNL     1      14.977   9.852   6.509  0.00  0.00    -0.112 NA
ATOM      7  N   UNL     1      16.305  10.097   6.212  0.00  0.00    -0.107 NA
ATOM     21  C   UNL     1      14.837   8.548   6.478  0.00  0.00    +0.218 A 
ATOM     24  C   UNL     1      16.855   8.920   6.027  0.00  0.00    +0.248 A 
BRANCH  24  25
ATOM     25  C   UNL     1      18.205   8.566   5.696  0.00  0.00    +0.039 A 
ATOM     27  C   UNL     1      18.518   8.138   4.406  0.00  0.00    +0.015 A 
ATOM     28  C   UNL     1      19.205   8.648   6.665  0.00  0.00    +0.015 A 
ATOM     29  C   UNL     1      19.831   7.793   4.084  0.00  0.00    +0.033 A 
ATOM     30  C   UNL     1      20.518   8.303   6.343  0.00  0.00    +0.033 A 
ATOM     31  C   UNL     1      20.830   7.876   5.053  0.00  0.00    +0.126 A 
BRANCH  31   8
ATOM      3  O   UNL     1      23.110   8.149   5.271  0.00  0.00    -0.126 OA
ATOM      4  O   UNL     1      22.370   6.604   3.899  0.00  0.00    -0.126 OA
ATOM      8  N   UNL     1      22.167   7.527   4.725  0.00  0.00    +0.056 N 
ENDBRANCH  31   8
ENDBRANCH  24  25
ENDBRANCH  17  21
ENDBRANCH  12  17
TORSDOF 10
ENDMDL
MODEL 10
REMARK VINA RESULT:      -5.9     27.718     31.034
REMARK  Name = 38030943
REMARK  14 active torsions:
REMARK  status: ('A' for Active; 'I' for Inactive)
REMARK    1  A    between atoms: O_2  and  C_23
REMARK    2  A    between atoms: O_2  and  C_26
REMARK    3  A    between atoms: N_5  and  C_16
REMARK    4  A    between atoms: N_5  and  C_22
REMARK    5  A    between atoms: N_8  and  C_31
REMARK    6  A    between atoms: C_9  and  C_13
REMARK    7  A    between atoms: C_10  and  C_16
REMARK    8  A    between atoms: C_12  and  C_17
REMARK    9  A    between atoms: C_13  and  C_18
REMARK   10  A    between atoms: C_13  and  C_19
REMARK   11  A    between atoms: C_14  and  C_20
REMARK   12  A    between atoms: C_17  and  C_21
REMARK   13  A    between atoms: C_22  and  C_23
REMARK   14  A    between atoms: C_24  and  C_25
REMARK                            x       y       z     vdW  Elec       q    Type
REMARK                         _______ _______ _______ _____ _____    ______ ____
ROOT
ATOM      9  C   UNL     1     -11.533  -9.733  16.387  0.00  0.00    +0.000 C 
ATOM     10  C   UNL     1     -12.978  -9.181  16.320  0.00  0.00    +0.029 C 
ATOM     11  C   UNL     1     -11.471 -10.965  17.303  0.00  0.00    +0.012 C 
ATOM     12  C   UNL     1     -11.942 -10.650  18.736  0.00  0.00    +0.024 C 
ATOM     14  C   UNL     1     -13.238  -9.864  18.743  0.00  0.00    -0.073 C 
ATOM     15  C   UNL     1     -13.692  -9.225  17.651  0.00  0.00    -0.023 C 
ATOM     20  C   UNL     1     -14.024  -9.867  20.025  0.00  0.00    +0.039 C 
ENDROOT
BRANCH   9  13
ATOM     13  C   UNL     1     -10.995 -10.092  14.999  0.00  0.00    -0.013 C 
ATOM     18  C   UNL     1      -9.471 -10.157  15.019  0.00  0.00    +0.007 C 
ATOM     19  C   UNL     1     -11.587 -11.415  14.525  0.00  0.00    +0.007 C 
ENDBRANCH   9  13
BRANCH  10  16
ATOM     16  C   UNL     1     -12.998  -7.747  15.778  0.00  0.00    +0.088 C 
BRANCH  16   5
ATOM      5  N   UNL     1     -11.882  -6.983  16.308  0.00  0.00    -0.313 NA
ATOM     32  H   UNL     1     -12.139  -6.528  17.183  0.00  0.00    +0.122 HD
BRANCH   5  22
ATOM     22  C   UNL     1     -11.437  -5.973  15.355  0.00  0.00    +0.109 C 
BRANCH  22  23
ATOM     23  C   UNL     1     -12.546  -5.639  14.369  0.00  0.00    +0.174 C 
BRANCH  23   2
ATOM      2  O   UNL     1     -12.066  -4.659  13.457  0.00  0.00    -0.382 OA
ATOM     26  C   UNL     1     -12.401  -4.988  12.116  0.00  0.00    +0.194 C 
ENDBRANCH  23   2
ENDBRANCH  22  23
ENDBRANCH   5  22
ENDBRANCH  16   5
ENDBRANCH  10  16
BRANCH  12  17
ATOM     17  C   UNL     1     -10.852  -9.917  19.527  0.00  0.00    +0.105 C 
BRANCH  17  21
ATOM      1  O   UNL     1      -8.597 -10.295  18.672  0.00  0.00    -0.420 OA
ATOM      6  N   UNL     1      -9.222 -11.728  20.273  0.00  0.00    -0.112 NA
ATOM      7  N   UNL     1      -7.936 -12.055  19.884  0.00  0.00    -0.107 NA
ATOM     21  C   UNL     1      -9.568 -10.695  19.540  0.00  0.00    +0.218 A 
ATOM     24  C   UNL     1      -7.613 -11.193  18.949  0.00  0.00    +0.248 A 
BRANCH  24  25
ATOM     25  C   UNL     1      -6.404 -11.054  18.189  0.00  0.00    +0.039 A 
ATOM     27  C   UNL     1      -5.259 -11.757  18.564  0.00  0.00    +0.015 A 
ATOM     28  C   UNL     1      -6.374 -10.215  17.076  0.00  0.00    +0.015 A 
ATOM     29  C   UNL     1      -4.084 -11.621  17.825  0.00  0.00    +0.033 A 
ATOM     30  C   UNL     1      -5.198 -10.079  16.336  0.00  0.00    +0.033 A 
ATOM     31  C   UNL     1      -4.054 -10.782  16.711  0.00  0.00    +0.126 A 
BRANCH  31   8
ATOM      3  O   UNL     1      -1.755 -10.766  16.541  0.00  0.00    -0.126 OA
ATOM      4  O   UNL     1      -2.939 -10.410  14.727  0.00  0.00    -0.126 OA
ATOM      8  N   UNL     1      -2.859 -10.646  15.957  0.00  0.00    +0.056 N 
ENDBRANCH  31   8
ENDBRANCH  24  25
ENDBRANCH  17  21
ENDBRANCH  12  17
TORSDOF 10
ENDMDL
