MODEL 1
REMARK VINA RESULT:      -8.4      0.000      0.000
REMARK  Name = 11886270
REMARK  9 active torsions:
REMARK  status: ('A' for Active; 'I' for Inactive)
REMARK    1  A    between atoms: S_1  and  N_8
REMARK    2  A    between atoms: S_1  and  C_24
REMARK    3  A    between atoms: O_4  and  C_23
REMARK    4  A    between atoms: O_4  and  C_27
REMARK    5  A    between atoms: N_8  and  C_19
REMARK    6  A    between atoms: N_9  and  C_20
REMARK    7  A    between atoms: N_13  and  C_30
REMARK    8  A    between atoms: N_14  and  C_35
REMARK    9  A    between atoms: C_36  and  C_37
REMARK                            x       y       z     vdW  Elec       q    Type
REMARK                         _______ _______ _______ _____ _____    ______ ____
ROOT
ATOM      2  O   UNL     1     -16.373   3.155  27.881  0.00  0.00    -0.370 OA
ATOM      3  O   UNL     1     -18.248   0.755  27.042  0.00  0.00    -0.370 OA
ATOM     17  C   UNL     1     -16.830   0.919  27.201  0.00  0.00    +0.170 C 
ATOM     18  C   UNL     1     -16.469   2.311  26.720  0.00  0.00    +0.175 C 
ATOM     19  C   UNL     1     -16.468   0.924  28.668  0.00  0.00    +0.133 C 
ATOM     20  C   UNL     1     -17.645   2.742  25.865  0.00  0.00    +0.171 C 
ATOM     21  C   UNL     1     -16.647   2.378  29.055  0.00  0.00    +0.183 C 
ATOM     22  C   UNL     1     -18.801   1.934  26.441  0.00  0.00    +0.190 C 
ENDROOT
BRANCH  20   9
ATOM      9  N   UNL     1     -17.402   2.542  24.433  0.00  0.00    -0.187 N 
ATOM     10  N   UNL     1     -17.922   1.494  23.780  0.00  0.00    -0.041 NA
ATOM     11  N   UNL     1     -16.724   2.752  22.384  0.00  0.00    -0.071 NA
ATOM     12  N   UNL     1     -17.505   1.628  22.528  0.00  0.00    -0.020 NA
ATOM     23  C   UNL     1     -16.673   3.303  23.575  0.00  0.00    +0.342 A 
BRANCH  23   4
ATOM      4  O   UNL     1     -16.030   4.407  23.907  0.00  0.00    -0.423 OA
BRANCH   4  27
ATOM     27  C   UNL     1     -15.237   5.109  23.009  0.00  0.00    +0.132 A 
ATOM     31  C   UNL     1     -13.871   4.839  22.926  0.00  0.00    +0.048 A 
ATOM     32  C   UNL     1     -15.807   6.084  22.192  0.00  0.00    +0.048 A 
ATOM     33  C   UNL     1     -13.075   5.545  22.024  0.00  0.00    +0.031 A 
ATOM     34  C   UNL     1     -15.011   6.790  21.290  0.00  0.00    +0.031 A 
ATOM     35  C   UNL     1     -13.645   6.520  21.206  0.00  0.00    +0.067 A 
BRANCH  35  14
ATOM     14  N   UNL     1     -12.855   7.220  20.313  0.00  0.00    -0.220 N 
ATOM     15  N   UNL     1     -13.348   7.704  19.162  0.00  0.00    -0.154 NA
ATOM     16  N   UNL     1     -11.126   8.193  19.397  0.00  0.00    -0.222 NA
ATOM     38  C   UNL     1     -11.533   7.515  20.444  0.00  0.00    +0.225 A 
ATOM     39  C   UNL     1     -12.262   8.284  18.646  0.00  0.00    +0.245 A 
ENDBRANCH  35  14
ENDBRANCH   4  27
ENDBRANCH  23   4
ENDBRANCH  20   9
BRANCH  19   8
ATOM      8  N   UNL     1     -15.049   0.534  28.840  0.00  0.00    -0.182 NA
ATOM     40  H   UNL     1     -14.467   0.467  27.996  0.00  0.00    +0.148 HD
BRANCH   8   1
ATOM      1  S   UNL     1     -14.536  -0.162  30.301  0.00  0.00    +0.059 S 
ATOM      5  O   UNL     1     -13.243  -0.792  30.108  0.00  0.00    -0.153 OA
ATOM      6  O   UNL     1     -15.637  -0.916  30.871  0.00  0.00    -0.153 OA
BRANCH   1  24
ATOM     24  C   UNL     1     -14.302   1.262  31.321  0.00  0.00    +0.105 A 
ATOM     25  C   UNL     1     -14.917   1.333  32.571  0.00  0.00    +0.030 A 
ATOM     26  C   UNL     1     -13.503   2.315  30.876  0.00  0.00    +0.030 A 
ATOM     28  C   UNL     1     -14.733   2.457  33.376  0.00  0.00    +0.025 A 
ATOM     29  C   UNL     1     -13.319   3.440  31.681  0.00  0.00    +0.025 A 
ATOM     30  C   UNL     1     -13.934   3.511  32.931  0.00  0.00    +0.033 A 
BRANCH  30  13
ATOM      7  O   UNL     1     -14.957   6.325  32.623  0.00  0.00    -0.276 OA
ATOM     13  N   UNL     1     -13.749   4.635  33.737  0.00  0.00    -0.286 N 
ATOM     36  C   UNL     1     -14.251   5.928  33.545  0.00  0.00    +0.214 C 
ATOM     37  C   UNL     1     -13.823   6.864  34.648  0.00  0.00    +0.109 C 
ATOM     41  H   UNL     1     -13.178   4.486  34.565  0.00  0.00    +0.155 HD
ENDBRANCH  30  13
ENDBRANCH   1  24
ENDBRANCH   8   1
ENDBRANCH  19   8
TORSDOF 8
ENDMDL
MODEL 2
REMARK VINA RESULT:      -8.3     27.619     31.627
REMARK  Name = 11886270
REMARK  9 active torsions:
REMARK  status: ('A' for Active; 'I' for Inactive)
REMARK    1  A    between atoms: S_1  and  N_8
REMARK    2  A    between atoms: S_1  and  C_24
REMARK    3  A    between atoms: O_4  and  C_23
REMARK    4  A    between atoms: O_4  and  C_27
REMARK    5  A    between atoms: N_8  and  C_19
REMARK    6  A    between atoms: N_9  and  C_20
REMARK    7  A    between atoms: N_13  and  C_30
REMARK    8  A    between atoms: N_14  and  C_35
REMARK    9  A    between atoms: C_36  and  C_37
REMARK                            x       y       z     vdW  Elec       q    Type
REMARK                         _______ _______ _______ _____ _____    ______ ____
ROOT
ATOM      2  O   UNL     1      10.208   7.720  20.982  0.00  0.00    -0.370 OA
ATOM      3  O   UNL     1      13.216   7.744  21.946  0.00  0.00    -0.370 OA
ATOM     17  C   UNL     1      12.248   8.759  21.637  0.00  0.00    +0.170 C 
ATOM     18  C   UNL     1      11.429   8.271  20.457  0.00  0.00    +0.175 C 
ATOM     19  C   UNL     1      11.248   8.884  22.761  0.00  0.00    +0.133 C 
ATOM     20  C   UNL     1      12.266   7.171  19.833  0.00  0.00    +0.171 C 
ATOM     21  C   UNL     1      10.212   7.835  22.411  0.00  0.00    +0.183 C 
ATOM     22  C   UNL     1      13.098   6.667  21.005  0.00  0.00    +0.190 C 
ENDROOT
BRANCH  20   9
ATOM      9  N   UNL     1      13.039   7.639  18.679  0.00  0.00    -0.187 N 
ATOM     10  N   UNL     1      12.580   7.489  17.429  0.00  0.00    -0.041 NA
ATOM     11  N   UNL     1      14.569   8.494  17.402  0.00  0.00    -0.071 NA
ATOM     12  N   UNL     1      13.518   8.015  16.653  0.00  0.00    -0.020 NA
ATOM     23  C   UNL     1      14.251   8.251  18.653  0.00  0.00    +0.342 A 
BRANCH  23   4
ATOM      4  O   UNL     1      14.971   8.542  19.721  0.00  0.00    -0.423 OA
BRANCH   4  27
ATOM     27  C   UNL     1      16.166   7.898  20.015  0.00  0.00    +0.132 A 
ATOM     31  C   UNL     1      17.054   8.460  20.933  0.00  0.00    +0.048 A 
ATOM     32  C   UNL     1      16.477   6.689  19.394  0.00  0.00    +0.048 A 
ATOM     33  C   UNL     1      18.253   7.813  21.228  0.00  0.00    +0.031 A 
ATOM     34  C   UNL     1      17.677   6.043  19.689  0.00  0.00    +0.031 A 
ATOM     35  C   UNL     1      18.565   6.605  20.606  0.00  0.00    +0.067 A 
BRANCH  35  14
ATOM     14  N   UNL     1      19.755   5.964  20.898  0.00  0.00    -0.220 N 
ATOM     15  N   UNL     1      20.585   6.416  21.851  0.00  0.00    -0.154 NA
ATOM     16  N   UNL     1      21.403   4.530  20.848  0.00  0.00    -0.222 NA
ATOM     38  C   UNL     1      20.249   4.843  20.307  0.00  0.00    +0.225 A 
ATOM     39  C   UNL     1      21.567   5.513  21.780  0.00  0.00    +0.245 A 
ENDBRANCH  35  14
ENDBRANCH   4  27
ENDBRANCH  23   4
ENDBRANCH  20   9
BRANCH  19   8
ATOM      8  N   UNL     1      10.624  10.228  22.735  0.00  0.00    -0.182 NA
ATOM     40  H   UNL     1      10.035  10.464  21.928  0.00  0.00    +0.148 HD
BRANCH   8   1
ATOM      1  S   UNL     1      11.194  11.444  23.774  0.00  0.00    +0.059 S 
ATOM      5  O   UNL     1      11.363  10.899  25.108  0.00  0.00    -0.153 OA
ATOM      6  O   UNL     1      10.402  12.642  23.570  0.00  0.00    -0.153 OA
BRANCH   1  24
ATOM     24  C   UNL     1      12.800  11.768  23.110  0.00  0.00    +0.105 A 
ATOM     25  C   UNL     1      12.936  12.549  21.963  0.00  0.00    +0.030 A 
ATOM     26  C   UNL     1      13.932  11.242  23.734  0.00  0.00    +0.030 A 
ATOM     28  C   UNL     1      14.204  12.804  21.439  0.00  0.00    +0.025 A 
ATOM     29  C   UNL     1      15.199  11.496  23.210  0.00  0.00    +0.025 A 
ATOM     30  C   UNL     1      15.335  12.277  22.062  0.00  0.00    +0.033 A 
BRANCH  30  13
ATOM      7  O   UNL     1      16.520  11.580  19.383  0.00  0.00    -0.276 OA
ATOM     13  N   UNL     1      16.603  12.533  21.538  0.00  0.00    -0.286 N 
ATOM     36  C   UNL     1      17.104  12.184  20.278  0.00  0.00    +0.214 C 
ATOM     37  C   UNL     1      18.528  12.646  20.094  0.00  0.00    +0.109 C 
ATOM     41  H   UNL     1      17.234  13.038  22.156  0.00  0.00    +0.155 HD
ENDBRANCH  30  13
ENDBRANCH   1  24
ENDBRANCH   8   1
ENDBRANCH  19   8
TORSDOF 8
ENDMDL
MODEL 3
REMARK VINA RESULT:      -8.0     28.526     32.487
REMARK  Name = 11886270
REMARK  9 active torsions:
REMARK  status: ('A' for Active; 'I' for Inactive)
REMARK    1  A    between atoms: S_1  and  N_8
REMARK    2  A    between atoms: S_1  and  C_24
REMARK    3  A    between atoms: O_4  and  C_23
REMARK    4  A    between atoms: O_4  and  C_27
REMARK    5  A    between atoms: N_8  and  C_19
REMARK    6  A    between atoms: N_9  and  C_20
REMARK    7  A    between atoms: N_13  and  C_30
REMARK    8  A    between atoms: N_14  and  C_35
REMARK    9  A    between atoms: C_36  and  C_37
REMARK                            x       y       z     vdW  Elec       q    Type
REMARK                         _______ _______ _______ _____ _____    ______ ____
ROOT
ATOM      2  O   UNL     1      14.818  11.014  17.092  0.00  0.00    -0.370 OA
ATOM      3  O   UNL     1      13.339   8.549  15.783  0.00  0.00    -0.370 OA
ATOM     17  C   UNL     1      13.038   9.947  15.925  0.00  0.00    +0.170 C 
ATOM     18  C   UNL     1      13.537  10.389  17.287  0.00  0.00    +0.175 C 
ATOM     19  C   UNL     1      13.853  10.757  14.945  0.00  0.00    +0.133 C 
ATOM     20  C   UNL     1      13.705   9.104  18.075  0.00  0.00    +0.171 C 
ATOM     21  C   UNL     1      15.148  10.992  15.696  0.00  0.00    +0.183 C 
ATOM     22  C   UNL     1      13.949   8.065  16.987  0.00  0.00    +0.190 C 
ENDROOT
BRANCH  20   9
ATOM      9  N   UNL     1      12.562   8.828  18.950  0.00  0.00    -0.187 N 
ATOM     10  N   UNL     1      11.388   8.419  18.450  0.00  0.00    -0.041 NA
ATOM     11  N   UNL     1      11.263   8.584  20.670  0.00  0.00    -0.071 NA
ATOM     12  N   UNL     1      10.598   8.269  19.506  0.00  0.00    -0.020 NA
ATOM     23  C   UNL     1      12.477   8.927  20.302  0.00  0.00    +0.342 A 
BRANCH  23   4
ATOM      4  O   UNL     1      13.462   9.307  21.094  0.00  0.00    -0.423 OA
BRANCH   4  27
ATOM     27  C   UNL     1      14.697   8.673  21.107  0.00  0.00    +0.132 A 
ATOM     31  C   UNL     1      14.765   7.281  21.190  0.00  0.00    +0.048 A 
ATOM     32  C   UNL     1      15.868   9.425  21.039  0.00  0.00    +0.048 A 
ATOM     33  C   UNL     1      16.005   6.644  21.204  0.00  0.00    +0.031 A 
ATOM     34  C   UNL     1      17.108   8.787  21.053  0.00  0.00    +0.031 A 
ATOM     35  C   UNL     1      17.177   7.397  21.136  0.00  0.00    +0.067 A 
BRANCH  35  14
ATOM     14  N   UNL     1      18.406   6.764  21.151  0.00  0.00    -0.220 N 
ATOM     15  N   UNL     1      19.326   7.030  22.091  0.00  0.00    -0.154 NA
ATOM     16  N   UNL     1      20.071   5.457  20.606  0.00  0.00    -0.222 NA
ATOM     38  C   UNL     1      18.858   5.829  20.272  0.00  0.00    +0.225 A 
ATOM     39  C   UNL     1      20.314   6.213  21.716  0.00  0.00    +0.245 A 
ENDBRANCH  35  14
ENDBRANCH   4  27
ENDBRANCH  23   4
ENDBRANCH  20   9
BRANCH  19   8
ATOM      8  N   UNL     1      13.186  12.054  14.685  0.00  0.00    -0.182 NA
ATOM     40  H   UNL     1      12.441  12.345  15.329  0.00  0.00    +0.148 HD
BRANCH   8   1
ATOM      1  S   UNL     1      13.364  12.806  13.173  0.00  0.00    +0.059 S 
ATOM      5  O   UNL     1      14.005  11.889  12.250  0.00  0.00    -0.153 OA
ATOM      6  O   UNL     1      13.906  14.137  13.374  0.00  0.00    -0.153 OA
BRANCH   1  24
ATOM     24  C   UNL     1      11.683  13.005  12.665  0.00  0.00    +0.105 A 
ATOM     25  C   UNL     1      11.284  14.173  12.015  0.00  0.00    +0.030 A 
ATOM     26  C   UNL     1      10.754  11.994  12.914  0.00  0.00    +0.030 A 
ATOM     28  C   UNL     1       9.957  14.330  11.615  0.00  0.00    +0.025 A 
ATOM     29  C   UNL     1       9.427  12.151  12.514  0.00  0.00    +0.025 A 
ATOM     30  C   UNL     1       9.028  13.319  11.864  0.00  0.00    +0.033 A 
BRANCH  30  13
ATOM      7  O   UNL     1       7.787  13.183   9.125  0.00  0.00    -0.276 OA
ATOM     13  N   UNL     1       7.701  13.476  11.463  0.00  0.00    -0.286 N 
ATOM     36  C   UNL     1       7.176  13.403  10.167  0.00  0.00    +0.214 C 
ATOM     37  C   UNL     1       5.685  13.630  10.153  0.00  0.00    +0.109 C 
ATOM     41  H   UNL     1       7.040  13.666  12.212  0.00  0.00    +0.155 HD
ENDBRANCH  30  13
ENDBRANCH   1  24
ENDBRANCH   8   1
ENDBRANCH  19   8
TORSDOF 8
ENDMDL
MODEL 4
REMARK VINA RESULT:      -7.9     27.875     31.597
REMARK  Name = 11886270
REMARK  9 active torsions:
REMARK  status: ('A' for Active; 'I' for Inactive)
REMARK    1  A    between atoms: S_1  and  N_8
REMARK    2  A    between atoms: S_1  and  C_24
REMARK    3  A    between atoms: O_4  and  C_23
REMARK    4  A    between atoms: O_4  and  C_27
REMARK    5  A    between atoms: N_8  and  C_19
REMARK    6  A    between atoms: N_9  and  C_20
REMARK    7  A    between atoms: N_13  and  C_30
REMARK    8  A    between atoms: N_14  and  C_35
REMARK    9  A    between atoms: C_36  and  C_37
REMARK                            x       y       z     vdW  Elec       q    Type
REMARK                         _______ _______ _______ _____ _____    ______ ____
ROOT
ATOM      2  O   UNL     1      10.203   8.406  21.059  0.00  0.00    -0.370 OA
ATOM      3  O   UNL     1      13.193   8.192  22.054  0.00  0.00    -0.370 OA
ATOM     17  C   UNL     1      12.376   9.254  21.537  0.00  0.00    +0.170 C 
ATOM     18  C   UNL     1      11.484   8.667  20.459  0.00  0.00    +0.175 C 
ATOM     19  C   UNL     1      11.416   9.735  22.598  0.00  0.00    +0.133 C 
ATOM     20  C   UNL     1      12.150   7.359  20.076  0.00  0.00    +0.171 C 
ATOM     21  C   UNL     1      10.237   8.796  22.439  0.00  0.00    +0.183 C 
ATOM     22  C   UNL     1      12.914   6.980  21.338  0.00  0.00    +0.190 C 
ENDROOT
BRANCH  20   9
ATOM      9  N   UNL     1      12.970   7.480  18.867  0.00  0.00    -0.187 N 
ATOM     10  N   UNL     1      12.460   7.226  17.654  0.00  0.00    -0.041 NA
ATOM     11  N   UNL     1      14.604   7.810  17.480  0.00  0.00    -0.071 NA
ATOM     12  N   UNL     1      13.463   7.431  16.810  0.00  0.00    -0.020 NA
ATOM     23  C   UNL     1      14.276   7.834  18.752  0.00  0.00    +0.342 A 
BRANCH  23   4
ATOM      4  O   UNL     1      15.065   8.145  19.764  0.00  0.00    -0.423 OA
BRANCH   4  27
ATOM     27  C   UNL     1      16.319   7.575  19.937  0.00  0.00    +0.132 A 
ATOM     31  C   UNL     1      17.248   8.180  20.784  0.00  0.00    +0.048 A 
ATOM     32  C   UNL     1      16.648   6.399  19.265  0.00  0.00    +0.048 A 
ATOM     33  C   UNL     1      18.508   7.607  20.958  0.00  0.00    +0.031 A 
ATOM     34  C   UNL     1      17.908   5.827  19.439  0.00  0.00    +0.031 A 
ATOM     35  C   UNL     1      18.838   6.431  20.286  0.00  0.00    +0.067 A 
BRANCH  35  14
ATOM     14  N   UNL     1      20.087   5.864  20.458  0.00  0.00    -0.220 N 
ATOM     15  N   UNL     1      21.197   6.613  20.545  0.00  0.00    -0.154 NA
ATOM     16  N   UNL     1      21.673   4.383  20.717  0.00  0.00    -0.222 NA
ATOM     38  C   UNL     1      20.379   4.539  20.560  0.00  0.00    +0.225 A 
ATOM     39  C   UNL     1      22.128   5.669  20.701  0.00  0.00    +0.245 A 
ENDBRANCH  35  14
ENDBRANCH   4  27
ENDBRANCH  23   4
ENDBRANCH  20   9
BRANCH  19   8
ATOM      8  N   UNL     1      10.989  11.123  22.300  0.00  0.00    -0.182 NA
ATOM     40  H   UNL     1      10.864  11.383  21.314  0.00  0.00    +0.148 HD
BRANCH   8   1
ATOM      1  S   UNL     1      11.108  12.318  23.500  0.00  0.00    +0.059 S 
ATOM      5  O   UNL     1      10.322  11.924  24.654  0.00  0.00    -0.153 OA
ATOM      6  O   UNL     1      10.903  13.617  22.887  0.00  0.00    -0.153 OA
BRANCH   1  24
ATOM     24  C   UNL     1      12.816  12.221  23.945  0.00  0.00    +0.105 A 
ATOM     25  C   UNL     1      13.179  11.959  25.265  0.00  0.00    +0.030 A 
ATOM     26  C   UNL     1      13.800  12.406  22.974  0.00  0.00    +0.030 A 
ATOM     28  C   UNL     1      14.527  11.883  25.616  0.00  0.00    +0.025 A 
ATOM     29  C   UNL     1      15.149  12.330  23.324  0.00  0.00    +0.025 A 
ATOM     30  C   UNL     1      15.512  12.068  24.645  0.00  0.00    +0.033 A 
BRANCH  30  13
ATOM      7  O   UNL     1      17.490  14.243  25.297  0.00  0.00    -0.276 OA
ATOM     13  N   UNL     1      16.860  11.990  24.996  0.00  0.00    -0.286 N 
ATOM     36  C   UNL     1      17.739  13.041  25.290  0.00  0.00    +0.214 C 
ATOM     37  C   UNL     1      19.121  12.538  25.625  0.00  0.00    +0.109 C 
ATOM     41  H   UNL     1      17.244  11.049  25.042  0.00  0.00    +0.155 HD
ENDBRANCH  30  13
ENDBRANCH   1  24
ENDBRANCH   8   1
ENDBRANCH  19   8
TORSDOF 8
ENDMDL
MODEL 5
REMARK VINA RESULT:      -7.8     18.537     21.602
REMARK  Name = 11886270
REMARK  9 active torsions:
REMARK  status: ('A' for Active; 'I' for Inactive)
REMARK    1  A    between atoms: S_1  and  N_8
REMARK    2  A    between atoms: S_1  and  C_24
REMARK    3  A    between atoms: O_4  and  C_23
REMARK    4  A    between atoms: O_4  and  C_27
REMARK    5  A    between atoms: N_8  and  C_19
REMARK    6  A    between atoms: N_9  and  C_20
REMARK    7  A    between atoms: N_13  and  C_30
REMARK    8  A    between atoms: N_14  and  C_35
REMARK    9  A    between atoms: C_36  and  C_37
REMARK                            x       y       z     vdW  Elec       q    Type
REMARK                         _______ _______ _______ _____ _____    ______ ____
ROOT
ATOM      2  O   UNL     1      -4.123 -10.100  17.015  0.00  0.00    -0.370 OA
ATOM      3  O   UNL     1      -4.706 -13.192  16.741  0.00  0.00    -0.370 OA
ATOM     17  C   UNL     1      -4.995 -12.037  15.939  0.00  0.00    +0.170 C 
ATOM     18  C   UNL     1      -5.317 -10.891  16.880  0.00  0.00    +0.175 C 
ATOM     19  C   UNL     1      -3.753 -11.585  15.209  0.00  0.00    +0.133 C 
ATOM     20  C   UNL     1      -5.648 -11.557  18.202  0.00  0.00    +0.171 C 
ATOM     21  C   UNL     1      -3.080 -10.676  16.218  0.00  0.00    +0.183 C 
ATOM     22  C   UNL     1      -4.874 -12.867  18.128  0.00  0.00    +0.190 C 
ENDROOT
BRANCH  20   9
ATOM      9  N   UNL     1      -7.091 -11.700  18.413  0.00  0.00    -0.187 N 
ATOM     10  N   UNL     1      -7.611 -12.832  18.907  0.00  0.00    -0.041 NA
ATOM     11  N   UNL     1      -9.230 -11.351  18.507  0.00  0.00    -0.071 NA
ATOM     12  N   UNL     1      -8.919 -12.612  18.964  0.00  0.00    -0.020 NA
ATOM     23  C   UNL     1      -8.084 -10.804  18.172  0.00  0.00    +0.342 A 
BRANCH  23   4
ATOM      4  O   UNL     1      -7.902  -9.592  17.682  0.00  0.00    -0.423 OA
BRANCH   4  27
ATOM     27  C   UNL     1      -8.859  -8.946  16.910  0.00  0.00    +0.132 A 
ATOM     31  C   UNL     1      -9.026  -9.297  15.570  0.00  0.00    +0.048 A 
ATOM     32  C   UNL     1      -9.652  -7.949  17.475  0.00  0.00    +0.048 A 
ATOM     33  C   UNL     1      -9.987  -8.648  14.796  0.00  0.00    +0.031 A 
ATOM     34  C   UNL     1     -10.613  -7.301  16.700  0.00  0.00    +0.031 A 
ATOM     35  C   UNL     1     -10.781  -7.650  15.360  0.00  0.00    +0.067 A 
BRANCH  35  14
ATOM     14  N   UNL     1     -11.733  -7.007  14.591  0.00  0.00    -0.220 N 
ATOM     15  N   UNL     1     -12.121  -7.486  13.400  0.00  0.00    -0.154 NA
ATOM     16  N   UNL     1     -13.221  -5.551  13.926  0.00  0.00    -0.222 NA
ATOM     38  C   UNL     1     -12.391  -5.856  14.896  0.00  0.00    +0.225 A 
ATOM     39  C   UNL     1     -13.022  -6.569  13.039  0.00  0.00    +0.245 A 
ENDBRANCH  35  14
ENDBRANCH   4  27
ENDBRANCH  23   4
ENDBRANCH  20   9
BRANCH  19   8
ATOM      8  N   UNL     1      -4.129 -10.803  14.008  0.00  0.00    -0.182 NA
ATOM     40  H   UNL     1      -5.091 -10.447  13.952  0.00  0.00    +0.148 HD
BRANCH   8   1
ATOM      1  S   UNL     1      -3.145 -10.856  12.625  0.00  0.00    +0.059 S 
ATOM      5  O   UNL     1      -3.049 -12.224  12.152  0.00  0.00    -0.153 OA
ATOM      6  O   UNL     1      -1.943 -10.084  12.877  0.00  0.00    -0.153 OA
BRANCH   1  24
ATOM     24  C   UNL     1      -4.109  -9.942  11.458  0.00  0.00    +0.105 A 
ATOM     25  C   UNL     1      -3.556  -9.578  10.230  0.00  0.00    +0.030 A 
ATOM     26  C   UNL     1      -5.421  -9.584  11.765  0.00  0.00    +0.030 A 
ATOM     28  C   UNL     1      -4.316  -8.856   9.310  0.00  0.00    +0.025 A 
ATOM     29  C   UNL     1      -6.182  -8.863  10.845  0.00  0.00    +0.025 A 
ATOM     30  C   UNL     1      -5.629  -8.499   9.617  0.00  0.00    +0.033 A 
BRANCH  30  13
ATOM      7  O   UNL     1      -8.060  -9.305   8.033  0.00  0.00    -0.276 OA
ATOM     13  N   UNL     1      -6.390  -7.778   8.695  0.00  0.00    -0.286 N 
ATOM     36  C   UNL     1      -7.517  -8.205   7.983  0.00  0.00    +0.214 C 
ATOM     37  C   UNL     1      -8.054  -7.121   7.082  0.00  0.00    +0.109 C 
ATOM     41  H   UNL     1      -6.079  -6.824   8.527  0.00  0.00    +0.155 HD
ENDBRANCH  30  13
ENDBRANCH   1  24
ENDBRANCH   8   1
ENDBRANCH  19   8
TORSDOF 8
ENDMDL
MODEL 6
REMARK VINA RESULT:      -7.5     27.859     31.132
REMARK  Name = 11886270
REMARK  9 active torsions:
REMARK  status: ('A' for Active; 'I' for Inactive)
REMARK    1  A    between atoms: S_1  and  N_8
REMARK    2  A    between atoms: S_1  and  C_24
REMARK    3  A    between atoms: O_4  and  C_23
REMARK    4  A    between atoms: O_4  and  C_27
REMARK    5  A    between atoms: N_8  and  C_19
REMARK    6  A    between atoms: N_9  and  C_20
REMARK    7  A    between atoms: N_13  and  C_30
REMARK    8  A    between atoms: N_14  and  C_35
REMARK    9  A    between atoms: C_36  and  C_37
REMARK                            x       y       z     vdW  Elec       q    Type
REMARK                         _______ _______ _______ _____ _____    ______ ____
ROOT
ATOM      2  O   UNL     1      12.881  11.841  11.277  0.00  0.00    -0.370 OA
ATOM      3  O   UNL     1      11.725  14.462  12.608  0.00  0.00    -0.370 OA
ATOM     17  C   UNL     1      11.707  13.066  12.947  0.00  0.00    +0.170 C 
ATOM     18  C   UNL     1      11.565  12.279  11.658  0.00  0.00    +0.175 C 
ATOM     19  C   UNL     1      13.050  12.648  13.496  0.00  0.00    +0.133 C 
ATOM     20  C   UNL     1      11.043  13.283  10.648  0.00  0.00    +0.171 C 
ATOM     21  C   UNL     1      13.833  12.300  12.246  0.00  0.00    +0.183 C 
ATOM     22  C   UNL     1      11.550  14.612  11.192  0.00  0.00    +0.190 C 
ENDROOT
BRANCH  20   9
ATOM      9  N   UNL     1       9.590  13.198  10.472  0.00  0.00    -0.187 N 
ATOM     10  N   UNL     1       8.752  13.455  11.486  0.00  0.00    -0.041 NA
ATOM     11  N   UNL     1       7.601  12.921   9.653  0.00  0.00    -0.071 NA
ATOM     12  N   UNL     1       7.538  13.286  10.979  0.00  0.00    -0.020 NA
ATOM     23  C   UNL     1       8.881  12.873   9.360  0.00  0.00    +0.342 A 
BRANCH  23   4
ATOM      4  O   UNL     1       9.412  12.563   8.191  0.00  0.00    -0.423 OA
BRANCH   4  27
ATOM     27  C   UNL     1       9.439  11.264   7.704  0.00  0.00    +0.132 A 
ATOM     31  C   UNL     1       9.087  11.009   6.378  0.00  0.00    +0.048 A 
ATOM     32  C   UNL     1       9.817  10.214   8.539  0.00  0.00    +0.048 A 
ATOM     33  C   UNL     1       9.114   9.703   5.889  0.00  0.00    +0.031 A 
ATOM     34  C   UNL     1       9.843   8.908   8.049  0.00  0.00    +0.031 A 
ATOM     35  C   UNL     1       9.492   8.653   6.724  0.00  0.00    +0.067 A 
BRANCH  35  14
ATOM     14  N   UNL     1       9.518   7.359   6.238  0.00  0.00    -0.220 N 
ATOM     15  N   UNL     1      10.631   6.611   6.277  0.00  0.00    -0.154 NA
ATOM     16  N   UNL     1       8.886   5.471   5.336  0.00  0.00    -0.222 NA
ATOM     38  C   UNL     1       8.485   6.674   5.677  0.00  0.00    +0.225 A 
ATOM     39  C   UNL     1      10.196   5.479   5.720  0.00  0.00    +0.245 A 
ENDBRANCH  35  14
ENDBRANCH   4  27
ENDBRANCH  23   4
ENDBRANCH  20   9
BRANCH  19   8
ATOM      8  N   UNL     1      12.897  11.439  14.339  0.00  0.00    -0.182 NA
ATOM     40  H   UNL     1      11.944  11.092  14.508  0.00  0.00    +0.148 HD
BRANCH   8   1
ATOM      1  S   UNL     1      14.191  10.912  15.305  0.00  0.00    +0.059 S 
ATOM      5  O   UNL     1      14.870  12.062  15.870  0.00  0.00    -0.153 OA
ATOM      6  O   UNL     1      14.941   9.909  14.573  0.00  0.00    -0.153 OA
BRANCH   1  24
ATOM     24  C   UNL     1      13.351  10.075  16.616  0.00  0.00    +0.105 A 
ATOM     25  C   UNL     1      13.758  10.263  17.936  0.00  0.00    +0.030 A 
ATOM     26  C   UNL     1      12.282   9.226  16.329  0.00  0.00    +0.030 A 
ATOM     28  C   UNL     1      13.095   9.601  18.971  0.00  0.00    +0.025 A 
ATOM     29  C   UNL     1      11.619   8.565  17.363  0.00  0.00    +0.025 A 
ATOM     30  C   UNL     1      12.026   8.752  18.684  0.00  0.00    +0.033 A 
BRANCH  30  13
ATOM      7  O   UNL     1      13.047   6.770  20.707  0.00  0.00    -0.276 OA
ATOM     13  N   UNL     1      11.363   8.092  19.719  0.00  0.00    -0.286 N 
ATOM     36  C   UNL     1      11.890   7.174  20.636  0.00  0.00    +0.214 C 
ATOM     37  C   UNL     1      10.842   6.685  21.604  0.00  0.00    +0.109 C 
ATOM     41  H   UNL     1      10.374   8.312  19.811  0.00  0.00    +0.155 HD
ENDBRANCH  30  13
ENDBRANCH   1  24
ENDBRANCH   8   1
ENDBRANCH  19   8
TORSDOF 8
ENDMDL
MODEL 7
REMARK VINA RESULT:      -7.5     34.318     38.015
REMARK  Name = 11886270
REMARK  9 active torsions:
REMARK  status: ('A' for Active; 'I' for Inactive)
REMARK    1  A    between atoms: S_1  and  N_8
REMARK    2  A    between atoms: S_1  and  C_24
REMARK    3  A    between atoms: O_4  and  C_23
REMARK    4  A    between atoms: O_4  and  C_27
REMARK    5  A    between atoms: N_8  and  C_19
REMARK    6  A    between atoms: N_9  and  C_20
REMARK    7  A    between atoms: N_13  and  C_30
REMARK    8  A    between atoms: N_14  and  C_35
REMARK    9  A    between atoms: C_36  and  C_37
REMARK                            x       y       z     vdW  Elec       q    Type
REMARK                         _______ _______ _______ _____ _____    ______ ____
ROOT
ATOM      2  O   UNL     1       8.021   6.941  -2.990  0.00  0.00    -0.370 OA
ATOM      3  O   UNL     1       8.495   5.424  -5.719  0.00  0.00    -0.370 OA
ATOM     17  C   UNL     1       7.448   5.427  -4.736  0.00  0.00    +0.170 C 
ATOM     18  C   UNL     1       8.098   5.556  -3.371  0.00  0.00    +0.175 C 
ATOM     19  C   UNL     1       6.610   6.675  -4.872  0.00  0.00    +0.133 C 
ATOM     20  C   UNL     1       9.546   5.162  -3.593  0.00  0.00    +0.171 C 
ATOM     21  C   UNL     1       7.363   7.682  -4.026  0.00  0.00    +0.183 C 
ATOM     22  C   UNL     1       9.769   5.490  -5.064  0.00  0.00    +0.190 C 
ENDROOT
BRANCH  20   9
ATOM      9  N   UNL     1       9.812   3.769  -3.221  0.00  0.00    -0.187 N 
ATOM     10  N   UNL     1       9.086   2.764  -3.731  0.00  0.00    -0.041 NA
ATOM     11  N   UNL     1      10.631   1.967  -2.335  0.00  0.00    -0.071 NA
ATOM     12  N   UNL     1       9.592   1.665  -3.187  0.00  0.00    -0.020 NA
ATOM     23  C   UNL     1      10.750   3.274  -2.372  0.00  0.00    +0.342 A 
BRANCH  23   4
ATOM      4  O   UNL     1      11.623   4.006  -1.705  0.00  0.00    -0.423 OA
BRANCH   4  27
ATOM     27  C   UNL     1      11.461   4.325  -0.364  0.00  0.00    +0.132 A 
ATOM     31  C   UNL     1      12.369   3.847   0.581  0.00  0.00    +0.048 A 
ATOM     32  C   UNL     1      10.391   5.124   0.038  0.00  0.00    +0.048 A 
ATOM     33  C   UNL     1      12.206   4.167   1.929  0.00  0.00    +0.031 A 
ATOM     34  C   UNL     1      10.229   5.444   1.386  0.00  0.00    +0.031 A 
ATOM     35  C   UNL     1      11.136   4.966   2.331  0.00  0.00    +0.067 A 
BRANCH  35  14
ATOM     14  N   UNL     1      10.975   5.283   3.667  0.00  0.00    -0.220 N 
ATOM     15  N   UNL     1      10.164   4.574   4.468  0.00  0.00    -0.154 NA
ATOM     16  N   UNL     1      11.176   6.286   5.598  0.00  0.00    -0.222 NA
ATOM     38  C   UNL     1      11.572   6.299   4.347  0.00  0.00    +0.225 A 
ATOM     39  C   UNL     1      10.322   5.222   5.625  0.00  0.00    +0.245 A 
ENDBRANCH  35  14
ENDBRANCH   4  27
ENDBRANCH  23   4
ENDBRANCH  20   9
BRANCH  19   8
ATOM      8  N   UNL     1       5.265   6.446  -4.293  0.00  0.00    -0.182 NA
ATOM     40  H   UNL     1       5.194   5.811  -3.488  0.00  0.00    +0.148 HD
BRANCH   8   1
ATOM      1  S   UNL     1       3.881   6.881  -5.174  0.00  0.00    +0.059 S 
ATOM      5  O   UNL     1       4.260   7.216  -6.534  0.00  0.00    -0.153 OA
ATOM      6  O   UNL     1       3.099   7.813  -4.384  0.00  0.00    -0.153 OA
BRANCH   1  24
ATOM     24  C   UNL     1       2.982   5.360  -5.217  0.00  0.00    +0.105 A 
ATOM     25  C   UNL     1       3.471   4.281  -5.953  0.00  0.00    +0.030 A 
ATOM     26  C   UNL     1       1.782   5.239  -4.515  0.00  0.00    +0.030 A 
ATOM     28  C   UNL     1       2.761   3.081  -5.987  0.00  0.00    +0.025 A 
ATOM     29  C   UNL     1       1.072   4.039  -4.549  0.00  0.00    +0.025 A 
ATOM     30  C   UNL     1       1.561   2.960  -5.285  0.00  0.00    +0.033 A 
BRANCH  30  13
ATOM      7  O   UNL     1       0.014   1.666  -7.521  0.00  0.00    -0.276 OA
ATOM     13  N   UNL     1       0.851   1.759  -5.319  0.00  0.00    -0.286 N 
ATOM     36  C   UNL     1       0.145   1.202  -6.393  0.00  0.00    +0.214 C 
ATOM     37  C   UNL     1      -0.487  -0.116  -6.023  0.00  0.00    +0.109 C 
ATOM     41  H   UNL     1       0.854   1.229  -4.451  0.00  0.00    +0.155 HD
ENDBRANCH  30  13
ENDBRANCH   1  24
ENDBRANCH   8   1
ENDBRANCH  19   8
TORSDOF 8
ENDMDL
MODEL 8
REMARK VINA RESULT:      -7.4     29.398     32.138
REMARK  Name = 11886270
REMARK  9 active torsions:
REMARK  status: ('A' for Active; 'I' for Inactive)
REMARK    1  A    between atoms: S_1  and  N_8
REMARK    2  A    between atoms: S_1  and  C_24
REMARK    3  A    between atoms: O_4  and  C_23
REMARK    4  A    between atoms: O_4  and  C_27
REMARK    5  A    between atoms: N_8  and  C_19
REMARK    6  A    between atoms: N_9  and  C_20
REMARK    7  A    between atoms: N_13  and  C_30
REMARK    8  A    between atoms: N_14  and  C_35
REMARK    9  A    between atoms: C_36  and  C_37
REMARK                            x       y       z     vdW  Elec       q    Type
REMARK                         _______ _______ _______ _____ _____    ______ ____
ROOT
ATOM      2  O   UNL     1      13.051  10.772  18.246  0.00  0.00    -0.370 OA
ATOM      3  O   UNL     1      13.213   8.208  16.409  0.00  0.00    -0.370 OA
ATOM     17  C   UNL     1      14.129   8.876  17.292  0.00  0.00    +0.170 C 
ATOM     18  C   UNL     1      13.896  10.368  17.155  0.00  0.00    +0.175 C 
ATOM     19  C   UNL     1      13.780   8.572  18.730  0.00  0.00    +0.133 C 
ATOM     20  C   UNL     1      13.154  10.525  15.842  0.00  0.00    +0.171 C 
ATOM     21  C   UNL     1      12.744   9.630  19.057  0.00  0.00    +0.183 C 
ATOM     22  C   UNL     1      12.452   9.182  15.682  0.00  0.00    +0.190 C 
ENDROOT
BRANCH  20   9
ATOM      9  N   UNL     1      14.041  10.896  14.735  0.00  0.00    -0.187 N 
ATOM     10  N   UNL     1      15.084  10.127  14.394  0.00  0.00    -0.041 NA
ATOM     11  N   UNL     1      14.982  11.916  13.068  0.00  0.00    -0.071 NA
ATOM     12  N   UNL     1      15.654  10.754  13.374  0.00  0.00    -0.020 NA
ATOM     23  C   UNL     1      13.986  11.984  13.923  0.00  0.00    +0.342 A 
BRANCH  23   4
ATOM      4  O   UNL     1      13.077  12.937  14.001  0.00  0.00    -0.423 OA
BRANCH   4  27
ATOM     27  C   UNL     1      12.022  13.039  13.103  0.00  0.00    +0.132 A 
ATOM     31  C   UNL     1      11.851  14.206  12.358  0.00  0.00    +0.048 A 
ATOM     32  C   UNL     1      11.135  11.975  12.946  0.00  0.00    +0.048 A 
ATOM     33  C   UNL     1      10.792  14.308  11.457  0.00  0.00    +0.031 A 
ATOM     34  C   UNL     1      10.076  12.078  12.045  0.00  0.00    +0.031 A 
ATOM     35  C   UNL     1       9.905  13.244  11.300  0.00  0.00    +0.067 A 
BRANCH  35  14
ATOM     14  N   UNL     1       8.854  13.347  10.407  0.00  0.00    -0.220 N 
ATOM     15  N   UNL     1       9.058  13.540   9.095  0.00  0.00    -0.154 NA
ATOM     16  N   UNL     1       6.828  13.414   9.590  0.00  0.00    -0.222 NA
ATOM     38  C   UNL     1       7.525  13.274  10.693  0.00  0.00    +0.225 A 
ATOM     39  C   UNL     1       7.801  13.573   8.646  0.00  0.00    +0.245 A 
ENDBRANCH  35  14
ENDBRANCH   4  27
ENDBRANCH  23   4
ENDBRANCH  20   9
BRANCH  19   8
ATOM      8  N   UNL     1      14.972   8.761  19.589  0.00  0.00    -0.182 NA
ATOM     40  H   UNL     1      15.759   9.295  19.202  0.00  0.00    +0.148 HD
BRANCH   8   1
ATOM      1  S   UNL     1      15.179   7.795  20.970  0.00  0.00    +0.059 S 
ATOM      5  O   UNL     1      14.306   6.639  20.886  0.00  0.00    -0.153 OA
ATOM      6  O   UNL     1      15.151   8.646  22.144  0.00  0.00    -0.153 OA
BRANCH   1  24
ATOM     24  C   UNL     1      16.844   7.235  20.777  0.00  0.00    +0.105 A 
ATOM     25  C   UNL     1      17.134   6.200  19.889  0.00  0.00    +0.030 A 
ATOM     26  C   UNL     1      17.869   7.829  21.514  0.00  0.00    +0.030 A 
ATOM     28  C   UNL     1      18.449   5.758  19.738  0.00  0.00    +0.025 A 
ATOM     29  C   UNL     1      19.184   7.388  21.363  0.00  0.00    +0.025 A 
ATOM     30  C   UNL     1      19.474   6.352  20.475  0.00  0.00    +0.033 A 
BRANCH  30  13
ATOM      7  O   UNL     1      21.257   4.834  22.367  0.00  0.00    -0.276 OA
ATOM     13  N   UNL     1      20.789   5.911  20.322  0.00  0.00    -0.286 N 
ATOM     36  C   UNL     1      21.575   5.205  21.241  0.00  0.00    +0.214 C 
ATOM     37  C   UNL     1      22.950   4.912  20.693  0.00  0.00    +0.109 C 
ATOM     41  H   UNL     1      21.221   6.134  19.429  0.00  0.00    +0.155 HD
ENDBRANCH  30  13
ENDBRANCH   1  24
ENDBRANCH   8   1
ENDBRANCH  19   8
TORSDOF 8
ENDMDL
MODEL 9
REMARK VINA RESULT:      -7.3     18.133     20.383
REMARK  Name = 11886270
REMARK  9 active torsions:
REMARK  status: ('A' for Active; 'I' for Inactive)
REMARK    1  A    between atoms: S_1  and  N_8
REMARK    2  A    between atoms: S_1  and  C_24
REMARK    3  A    between atoms: O_4  and  C_23
REMARK    4  A    between atoms: O_4  and  C_27
REMARK    5  A    between atoms: N_8  and  C_19
REMARK    6  A    between atoms: N_9  and  C_20
REMARK    7  A    between atoms: N_13  and  C_30
REMARK    8  A    between atoms: N_14  and  C_35
REMARK    9  A    between atoms: C_36  and  C_37
REMARK                            x       y       z     vdW  Elec       q    Type
REMARK                         _______ _______ _______ _____ _____    ______ ____
ROOT
ATOM      2  O   UNL     1      -6.590 -12.686  16.643  0.00  0.00    -0.370 OA
ATOM      3  O   UNL     1      -5.147 -10.578  18.502  0.00  0.00    -0.370 OA
ATOM     17  C   UNL     1      -6.084 -10.491  17.416  0.00  0.00    +0.170 C 
ATOM     18  C   UNL     1      -5.721 -11.564  16.407  0.00  0.00    +0.175 C 
ATOM     19  C   UNL     1      -7.466 -10.873  17.890  0.00  0.00    +0.133 C 
ATOM     20  C   UNL     1      -4.290 -11.940  16.740  0.00  0.00    +0.171 C 
ATOM     21  C   UNL     1      -7.472 -12.381  17.732  0.00  0.00    +0.183 C 
ATOM     22  C   UNL     1      -4.182 -11.601  18.221  0.00  0.00    +0.190 C 
ENDROOT
BRANCH  20   9
ATOM      9  N   UNL     1      -3.316 -11.264  15.877  0.00  0.00    -0.187 N 
ATOM     10  N   UNL     1      -2.275 -10.598  16.394  0.00  0.00    -0.041 NA
ATOM     11  N   UNL     1      -2.234 -10.481  14.168  0.00  0.00    -0.071 NA
ATOM     12  N   UNL     1      -1.616 -10.122  15.345  0.00  0.00    -0.020 NA
ATOM     23  C   UNL     1      -3.284 -11.187  14.521  0.00  0.00    +0.342 A 
BRANCH  23   4
ATOM      4  O   UNL     1      -4.171 -11.738  13.713  0.00  0.00    -0.423 OA
BRANCH   4  27
ATOM     27  C   UNL     1      -4.911 -10.999  12.801  0.00  0.00    +0.132 A 
ATOM     31  C   UNL     1      -4.619 -11.079  11.439  0.00  0.00    +0.048 A 
ATOM     32  C   UNL     1      -5.946 -10.177  13.245  0.00  0.00    +0.048 A 
ATOM     33  C   UNL     1      -5.363 -10.336  10.522  0.00  0.00    +0.031 A 
ATOM     34  C   UNL     1      -6.689  -9.434  12.328  0.00  0.00    +0.031 A 
ATOM     35  C   UNL     1      -6.397  -9.514  10.966  0.00  0.00    +0.067 A 
BRANCH  35  14
ATOM     14  N   UNL     1      -7.133  -8.777  10.057  0.00  0.00    -0.220 N 
ATOM     15  N   UNL     1      -6.545  -8.072   9.078  0.00  0.00    -0.154 NA
ATOM     16  N   UNL     1      -8.823  -7.872   9.007  0.00  0.00    -0.222 NA
ATOM     38  C   UNL     1      -8.487  -8.652  10.008  0.00  0.00    +0.225 A 
ATOM     39  C   UNL     1      -7.611  -7.544   8.471  0.00  0.00    +0.245 A 
ENDBRANCH  35  14
ENDBRANCH   4  27
ENDBRANCH  23   4
ENDBRANCH  20   9
BRANCH  19   8
ATOM      8  N   UNL     1      -8.488 -10.276  16.999  0.00  0.00    -0.182 NA
ATOM     40  H   UNL     1      -8.159  -9.730  16.194  0.00  0.00    +0.148 HD
BRANCH   8   1
ATOM      1  S   UNL     1     -10.099 -10.156  17.524  0.00  0.00    +0.059 S 
ATOM      5  O   UNL     1     -10.124  -9.852  18.941  0.00  0.00    -0.153 OA
ATOM      6  O   UNL     1     -10.843 -11.289  17.008  0.00  0.00    -0.153 OA
BRANCH   1  24
ATOM     24  C   UNL     1     -10.662  -8.727  16.649  0.00  0.00    +0.105 A 
ATOM     25  C   UNL     1      -9.767  -7.708  16.327  0.00  0.00    +0.030 A 
ATOM     26  C   UNL     1     -12.003  -8.619  16.281  0.00  0.00    +0.030 A 
ATOM     28  C   UNL     1     -10.212  -6.580  15.638  0.00  0.00    +0.025 A 
ATOM     29  C   UNL     1     -12.449  -7.491  15.591  0.00  0.00    +0.025 A 
ATOM     30  C   UNL     1     -11.553  -6.471  15.270  0.00  0.00    +0.033 A 
BRANCH  30  13
ATOM      7  O   UNL     1     -12.343  -6.133  12.384  0.00  0.00    -0.276 OA
ATOM     13  N   UNL     1     -11.998  -5.344  14.579  0.00  0.00    -0.286 N 
ATOM     36  C   UNL     1     -12.353  -5.242  13.228  0.00  0.00    +0.214 C 
ATOM     37  C   UNL     1     -12.785  -3.842  12.867  0.00  0.00    +0.109 C 
ATOM     41  H   UNL     1     -12.070  -4.495  15.135  0.00  0.00    +0.155 HD
ENDBRANCH  30  13
ENDBRANCH   1  24
ENDBRANCH   8   1
ENDBRANCH  19   8
TORSDOF 8
ENDMDL
MODEL 10
REMARK VINA RESULT:      -7.3     17.793     19.735
REMARK  Name = 11886270
REMARK  9 active torsions:
REMARK  status: ('A' for Active; 'I' for Inactive)
REMARK    1  A    between atoms: S_1  and  N_8
REMARK    2  A    between atoms: S_1  and  C_24
REMARK    3  A    between atoms: O_4  and  C_23
REMARK    4  A    between atoms: O_4  and  C_27
REMARK    5  A    between atoms: N_8  and  C_19
REMARK    6  A    between atoms: N_9  and  C_20
REMARK    7  A    between atoms: N_13  and  C_30
REMARK    8  A    between atoms: N_14  and  C_35
REMARK    9  A    between atoms: C_36  and  C_37
REMARK                            x       y       z     vdW  Elec       q    Type
REMARK                         _______ _______ _______ _____ _____    ______ ____
ROOT
ATOM      2  O   UNL     1     -11.060  -9.518  19.298  0.00  0.00    -0.370 OA
ATOM      3  O   UNL     1     -10.714 -11.221  16.661  0.00  0.00    -0.370 OA
ATOM     17  C   UNL     1      -9.875 -10.314  17.393  0.00  0.00    +0.170 C 
ATOM     18  C   UNL     1     -10.756  -9.201  17.928  0.00  0.00    +0.175 C 
ATOM     19  C   UNL     1      -9.331 -10.990  18.629  0.00  0.00    +0.133 C 
ATOM     20  C   UNL     1     -12.018  -9.269  17.090  0.00  0.00    +0.171 C 
ATOM     21  C   UNL     1     -10.424 -10.753  19.652  0.00  0.00    +0.183 C 
ATOM     22  C   UNL     1     -12.061 -10.728  16.653  0.00  0.00    +0.190 C 
ENDROOT
BRANCH  20   9
ATOM      9  N   UNL     1     -12.018  -8.294  15.996  0.00  0.00    -0.187 N 
ATOM     10  N   UNL     1     -12.456  -7.041  16.183  0.00  0.00    -0.041 NA
ATOM     11  N   UNL     1     -11.795  -7.318  14.072  0.00  0.00    -0.071 NA
ATOM     12  N   UNL     1     -12.316  -6.449  15.004  0.00  0.00    -0.020 NA
ATOM     23  C   UNL     1     -11.618  -8.454  14.707  0.00  0.00    +0.342 A 
BRANCH  23   4
ATOM      4  O   UNL     1     -11.138  -9.574  14.201  0.00  0.00    -0.423 OA
BRANCH   4  27
ATOM     27  C   UNL     1      -9.984  -9.612  13.430  0.00  0.00    +0.132 A 
ATOM     31  C   UNL     1      -8.732  -9.563  14.046  0.00  0.00    +0.048 A 
ATOM     32  C   UNL     1     -10.076  -9.698  12.042  0.00  0.00    +0.048 A 
ATOM     33  C   UNL     1      -7.573  -9.600  13.271  0.00  0.00    +0.031 A 
ATOM     34  C   UNL     1      -8.916  -9.735  11.268  0.00  0.00    +0.031 A 
ATOM     35  C   UNL     1      -7.665  -9.686  11.882  0.00  0.00    +0.067 A 
BRANCH  35  14
ATOM     14  N   UNL     1      -6.515  -9.722  11.115  0.00  0.00    -0.220 N 
ATOM     15  N   UNL     1      -5.627  -8.716  11.125  0.00  0.00    -0.154 NA
ATOM     16  N   UNL     1      -4.975 -10.399   9.720  0.00  0.00    -0.222 NA
ATOM     38  C   UNL     1      -6.121 -10.718  10.276  0.00  0.00    +0.225 A 
ATOM     39  C   UNL     1      -4.715  -9.176  10.265  0.00  0.00    +0.245 A 
ENDBRANCH  35  14
ENDBRANCH   4  27
ENDBRANCH  23   4
ENDBRANCH  20   9
BRANCH  19   8
ATOM      8  N   UNL     1      -8.086 -10.317  19.066  0.00  0.00    -0.182 NA
ATOM     40  H   UNL     1      -7.995  -9.312  18.875  0.00  0.00    +0.148 HD
BRANCH   8   1
ATOM      1  S   UNL     1      -6.726 -11.244  19.482  0.00  0.00    +0.059 S 
ATOM      5  O   UNL     1      -7.088 -12.649  19.504  0.00  0.00    -0.153 OA
ATOM      6  O   UNL     1      -6.081 -10.639  20.632  0.00  0.00    -0.153 OA
BRANCH   1  24
ATOM     24  C   UNL     1      -5.664 -10.976  18.094  0.00  0.00    +0.105 A 
ATOM     25  C   UNL     1      -4.408 -11.581  18.050  0.00  0.00    +0.030 A 
ATOM     26  C   UNL     1      -6.082 -10.159  17.044  0.00  0.00    +0.030 A 
ATOM     28  C   UNL     1      -3.570 -11.369  16.955  0.00  0.00    +0.025 A 
ATOM     29  C   UNL     1      -5.244  -9.947  15.949  0.00  0.00    +0.025 A 
ATOM     30  C   UNL     1      -3.988 -10.552  15.905  0.00  0.00    +0.033 A 
BRANCH  30  13
ATOM      7  O   UNL     1      -4.154 -11.599  13.087  0.00  0.00    -0.276 OA
ATOM     13  N   UNL     1      -3.150 -10.341  14.809  0.00  0.00    -0.286 N 
ATOM     36  C   UNL     1      -3.275 -10.856  13.513  0.00  0.00    +0.214 C 
ATOM     37  C   UNL     1      -2.158 -10.387  12.614  0.00  0.00    +0.109 C 
ATOM     41  H   UNL     1      -2.351  -9.735  14.984  0.00  0.00    +0.155 HD
ENDBRANCH  30  13
ENDBRANCH   1  24
ENDBRANCH   8   1
ENDBRANCH  19   8
TORSDOF 8
ENDMDL
