MODEL 1
REMARK VINA RESULT:      -6.9      0.000      0.000
REMARK  Name = 44716332
REMARK  9 active torsions:
REMARK  status: ('A' for Active; 'I' for Inactive)
REMARK    1  A    between atoms: O_2  and  C_29
REMARK    2  A    between atoms: O_2  and  C_30
REMARK    3  A    between atoms: N_4  and  C_19
REMARK    4  A    between atoms: N_5  and  C_14
REMARK    5  A    between atoms: N_5  and  C_18
REMARK    6  A    between atoms: C_8  and  C_15
REMARK    7  A    between atoms: C_9  and  C_14
REMARK    8  A    between atoms: C_17  and  C_20
REMARK    9  A    between atoms: C_18  and  C_21
REMARK                            x       y       z     vdW  Elec       q    Type
REMARK                         _______ _______ _______ _____ _____    ______ ____
ROOT
ATOM      3  N   UNL     1      -5.894 -10.295  18.104  0.00  0.00    -0.298 NA
ATOM      7  C   UNL     1      -5.336 -12.322  16.567  0.00  0.00    +0.002 C 
ATOM      8  C   UNL     1      -4.319 -11.170  16.338  0.00  0.00    +0.055 C 
ATOM      9  C   UNL     1      -7.116 -10.737  17.381  0.00  0.00    +0.071 C 
ATOM     10  C   UNL     1      -6.765 -11.797  16.316  0.00  0.00    +0.024 C 
ATOM     11  C   UNL     1      -5.248 -12.703  18.061  0.00  0.00    +0.019 C 
ATOM     12  C   UNL     1      -4.832  -9.934  17.132  0.00  0.00    +0.094 C 
ATOM     13  C   UNL     1      -5.409 -11.436  18.917  0.00  0.00    +0.085 C 
ENDROOT
BRANCH   8  15
ATOM      4  N   UNL     1      -2.648 -10.672  14.494  0.00  0.00    -0.270 N 
ATOM      6  N   UNL     1      -2.526 -10.360  13.193  0.00  0.00    -0.171 NA
ATOM     15  C   UNL     1      -3.939 -10.819  14.907  0.00  0.00    +0.044 A 
ATOM     16  C   UNL     1      -4.716 -10.588  13.798  0.00  0.00    +0.053 A 
ATOM     17  C   UNL     1      -3.793 -10.310  12.773  0.00  0.00    +0.100 A 
ATOM     19  C   UNL     1      -1.457 -10.816  15.299  0.00  0.00    +0.172 C 
BRANCH  17  20
ATOM      1  S   UNL     1      -5.628 -10.413  10.648  0.00  0.00    -0.095 S 
ATOM     20  C   UNL     1      -4.135  -9.995  11.373  0.00  0.00    +0.039 A 
ATOM     22  C   UNL     1      -3.301  -9.336  10.498  0.00  0.00    +0.018 A 
ATOM     25  C   UNL     1      -3.895  -9.171   9.214  0.00  0.00    +0.008 A 
ATOM     26  C   UNL     1      -5.161  -9.711   9.157  0.00  0.00    +0.046 A 
ENDBRANCH  17  20
ENDBRANCH   8  15
BRANCH   9  14
ATOM     14  C   UNL     1      -7.895  -9.564  16.784  0.00  0.00    +0.100 C 
BRANCH  14   5
ATOM      5  N   UNL     1      -8.619  -8.844  17.820  0.00  0.00    -0.311 NA
ATOM     31  H   UNL     1      -8.564  -7.845  17.627  0.00  0.00    +0.122 HD
BRANCH   5  18
ATOM     18  C   UNL     1     -10.020  -9.244  17.853  0.00  0.00    +0.116 C 
BRANCH  18  21
ATOM     21  C   UNL     1     -10.889  -8.312  17.050  0.00  0.00    -0.033 A 
ATOM     23  C   UNL     1     -12.157  -8.722  16.638  0.00  0.00    +0.008 A 
ATOM     24  C   UNL     1     -10.425  -7.039  16.719  0.00  0.00    +0.008 A 
ATOM     27  C   UNL     1     -12.961  -7.859  15.895  0.00  0.00    +0.046 A 
ATOM     28  C   UNL     1     -11.230  -6.175  15.976  0.00  0.00    +0.046 A 
ATOM     29  C   UNL     1     -12.498  -6.585  15.563  0.00  0.00    +0.120 A 
BRANCH  29   2
ATOM      2  O   UNL     1     -13.283  -5.743  14.839  0.00  0.00    -0.495 OA
ATOM     30  C   UNL     1     -12.665  -5.047  13.757  0.00  0.00    +0.277 C 
ENDBRANCH  29   2
ENDBRANCH  18  21
ENDBRANCH   5  18
ENDBRANCH  14   5
ENDBRANCH   9  14
TORSDOF 7
ENDMDL
MODEL 2
REMARK VINA RESULT:      -6.7     27.375     30.749
REMARK  Name = 44716332
REMARK  9 active torsions:
REMARK  status: ('A' for Active; 'I' for Inactive)
REMARK    1  A    between atoms: O_2  and  C_29
REMARK    2  A    between atoms: O_2  and  C_30
REMARK    3  A    between atoms: N_4  and  C_19
REMARK    4  A    between atoms: N_5  and  C_14
REMARK    5  A    between atoms: N_5  and  C_18
REMARK    6  A    between atoms: C_8  and  C_15
REMARK    7  A    between atoms: C_9  and  C_14
REMARK    8  A    between atoms: C_17  and  C_20
REMARK    9  A    between atoms: C_18  and  C_21
REMARK                            x       y       z     vdW  Elec       q    Type
REMARK                         _______ _______ _______ _____ _____    ______ ____
ROOT
ATOM      3  N   UNL     1      14.657   7.923  18.497  0.00  0.00    -0.298 NA
ATOM      7  C   UNL     1      12.135   8.388  18.956  0.00  0.00    +0.002 C 
ATOM      8  C   UNL     1      12.942   9.715  18.958  0.00  0.00    +0.055 C 
ATOM      9  C   UNL     1      14.163   7.027  19.576  0.00  0.00    +0.071 C 
ATOM     10  C   UNL     1      12.734   7.426  20.004  0.00  0.00    +0.024 C 
ATOM     11  C   UNL     1      12.349   7.739  17.571  0.00  0.00    +0.019 C 
ATOM     12  C   UNL     1      14.450   9.342  18.882  0.00  0.00    +0.094 C 
ATOM     13  C   UNL     1      13.856   7.653  17.279  0.00  0.00    +0.085 C 
ENDROOT
BRANCH   8  15
ATOM      4  N   UNL     1      12.904  12.064  19.919  0.00  0.00    -0.270 N 
ATOM      6  N   UNL     1      12.580  12.790  21.003  0.00  0.00    -0.171 NA
ATOM     15  C   UNL     1      12.654  10.731  20.055  0.00  0.00    +0.044 A 
ATOM     16  C   UNL     1      12.130  10.573  21.315  0.00  0.00    +0.053 A 
ATOM     17  C   UNL     1      12.108  11.874  21.852  0.00  0.00    +0.100 A 
ATOM     19  C   UNL     1      13.459  12.730  18.765  0.00  0.00    +0.172 C 
BRANCH  17  20
ATOM      1  S   UNL     1      11.415  13.854  23.721  0.00  0.00    -0.095 S 
ATOM     20  C   UNL     1      11.625  12.238  23.197  0.00  0.00    +0.039 A 
ATOM     22  C   UNL     1      11.292  11.329  24.176  0.00  0.00    +0.018 A 
ATOM     25  C   UNL     1      10.858  11.967  25.374  0.00  0.00    +0.008 A 
ATOM     26  C   UNL     1      10.876  13.340  25.264  0.00  0.00    +0.046 A 
ENDBRANCH  17  20
ENDBRANCH   8  15
BRANCH   9  14
ATOM     14  C   UNL     1      15.119   6.967  20.768  0.00  0.00    +0.100 C 
BRANCH  14   5
ATOM      5  N   UNL     1      16.484   6.733  20.323  0.00  0.00    -0.311 NA
ATOM     31  H   UNL     1      16.580   7.065  19.364  0.00  0.00    +0.122 HD
BRANCH   5  18
ATOM     18  C   UNL     1      17.438   7.440  21.168  0.00  0.00    +0.116 C 
BRANCH  18  21
ATOM     21  C   UNL     1      18.732   6.682  21.309  0.00  0.00    -0.033 A 
ATOM     23  C   UNL     1      19.132   5.793  20.310  0.00  0.00    +0.008 A 
ATOM     24  C   UNL     1      19.530   6.869  22.437  0.00  0.00    +0.008 A 
ATOM     27  C   UNL     1      20.330   5.091  20.441  0.00  0.00    +0.046 A 
ATOM     28  C   UNL     1      20.728   6.166  22.568  0.00  0.00    +0.046 A 
ATOM     29  C   UNL     1      21.129   5.278  21.570  0.00  0.00    +0.120 A 
BRANCH  29   2
ATOM      2  O   UNL     1      22.298   4.594  21.696  0.00  0.00    -0.495 OA
ATOM     30  C   UNL     1      23.267   4.766  20.663  0.00  0.00    +0.277 C 
ENDBRANCH  29   2
ENDBRANCH  18  21
ENDBRANCH   5  18
ENDBRANCH  14   5
ENDBRANCH   9  14
TORSDOF 7
ENDMDL
MODEL 3
REMARK VINA RESULT:      -6.7      2.573      7.089
REMARK  Name = 44716332
REMARK  9 active torsions:
REMARK  status: ('A' for Active; 'I' for Inactive)
REMARK    1  A    between atoms: O_2  and  C_29
REMARK    2  A    between atoms: O_2  and  C_30
REMARK    3  A    between atoms: N_4  and  C_19
REMARK    4  A    between atoms: N_5  and  C_14
REMARK    5  A    between atoms: N_5  and  C_18
REMARK    6  A    between atoms: C_8  and  C_15
REMARK    7  A    between atoms: C_9  and  C_14
REMARK    8  A    between atoms: C_17  and  C_20
REMARK    9  A    between atoms: C_18  and  C_21
REMARK                            x       y       z     vdW  Elec       q    Type
REMARK                         _______ _______ _______ _____ _____    ______ ____
ROOT
ATOM      3  N   UNL     1      -5.179 -12.819  17.122  0.00  0.00    -0.298 NA
ATOM      7  C   UNL     1      -5.533 -10.713  18.614  0.00  0.00    +0.002 C 
ATOM      8  C   UNL     1      -6.883 -11.444  18.375  0.00  0.00    +0.055 C 
ATOM      9  C   UNL     1      -4.533 -11.636  16.493  0.00  0.00    +0.071 C 
ATOM     10  C   UNL     1      -4.906 -10.345  17.252  0.00  0.00    +0.024 C 
ATOM     11  C   UNL     1      -4.589 -11.733  19.287  0.00  0.00    +0.019 C 
ATOM     12  C   UNL     1      -6.627 -12.559  17.321  0.00  0.00    +0.094 C 
ATOM     13  C   UNL     1      -4.558 -13.024  18.452  0.00  0.00    +0.085 C 
ENDROOT
BRANCH   8  15
ATOM      4  N   UNL     1      -9.280 -10.687  18.726  0.00  0.00    -0.270 N 
ATOM      6  N   UNL     1     -10.238  -9.862  18.271  0.00  0.00    -0.171 NA
ATOM     15  C   UNL     1      -8.106 -10.602  18.038  0.00  0.00    +0.044 A 
ATOM     16  C   UNL     1      -8.310  -9.655  17.064  0.00  0.00    +0.053 A 
ATOM     17  C   UNL     1      -9.639  -9.233  17.256  0.00  0.00    +0.100 A 
ATOM     19  C   UNL     1      -9.568 -11.548  19.850  0.00  0.00    +0.172 C 
BRANCH  17  20
ATOM      1  S   UNL     1     -10.837  -8.462  14.834  0.00  0.00    -0.095 S 
ATOM     20  C   UNL     1     -10.338  -8.213  16.453  0.00  0.00    +0.039 A 
ATOM     22  C   UNL     1     -10.667  -6.956  16.908  0.00  0.00    +0.018 A 
ATOM     25  C   UNL     1     -11.338  -6.185  15.915  0.00  0.00    +0.008 A 
ATOM     26  C   UNL     1     -11.495  -6.884  14.738  0.00  0.00    +0.046 A 
ENDBRANCH  17  20
ENDBRANCH   8  15
BRANCH   9  14
ATOM     14  C   UNL     1      -4.842 -11.528  14.999  0.00  0.00    +0.100 C 
BRANCH  14   5
ATOM      5  N   UNL     1      -4.233 -10.337  14.431  0.00  0.00    -0.311 NA
ATOM     31  H   UNL     1      -3.487 -10.020  15.050  0.00  0.00    +0.122 HD
BRANCH   5  18
ATOM     18  C   UNL     1      -3.672 -10.613  13.114  0.00  0.00    +0.116 C 
BRANCH  18  21
ATOM     21  C   UNL     1      -4.435  -9.911  12.021  0.00  0.00    -0.033 A 
ATOM     23  C   UNL     1      -5.755  -9.513  12.236  0.00  0.00    +0.008 A 
ATOM     24  C   UNL     1      -3.821  -9.659  10.794  0.00  0.00    +0.008 A 
ATOM     27  C   UNL     1      -6.460  -8.864  11.224  0.00  0.00    +0.046 A 
ATOM     28  C   UNL     1      -4.527  -9.010   9.781  0.00  0.00    +0.046 A 
ATOM     29  C   UNL     1      -5.847  -8.612   9.996  0.00  0.00    +0.120 A 
BRANCH  29   2
ATOM      2  O   UNL     1      -6.536  -7.977   9.009  0.00  0.00    -0.495 OA
ATOM     30  C   UNL     1      -7.959  -8.078   9.042  0.00  0.00    +0.277 C 
ENDBRANCH  29   2
ENDBRANCH  18  21
ENDBRANCH   5  18
ENDBRANCH  14   5
ENDBRANCH   9  14
TORSDOF 7
ENDMDL
MODEL 4
REMARK VINA RESULT:      -6.6      3.359      6.846
REMARK  Name = 44716332
REMARK  9 active torsions:
REMARK  status: ('A' for Active; 'I' for Inactive)
REMARK    1  A    between atoms: O_2  and  C_29
REMARK    2  A    between atoms: O_2  and  C_30
REMARK    3  A    between atoms: N_4  and  C_19
REMARK    4  A    between atoms: N_5  and  C_14
REMARK    5  A    between atoms: N_5  and  C_18
REMARK    6  A    between atoms: C_8  and  C_15
REMARK    7  A    between atoms: C_9  and  C_14
REMARK    8  A    between atoms: C_17  and  C_20
REMARK    9  A    between atoms: C_18  and  C_21
REMARK                            x       y       z     vdW  Elec       q    Type
REMARK                         _______ _______ _______ _____ _____    ______ ____
ROOT
ATOM      3  N   UNL     1      -4.455 -12.399  17.014  0.00  0.00    -0.298 NA
ATOM      7  C   UNL     1      -5.798 -10.191  17.338  0.00  0.00    +0.002 C 
ATOM      8  C   UNL     1      -6.573 -11.167  16.411  0.00  0.00    +0.055 C 
ATOM      9  C   UNL     1      -3.577 -11.227  16.756  0.00  0.00    +0.071 C 
ATOM     10  C   UNL     1      -4.401  -9.922  16.740  0.00  0.00    +0.024 C 
ATOM     11  C   UNL     1      -5.584 -10.925  18.679  0.00  0.00    +0.019 C 
ATOM     12  C   UNL     1      -5.628 -12.364  16.104  0.00  0.00    +0.094 C 
ATOM     13  C   UNL     1      -4.949 -12.299  18.409  0.00  0.00    +0.085 C 
ENDROOT
BRANCH   8  15
ATOM      4  N   UNL     1      -8.519 -10.198  15.101  0.00  0.00    -0.270 N 
ATOM      6  N   UNL     1      -8.896  -9.735  13.897  0.00  0.00    -0.171 NA
ATOM     15  C   UNL     1      -7.219 -10.605  15.152  0.00  0.00    +0.044 A 
ATOM     16  C   UNL     1      -6.709 -10.393  13.894  0.00  0.00    +0.053 A 
ATOM     17  C   UNL     1      -7.786  -9.856  13.164  0.00  0.00    +0.100 A 
ATOM     19  C   UNL     1      -9.479 -10.221  16.180  0.00  0.00    +0.172 C 
BRANCH  17  20
ATOM      1  S   UNL     1      -9.094  -9.549  10.697  0.00  0.00    -0.095 S 
ATOM     20  C   UNL     1      -7.745  -9.455  11.746  0.00  0.00    +0.039 A 
ATOM     22  C   UNL     1      -6.628  -8.964  11.109  0.00  0.00    +0.018 A 
ATOM     25  C   UNL     1      -6.882  -8.660   9.740  0.00  0.00    +0.008 A 
ATOM     26  C   UNL     1      -8.185  -8.932   9.384  0.00  0.00    +0.046 A 
ENDBRANCH  17  20
ENDBRANCH   8  15
BRANCH   9  14
ATOM     14  C   UNL     1      -2.744 -11.392  15.484  0.00  0.00    +0.100 C 
BRANCH  14   5
ATOM      5  N   UNL     1      -3.002 -10.304  14.554  0.00  0.00    -0.311 NA
ATOM     31  H   UNL     1      -2.946  -9.420  15.057  0.00  0.00    +0.122 HD
BRANCH   5  18
ATOM     18  C   UNL     1      -2.025 -10.298  13.472  0.00  0.00    +0.116 C 
BRANCH  18  21
ATOM     21  C   UNL     1      -2.673 -10.519  12.130  0.00  0.00    -0.033 A 
ATOM     23  C   UNL     1      -2.728  -9.478  11.202  0.00  0.00    +0.008 A 
ATOM     24  C   UNL     1      -3.218 -11.764  11.815  0.00  0.00    +0.008 A 
ATOM     27  C   UNL     1      -3.327  -9.683   9.960  0.00  0.00    +0.046 A 
ATOM     28  C   UNL     1      -3.818 -11.968  10.573  0.00  0.00    +0.046 A 
ATOM     29  C   UNL     1      -3.873 -10.928   9.645  0.00  0.00    +0.120 A 
BRANCH  29   2
ATOM      2  O   UNL     1      -4.457 -11.128   8.433  0.00  0.00    -0.495 OA
ATOM     30  C   UNL     1      -5.685 -11.853   8.415  0.00  0.00    +0.277 C 
ENDBRANCH  29   2
ENDBRANCH  18  21
ENDBRANCH   5  18
ENDBRANCH  14   5
ENDBRANCH   9  14
TORSDOF 7
ENDMDL
MODEL 5
REMARK VINA RESULT:      -6.6     23.523     27.220
REMARK  Name = 44716332
REMARK  9 active torsions:
REMARK  status: ('A' for Active; 'I' for Inactive)
REMARK    1  A    between atoms: O_2  and  C_29
REMARK    2  A    between atoms: O_2  and  C_30
REMARK    3  A    between atoms: N_4  and  C_19
REMARK    4  A    between atoms: N_5  and  C_14
REMARK    5  A    between atoms: N_5  and  C_18
REMARK    6  A    between atoms: C_8  and  C_15
REMARK    7  A    between atoms: C_9  and  C_14
REMARK    8  A    between atoms: C_17  and  C_20
REMARK    9  A    between atoms: C_18  and  C_21
REMARK                            x       y       z     vdW  Elec       q    Type
REMARK                         _______ _______ _______ _____ _____    ______ ____
ROOT
ATOM      3  N   UNL     1      13.751   5.820   1.390  0.00  0.00    -0.298 NA
ATOM      7  C   UNL     1      12.450   3.590   1.045  0.00  0.00    +0.002 C 
ATOM      8  C   UNL     1      12.657   4.315  -0.314  0.00  0.00    +0.055 C 
ATOM      9  C   UNL     1      12.612   5.743   2.343  0.00  0.00    +0.071 C 
ATOM     10  C   UNL     1      11.710   4.533   2.017  0.00  0.00    +0.024 C 
ATOM     11  C   UNL     1      13.854   3.340   1.635  0.00  0.00    +0.019 C 
ATOM     12  C   UNL     1      13.254   5.718  -0.005  0.00  0.00    +0.094 C 
ATOM     13  C   UNL     1      14.640   4.662   1.650  0.00  0.00    +0.085 C 
ENDROOT
BRANCH   8  15
ATOM      4  N   UNL     1      11.150   3.373  -2.125  0.00  0.00    -0.270 N 
ATOM      6  N   UNL     1      10.080   3.636  -2.895  0.00  0.00    -0.171 NA
ATOM     15  C   UNL     1      11.481   4.388  -1.277  0.00  0.00    +0.044 A 
ATOM     16  C   UNL     1      10.564   5.385  -1.508  0.00  0.00    +0.053 A 
ATOM     17  C   UNL     1       9.726   4.866  -2.513  0.00  0.00    +0.100 A 
ATOM     19  C   UNL     1      11.818   2.100  -2.259  0.00  0.00    +0.172 C 
BRANCH  17  20
ATOM      1  S   UNL     1       7.909   5.157  -4.636  0.00  0.00    -0.095 S 
ATOM     20  C   UNL     1       8.572   5.562  -3.111  0.00  0.00    +0.039 A 
ATOM     22  C   UNL     1       7.903   6.609  -2.517  0.00  0.00    +0.018 A 
ATOM     25  C   UNL     1       6.830   7.085  -3.326  0.00  0.00    +0.008 A 
ATOM     26  C   UNL     1       6.721   6.384  -4.506  0.00  0.00    +0.046 A 
ENDBRANCH  17  20
ENDBRANCH   8  15
BRANCH   9  14
ATOM     14  C   UNL     1      11.816   7.048   2.406  0.00  0.00    +0.100 C 
BRANCH  14   5
ATOM      5  N   UNL     1      10.552   6.848   3.096  0.00  0.00    -0.311 NA
ATOM     31  H   UNL     1      10.420   5.851   3.262  0.00  0.00    +0.122 HD
BRANCH   5  18
ATOM     18  C   UNL     1      10.537   7.548   4.374  0.00  0.00    +0.116 C 
BRANCH  18  21
ATOM     21  C   UNL     1      10.265   6.612   5.523  0.00  0.00    -0.033 A 
ATOM     23  C   UNL     1      10.178   5.238   5.298  0.00  0.00    +0.008 A 
ATOM     24  C   UNL     1      10.102   7.120   6.812  0.00  0.00    +0.008 A 
ATOM     27  C   UNL     1       9.927   4.372   6.361  0.00  0.00    +0.046 A 
ATOM     28  C   UNL     1       9.850   6.254   7.876  0.00  0.00    +0.046 A 
ATOM     29  C   UNL     1       9.763   4.880   7.651  0.00  0.00    +0.120 A 
BRANCH  29   2
ATOM      2  O   UNL     1       9.519   4.034   8.689  0.00  0.00    -0.495 OA
ATOM     30  C   UNL     1       9.320   4.623   9.973  0.00  0.00    +0.277 C 
ENDBRANCH  29   2
ENDBRANCH  18  21
ENDBRANCH   5  18
ENDBRANCH  14   5
ENDBRANCH   9  14
TORSDOF 7
ENDMDL
MODEL 6
REMARK VINA RESULT:      -6.5     27.215     29.916
REMARK  Name = 44716332
REMARK  9 active torsions:
REMARK  status: ('A' for Active; 'I' for Inactive)
REMARK    1  A    between atoms: O_2  and  C_29
REMARK    2  A    between atoms: O_2  and  C_30
REMARK    3  A    between atoms: N_4  and  C_19
REMARK    4  A    between atoms: N_5  and  C_14
REMARK    5  A    between atoms: N_5  and  C_18
REMARK    6  A    between atoms: C_8  and  C_15
REMARK    7  A    between atoms: C_9  and  C_14
REMARK    8  A    between atoms: C_17  and  C_20
REMARK    9  A    between atoms: C_18  and  C_21
REMARK                            x       y       z     vdW  Elec       q    Type
REMARK                         _______ _______ _______ _____ _____    ______ ____
ROOT
ATOM      3  N   UNL     1      12.180  11.829  24.755  0.00  0.00    -0.298 NA
ATOM      7  C   UNL     1      11.099  12.409  22.457  0.00  0.00    +0.002 C 
ATOM      8  C   UNL     1      11.096  10.872  22.688  0.00  0.00    +0.055 C 
ATOM      9  C   UNL     1      13.069  12.745  23.992  0.00  0.00    +0.071 C 
ATOM     10  C   UNL     1      12.547  12.935  22.551  0.00  0.00    +0.024 C 
ATOM     11  C   UNL     1      10.312  13.036  23.628  0.00  0.00    +0.019 C 
ATOM     12  C   UNL     1      11.931  10.594  23.970  0.00  0.00    +0.094 C 
ATOM     13  C   UNL     1      10.883  12.518  24.958  0.00  0.00    +0.085 C 
ENDROOT
BRANCH   8  15
ATOM      4  N   UNL     1      11.121   8.664  21.437  0.00  0.00    -0.270 N 
ATOM      6  N   UNL     1      11.583   8.041  20.340  0.00  0.00    -0.171 NA
ATOM     15  C   UNL     1      11.499   9.970  21.530  0.00  0.00    +0.044 A 
ATOM     16  C   UNL     1      12.262  10.220  20.415  0.00  0.00    +0.053 A 
ATOM     17  C   UNL     1      12.279   8.997  19.719  0.00  0.00    +0.100 A 
ATOM     19  C   UNL     1      10.304   7.928  22.374  0.00  0.00    +0.172 C 
BRANCH  17  20
ATOM      1  S   UNL     1      12.925   9.826  17.113  0.00  0.00    -0.095 S 
ATOM     20  C   UNL     1      12.972   8.747  18.442  0.00  0.00    +0.039 A 
ATOM     22  C   UNL     1      13.728   7.628  18.173  0.00  0.00    +0.018 A 
ATOM     25  C   UNL     1      14.277   7.656  16.858  0.00  0.00    +0.008 A 
ATOM     26  C   UNL     1      13.919   8.796  16.172  0.00  0.00    +0.046 A 
ENDBRANCH  17  20
ENDBRANCH   8  15
BRANCH   9  14
ATOM     14  C   UNL     1      14.530  12.293  24.015  0.00  0.00    +0.100 C 
BRANCH  14   5
ATOM      5  N   UNL     1      15.010  12.032  22.668  0.00  0.00    -0.311 NA
ATOM     31  H   UNL     1      14.786  12.832  22.077  0.00  0.00    +0.122 HD
BRANCH   5  18
ATOM     18  C   UNL     1      16.453  11.824  22.658  0.00  0.00    +0.116 C 
BRANCH  18  21
ATOM     21  C   UNL     1      16.828  10.526  21.991  0.00  0.00    -0.033 A 
ATOM     23  C   UNL     1      15.840   9.726  21.416  0.00  0.00    +0.008 A 
ATOM     24  C   UNL     1      18.163  10.124  21.949  0.00  0.00    +0.008 A 
ATOM     27  C   UNL     1      16.187   8.525  20.799  0.00  0.00    +0.046 A 
ATOM     28  C   UNL     1      18.511   8.923  21.332  0.00  0.00    +0.046 A 
ATOM     29  C   UNL     1      17.523   8.123  20.757  0.00  0.00    +0.120 A 
BRANCH  29   2
ATOM      2  O   UNL     1      17.862   6.951  20.154  0.00  0.00    -0.495 OA
ATOM     30  C   UNL     1      16.821   6.240  19.486  0.00  0.00    +0.277 C 
ENDBRANCH  29   2
ENDBRANCH  18  21
ENDBRANCH   5  18
ENDBRANCH  14   5
ENDBRANCH   9  14
TORSDOF 7
ENDMDL
MODEL 7
REMARK VINA RESULT:      -6.5      3.457      4.059
REMARK  Name = 44716332
REMARK  9 active torsions:
REMARK  status: ('A' for Active; 'I' for Inactive)
REMARK    1  A    between atoms: O_2  and  C_29
REMARK    2  A    between atoms: O_2  and  C_30
REMARK    3  A    between atoms: N_4  and  C_19
REMARK    4  A    between atoms: N_5  and  C_14
REMARK    5  A    between atoms: N_5  and  C_18
REMARK    6  A    between atoms: C_8  and  C_15
REMARK    7  A    between atoms: C_9  and  C_14
REMARK    8  A    between atoms: C_17  and  C_20
REMARK    9  A    between atoms: C_18  and  C_21
REMARK                            x       y       z     vdW  Elec       q    Type
REMARK                         _______ _______ _______ _____ _____    ______ ____
ROOT
ATOM      3  N   UNL     1      -6.451 -10.530  17.932  0.00  0.00    -0.298 NA
ATOM      7  C   UNL     1      -4.392 -12.042  17.424  0.00  0.00    +0.002 C 
ATOM      8  C   UNL     1      -4.257 -10.676  16.695  0.00  0.00    +0.055 C 
ATOM      9  C   UNL     1      -6.905 -11.878  17.499  0.00  0.00    +0.071 C 
ATOM     10  C   UNL     1      -5.711 -12.719  16.997  0.00  0.00    +0.024 C 
ATOM     11  C   UNL     1      -4.508 -11.731  18.932  0.00  0.00    +0.019 C 
ATOM     12  C   UNL     1      -5.602  -9.917  16.879  0.00  0.00    +0.094 C 
ATOM     13  C   UNL     1      -5.625 -10.697  19.152  0.00  0.00    +0.085 C 
ENDROOT
BRANCH   8  15
ATOM      4  N   UNL     1      -2.478 -10.570  14.888  0.00  0.00    -0.270 N 
ATOM      6  N   UNL     1      -2.274 -10.590  13.559  0.00  0.00    -0.171 NA
ATOM     15  C   UNL     1      -3.789 -10.678  15.246  0.00  0.00    +0.044 A 
ATOM     16  C   UNL     1      -4.493 -10.775  14.070  0.00  0.00    +0.053 A 
ATOM     17  C   UNL     1      -3.509 -10.715  13.065  0.00  0.00    +0.100 A 
ATOM     19  C   UNL     1      -1.343 -10.443  15.772  0.00  0.00    +0.172 C 
BRANCH  17  20
ATOM      1  S   UNL     1      -3.415  -9.499  10.535  0.00  0.00    -0.095 S 
ATOM     20  C   UNL     1      -3.762 -10.782  11.614  0.00  0.00    +0.039 A 
ATOM     22  C   UNL     1      -4.300 -11.871  10.968  0.00  0.00    +0.018 A 
ATOM     25  C   UNL     1      -4.431 -11.651   9.566  0.00  0.00    +0.008 A 
ATOM     26  C   UNL     1      -3.987 -10.401   9.195  0.00  0.00    +0.046 A 
ENDBRANCH  17  20
ENDBRANCH   8  15
BRANCH   9  14
ATOM     14  C   UNL     1      -8.030 -11.810  16.465  0.00  0.00    +0.100 C 
BRANCH  14   5
ATOM      5  N   UNL     1      -7.560 -12.250  15.162  0.00  0.00    -0.311 NA
ATOM     31  H   UNL     1      -7.284 -13.229  15.224  0.00  0.00    +0.122 HD
BRANCH   5  18
ATOM     18  C   UNL     1      -8.605 -12.115  14.155  0.00  0.00    +0.116 C 
BRANCH  18  21
ATOM     21  C   UNL     1      -8.174 -11.231  13.014  0.00  0.00    -0.033 A 
ATOM     23  C   UNL     1      -8.303 -11.678  11.698  0.00  0.00    +0.008 A 
ATOM     24  C   UNL     1      -7.647  -9.966  13.273  0.00  0.00    +0.008 A 
ATOM     27  C   UNL     1      -7.904 -10.860  10.642  0.00  0.00    +0.046 A 
ATOM     28  C   UNL     1      -7.247  -9.148  12.216  0.00  0.00    +0.046 A 
ATOM     29  C   UNL     1      -7.376  -9.595  10.900  0.00  0.00    +0.120 A 
BRANCH  29   2
ATOM      2  O   UNL     1      -6.987  -8.796   9.870  0.00  0.00    -0.495 OA
ATOM     30  C   UNL     1      -7.422  -9.166   8.562  0.00  0.00    +0.277 C 
ENDBRANCH  29   2
ENDBRANCH  18  21
ENDBRANCH   5  18
ENDBRANCH  14   5
ENDBRANCH   9  14
TORSDOF 7
ENDMDL
MODEL 8
REMARK VINA RESULT:      -6.5      3.705      7.037
REMARK  Name = 44716332
REMARK  9 active torsions:
REMARK  status: ('A' for Active; 'I' for Inactive)
REMARK    1  A    between atoms: O_2  and  C_29
REMARK    2  A    between atoms: O_2  and  C_30
REMARK    3  A    between atoms: N_4  and  C_19
REMARK    4  A    between atoms: N_5  and  C_14
REMARK    5  A    between atoms: N_5  and  C_18
REMARK    6  A    between atoms: C_8  and  C_15
REMARK    7  A    between atoms: C_9  and  C_14
REMARK    8  A    between atoms: C_17  and  C_20
REMARK    9  A    between atoms: C_18  and  C_21
REMARK                            x       y       z     vdW  Elec       q    Type
REMARK                         _______ _______ _______ _____ _____    ______ ____
ROOT
ATOM      3  N   UNL     1      -5.994 -10.242   9.352  0.00  0.00    -0.298 NA
ATOM      7  C   UNL     1      -4.144  -8.920  10.622  0.00  0.00    +0.002 C 
ATOM      8  C   UNL     1      -4.377 -10.304  11.287  0.00  0.00    +0.055 C 
ATOM      9  C   UNL     1      -6.472  -8.868   9.660  0.00  0.00    +0.071 C 
ATOM     10  C   UNL     1      -5.476  -8.140  10.589  0.00  0.00    +0.024 C 
ATOM     11  C   UNL     1      -3.741  -9.192   9.156  0.00  0.00    +0.019 C 
ATOM     12  C   UNL     1      -5.622 -10.943  10.606  0.00  0.00    +0.094 C 
ATOM     13  C   UNL     1      -4.780 -10.123   8.509  0.00  0.00    +0.085 C 
ENDROOT
BRANCH   8  15
ATOM      4  N   UNL     1      -3.380 -10.662  13.593  0.00  0.00    -0.270 N 
ATOM      6  N   UNL     1      -3.657 -10.671  14.909  0.00  0.00    -0.171 NA
ATOM     15  C   UNL     1      -4.454 -10.369  12.806  0.00  0.00    +0.044 A 
ATOM     16  C   UNL     1      -5.508 -10.172  13.665  0.00  0.00    +0.053 A 
ATOM     17  C   UNL     1      -4.959 -10.371  14.946  0.00  0.00    +0.100 A 
ATOM     19  C   UNL     1      -2.034 -10.949  13.155  0.00  0.00    +0.172 C 
BRANCH  17  20
ATOM      1  S   UNL     1      -5.120 -10.910  17.698  0.00  0.00    -0.095 S 
ATOM     20  C   UNL     1      -5.695 -10.269  16.219  0.00  0.00    +0.039 A 
ATOM     22  C   UNL     1      -6.918  -9.653  16.363  0.00  0.00    +0.018 A 
ATOM     25  C   UNL     1      -7.390  -9.708  17.706  0.00  0.00    +0.008 A 
ATOM     26  C   UNL     1      -6.510 -10.364  18.538  0.00  0.00    +0.046 A 
ENDBRANCH  17  20
ENDBRANCH   8  15
BRANCH   9  14
ATOM     14  C   UNL     1      -7.893  -8.859  10.228  0.00  0.00    +0.100 C 
BRANCH  14   5
ATOM      5  N   UNL     1      -8.854  -9.270   9.218  0.00  0.00    -0.311 NA
ATOM     31  H   UNL     1      -9.774  -9.349   9.651  0.00  0.00    +0.122 HD
BRANCH   5  18
ATOM     18  C   UNL     1      -8.922  -8.299   8.133  0.00  0.00    +0.116 C 
BRANCH  18  21
ATOM     21  C   UNL     1      -9.656  -7.049   8.544  0.00  0.00    -0.033 A 
ATOM     23  C   UNL     1      -9.079  -5.797   8.328  0.00  0.00    +0.008 A 
ATOM     24  C   UNL     1     -10.914  -7.144   9.140  0.00  0.00    +0.008 A 
ATOM     27  C   UNL     1      -9.759  -4.642   8.709  0.00  0.00    +0.046 A 
ATOM     28  C   UNL     1     -11.594  -5.988   9.521  0.00  0.00    +0.046 A 
ATOM     29  C   UNL     1     -11.017  -4.736   9.305  0.00  0.00    +0.120 A 
BRANCH  29   2
ATOM      2  O   UNL     1     -11.681  -3.607   9.676  0.00  0.00    -0.495 OA
ATOM     30  C   UNL     1     -12.878  -3.295   8.965  0.00  0.00    +0.277 C 
ENDBRANCH  29   2
ENDBRANCH  18  21
ENDBRANCH   5  18
ENDBRANCH  14   5
ENDBRANCH   9  14
TORSDOF 7
ENDMDL
MODEL 9
REMARK VINA RESULT:      -6.4     27.502     30.411
REMARK  Name = 44716332
REMARK  9 active torsions:
REMARK  status: ('A' for Active; 'I' for Inactive)
REMARK    1  A    between atoms: O_2  and  C_29
REMARK    2  A    between atoms: O_2  and  C_30
REMARK    3  A    between atoms: N_4  and  C_19
REMARK    4  A    between atoms: N_5  and  C_14
REMARK    5  A    between atoms: N_5  and  C_18
REMARK    6  A    between atoms: C_8  and  C_15
REMARK    7  A    between atoms: C_9  and  C_14
REMARK    8  A    between atoms: C_17  and  C_20
REMARK    9  A    between atoms: C_18  and  C_21
REMARK                            x       y       z     vdW  Elec       q    Type
REMARK                         _______ _______ _______ _____ _____    ______ ____
ROOT
ATOM      3  N   UNL     1      14.730  14.335  18.537  0.00  0.00    -0.298 NA
ATOM      7  C   UNL     1      15.623  12.126  17.486  0.00  0.00    +0.002 C 
ATOM      8  C   UNL     1      14.070  12.115  17.537  0.00  0.00    +0.055 C 
ATOM      9  C   UNL     1      15.785  13.749  19.406  0.00  0.00    +0.071 C 
ATOM     10  C   UNL     1      16.178  12.341  18.910  0.00  0.00    +0.024 C 
ATOM     11  C   UNL     1      16.032  13.357  16.648  0.00  0.00    +0.019 C 
ATOM     12  C   UNL     1      13.625  13.362  18.353  0.00  0.00    +0.094 C 
ATOM     13  C   UNL     1      15.333  14.606  17.210  0.00  0.00    +0.085 C 
ENDROOT
BRANCH   8  15
ATOM      4  N   UNL     1      12.974   9.860  17.146  0.00  0.00    -0.270 N 
ATOM      6  N   UNL     1      12.378   8.820  17.755  0.00  0.00    -0.171 NA
ATOM     15  C   UNL     1      13.375  10.843  18.001  0.00  0.00    +0.044 A 
ATOM     16  C   UNL     1      13.016  10.418  19.257  0.00  0.00    +0.053 A 
ATOM     17  C   UNL     1      12.406   9.167  19.045  0.00  0.00    +0.100 A 
ATOM     19  C   UNL     1      13.129   9.841  15.711  0.00  0.00    +0.172 C 
BRANCH  17  20
ATOM      1  S   UNL     1      12.201   6.627  20.226  0.00  0.00    -0.095 S 
ATOM     20  C   UNL     1      11.848   8.296  20.095  0.00  0.00    +0.039 A 
ATOM     22  C   UNL     1      10.985   8.722  21.080  0.00  0.00    +0.018 A 
ATOM     25  C   UNL     1      10.609   7.662  21.956  0.00  0.00    +0.008 A 
ATOM     26  C   UNL     1      11.198   6.468  21.606  0.00  0.00    +0.046 A 
ENDBRANCH  17  20
ENDBRANCH   8  15
BRANCH   9  14
ATOM     14  C   UNL     1      15.386  13.742  20.883  0.00  0.00    +0.100 C 
BRANCH  14   5
ATOM      5  N   UNL     1      16.350  12.995  21.674  0.00  0.00    -0.311 NA
ATOM     31  H   UNL     1      16.924  13.652  22.201  0.00  0.00    +0.122 HD
BRANCH   5  18
ATOM     18  C   UNL     1      15.679  12.097  22.606  0.00  0.00    +0.116 C 
BRANCH  18  21
ATOM     21  C   UNL     1      15.845  10.653  22.211  0.00  0.00    -0.033 A 
ATOM     23  C   UNL     1      14.807   9.746  22.427  0.00  0.00    +0.008 A 
ATOM     24  C   UNL     1      17.038  10.222  21.629  0.00  0.00    +0.008 A 
ATOM     27  C   UNL     1      14.962   8.410  22.062  0.00  0.00    +0.046 A 
ATOM     28  C   UNL     1      17.193   8.885  21.264  0.00  0.00    +0.046 A 
ATOM     29  C   UNL     1      16.155   7.978  21.481  0.00  0.00    +0.120 A 
BRANCH  29   2
ATOM      2  O   UNL     1      16.305   6.674  21.123  0.00  0.00    -0.495 OA
ATOM     30  C   UNL     1      15.973   6.326  19.780  0.00  0.00    +0.277 C 
ENDBRANCH  29   2
ENDBRANCH  18  21
ENDBRANCH   5  18
ENDBRANCH  14   5
ENDBRANCH   9  14
TORSDOF 7
ENDMDL
MODEL 10
REMARK VINA RESULT:      -6.4      2.224      2.960
REMARK  Name = 44716332
REMARK  9 active torsions:
REMARK  status: ('A' for Active; 'I' for Inactive)
REMARK    1  A    between atoms: O_2  and  C_29
REMARK    2  A    between atoms: O_2  and  C_30
REMARK    3  A    between atoms: N_4  and  C_19
REMARK    4  A    between atoms: N_5  and  C_14
REMARK    5  A    between atoms: N_5  and  C_18
REMARK    6  A    between atoms: C_8  and  C_15
REMARK    7  A    between atoms: C_9  and  C_14
REMARK    8  A    between atoms: C_17  and  C_20
REMARK    9  A    between atoms: C_18  and  C_21
REMARK                            x       y       z     vdW  Elec       q    Type
REMARK                         _______ _______ _______ _____ _____    ______ ____
ROOT
ATOM      3  N   UNL     1      -5.370 -10.771  18.260  0.00  0.00    -0.298 NA
ATOM      7  C   UNL     1      -5.503 -12.520  16.334  0.00  0.00    +0.002 C 
ATOM      8  C   UNL     1      -4.246 -11.622  16.168  0.00  0.00    +0.055 C 
ATOM      9  C   UNL     1      -6.725 -10.753  17.649  0.00  0.00    +0.071 C 
ATOM     10  C   UNL     1      -6.762 -11.629  16.379  0.00  0.00    +0.024 C 
ATOM     11  C   UNL     1      -5.382 -13.204  17.713  0.00  0.00    +0.019 C 
ATOM     12  C   UNL     1      -4.343 -10.486  17.226  0.00  0.00    +0.094 C 
ATOM     13  C   UNL     1      -5.127 -12.135  18.789  0.00  0.00    +0.085 C 
ENDROOT
BRANCH   8  15
ATOM      4  N   UNL     1      -2.649 -11.014  14.291  0.00  0.00    -0.270 N 
ATOM      6  N   UNL     1      -2.575 -10.515  13.045  0.00  0.00    -0.171 NA
ATOM     15  C   UNL     1      -3.920 -11.091  14.779  0.00  0.00    +0.044 A 
ATOM     16  C   UNL     1      -4.734 -10.608  13.783  0.00  0.00    +0.053 A 
ATOM     17  C   UNL     1      -3.852 -10.269  12.740  0.00  0.00    +0.100 A 
ATOM     19  C   UNL     1      -1.434 -11.406  14.966  0.00  0.00    +0.172 C 
BRANCH  17  20
ATOM      1  S   UNL     1      -5.779  -9.011  11.129  0.00  0.00    -0.095 S 
ATOM     20  C   UNL     1      -4.244  -9.703  11.436  0.00  0.00    +0.039 A 
ATOM     22  C   UNL     1      -3.428  -9.668  10.328  0.00  0.00    +0.018 A 
ATOM     25  C   UNL     1      -4.073  -9.064   9.209  0.00  0.00    +0.008 A 
ATOM     26  C   UNL     1      -5.356  -8.661   9.506  0.00  0.00    +0.046 A 
ENDBRANCH  17  20
ENDBRANCH   8  15
BRANCH   9  14
ATOM     14  C   UNL     1      -7.223  -9.332  17.377  0.00  0.00    +0.100 C 
BRANCH  14   5
ATOM      5  N   UNL     1      -7.892  -9.258  16.089  0.00  0.00    -0.311 NA
ATOM     31  H   UNL     1      -7.983 -10.199  15.709  0.00  0.00    +0.122 HD
BRANCH   5  18
ATOM     18  C   UNL     1      -9.219  -8.670  16.222  0.00  0.00    +0.116 C 
BRANCH  18  21
ATOM     21  C   UNL     1     -10.163  -9.579  16.964  0.00  0.00    -0.033 A 
ATOM     23  C   UNL     1     -10.372 -10.884  16.518  0.00  0.00    +0.008 A 
ATOM     24  C   UNL     1     -10.829  -9.115  18.099  0.00  0.00    +0.008 A 
ATOM     27  C   UNL     1     -11.245 -11.725  17.206  0.00  0.00    +0.046 A 
ATOM     28  C   UNL     1     -11.704  -9.956  18.787  0.00  0.00    +0.046 A 
ATOM     29  C   UNL     1     -11.912 -11.261  18.341  0.00  0.00    +0.120 A 
BRANCH  29   2
ATOM      2  O   UNL     1     -12.764 -12.083  19.012  0.00  0.00    -0.495 OA
ATOM     30  C   UNL     1     -12.206 -12.891  20.047  0.00  0.00    +0.277 C 
ENDBRANCH  29   2
ENDBRANCH  18  21
ENDBRANCH   5  18
ENDBRANCH  14   5
ENDBRANCH   9  14
TORSDOF 7
ENDMDL
