MODEL 1
REMARK VINA RESULT:      -6.9      0.000      0.000
REMARK  Name = 45783342
REMARK  9 active torsions:
REMARK  status: ('A' for Active; 'I' for Inactive)
REMARK    1  A    between atoms: O_3  and  C_25
REMARK    2  A    between atoms: O_3  and  C_27
REMARK    3  A    between atoms: O_4  and  C_28
REMARK    4  A    between atoms: O_4  and  C_29
REMARK    5  A    between atoms: N_5  and  C_13
REMARK    6  A    between atoms: C_9  and  C_14
REMARK    7  A    between atoms: C_13  and  C_15
REMARK    8  A    between atoms: C_18  and  C_21
REMARK    9  A    between atoms: C_27  and  C_28
REMARK                            x       y       z     vdW  Elec       q    Type
REMARK                         _______ _______ _______ _____ _____    ______ ____
ROOT
ATOM      2  O   UNL     1      14.108   6.586  20.106  0.00  0.00    -0.336 OA
ATOM      6  N   UNL     1      15.801   7.642  19.090  0.00  0.00    -0.190 NA
ATOM      7  N   UNL     1      15.218   6.442  20.949  0.00  0.00    -0.056 NA
ATOM     14  C   UNL     1      14.538   7.304  19.037  0.00  0.00    +0.245 A 
ATOM     18  C   UNL     1      16.177   7.092  20.281  0.00  0.00    +0.202 A 
ENDROOT
BRANCH  18  21
ATOM      8  N   UNL     1      20.132   7.431  21.739  0.00  0.00    -0.221 NA
ATOM     21  C   UNL     1      17.518   7.207  20.775  0.00  0.00    +0.029 A 
ATOM     23  C   UNL     1      18.469   6.248  20.442  0.00  0.00    +0.079 A 
ATOM     24  C   UNL     1      17.872   8.277  21.589  0.00  0.00    +0.031 A 
ATOM     25  C   UNL     1      19.750   6.405  20.946  0.00  0.00    +0.215 A 
ATOM     26  C   UNL     1      19.179   8.342  22.042  0.00  0.00    +0.115 A 
BRANCH  25   3
ATOM      3  O   UNL     1      20.706   5.475  20.632  0.00  0.00    -0.474 OA
BRANCH   3  27
ATOM     27  C   UNL     1      21.392   4.868  21.721  0.00  0.00    +0.258 C 
BRANCH  27  28
ATOM     28  C   UNL     1      21.776   3.452  21.337  0.00  0.00    +0.200 C 
BRANCH  28   4
ATOM      4  O   UNL     1      23.128   3.443  20.893  0.00  0.00    -0.380 OA
ATOM     29  C   UNL     1      23.653   2.123  20.857  0.00  0.00    +0.194 C 
ENDBRANCH  28   4
ENDBRANCH  27  28
ENDBRANCH   3  27
ENDBRANCH  25   3
ENDBRANCH  18  21
BRANCH  14   9
ATOM      5  N   UNL     1      12.611   8.713  18.331  0.00  0.00    -0.287 NA
ATOM      9  C   UNL     1      13.509   7.600  17.965  0.00  0.00    +0.146 C 
ATOM     10  C   UNL     1      14.146   8.034  16.633  0.00  0.00    +0.030 C 
ATOM     11  C   UNL     1      13.502   9.372  16.301  0.00  0.00    +0.017 C 
ATOM     12  C   UNL     1      12.201   9.344  17.077  0.00  0.00    +0.085 C 
BRANCH   5  13
ATOM     13  C   UNL     1      11.469   8.290  19.132  0.00  0.00    +0.120 C 
BRANCH  13  15
ATOM      1 CL   UNL     1      11.204  11.218  24.380  0.00  0.00    -0.084 Cl
ATOM     15  C   UNL     1      11.403   9.024  20.445  0.00  0.00    -0.033 A 
ATOM     16  C   UNL     1      10.708   8.467  21.519  0.00  0.00    +0.006 A 
ATOM     17  C   UNL     1      12.034  10.259  20.587  0.00  0.00    +0.006 A 
ATOM     19  C   UNL     1      10.646   9.147  22.736  0.00  0.00    +0.020 A 
ATOM     20  C   UNL     1      11.973  10.938  21.804  0.00  0.00    +0.020 A 
ATOM     22  C   UNL     1      11.278  10.382  22.878  0.00  0.00    +0.041 A 
ENDBRANCH  13  15
ENDBRANCH   5  13
ENDBRANCH  14   9
TORSDOF 8
ENDMDL
MODEL 2
REMARK VINA RESULT:      -6.8      3.537      9.598
REMARK  Name = 45783342
REMARK  9 active torsions:
REMARK  status: ('A' for Active; 'I' for Inactive)
REMARK    1  A    between atoms: O_3  and  C_25
REMARK    2  A    between atoms: O_3  and  C_27
REMARK    3  A    between atoms: O_4  and  C_28
REMARK    4  A    between atoms: O_4  and  C_29
REMARK    5  A    between atoms: N_5  and  C_13
REMARK    6  A    between atoms: C_9  and  C_14
REMARK    7  A    between atoms: C_13  and  C_15
REMARK    8  A    between atoms: C_18  and  C_21
REMARK    9  A    between atoms: C_27  and  C_28
REMARK                            x       y       z     vdW  Elec       q    Type
REMARK                         _______ _______ _______ _____ _____    ______ ____
ROOT
ATOM      2  O   UNL     1      18.407   6.564  20.093  0.00  0.00    -0.336 OA
ATOM      6  N   UNL     1      16.845   8.014  20.780  0.00  0.00    -0.190 NA
ATOM      7  N   UNL     1      17.230   6.218  19.416  0.00  0.00    -0.056 NA
ATOM     14  C   UNL     1      18.093   7.630  20.873  0.00  0.00    +0.245 A 
ATOM     18  C   UNL     1      16.355   7.118  19.875  0.00  0.00    +0.202 A 
ENDROOT
BRANCH  18  21
ATOM      8  N   UNL     1      12.317   7.208  18.620  0.00  0.00    -0.221 NA
ATOM     21  C   UNL     1      14.986   7.149  19.449  0.00  0.00    +0.029 A 
ATOM     23  C   UNL     1      13.971   6.803  20.336  0.00  0.00    +0.079 A 
ATOM     24  C   UNL     1      14.668   7.523  18.149  0.00  0.00    +0.031 A 
ATOM     25  C   UNL     1      12.665   6.848  19.876  0.00  0.00    +0.215 A 
ATOM     26  C   UNL     1      13.331   7.535  17.786  0.00  0.00    +0.115 A 
BRANCH  25   3
ATOM      3  O   UNL     1      11.648   6.514  20.730  0.00  0.00    -0.474 OA
BRANCH   3  27
ATOM     27  C   UNL     1      10.794   7.570  21.154  0.00  0.00    +0.258 C 
BRANCH  27  28
ATOM     28  C   UNL     1      11.601   8.561  21.971  0.00  0.00    +0.200 C 
BRANCH  28   4
ATOM      4  O   UNL     1      10.819   8.998  23.075  0.00  0.00    -0.380 OA
ATOM     29  C   UNL     1      10.922  10.403  23.261  0.00  0.00    +0.194 C 
ENDBRANCH  28   4
ENDBRANCH  27  28
ENDBRANCH   3  27
ENDBRANCH  25   3
ENDBRANCH  18  21
BRANCH  14   9
ATOM      5  N   UNL     1      20.427   7.362  21.696  0.00  0.00    -0.287 NA
ATOM      9  C   UNL     1      19.213   8.202  21.717  0.00  0.00    +0.146 C 
ATOM     10  C   UNL     1      19.684   9.582  21.222  0.00  0.00    +0.030 C 
ATOM     11  C   UNL     1      21.184   9.436  21.006  0.00  0.00    +0.017 C 
ATOM     12  C   UNL     1      21.559   8.266  21.892  0.00  0.00    +0.085 C 
BRANCH   5  13
ATOM     13  C   UNL     1      20.401   6.291  22.684  0.00  0.00    +0.120 C 
BRANCH  13  15
ATOM      1 CL   UNL     1      23.915   1.680  21.075  0.00  0.00    -0.084 Cl
ATOM     15  C   UNL     1      21.281   5.136  22.282  0.00  0.00    -0.033 A 
ATOM     16  C   UNL     1      21.015   4.435  21.106  0.00  0.00    +0.006 A 
ATOM     17  C   UNL     1      22.360   4.768  23.085  0.00  0.00    +0.006 A 
ATOM     19  C   UNL     1      21.830   3.365  20.733  0.00  0.00    +0.020 A 
ATOM     20  C   UNL     1      23.175   3.698  22.713  0.00  0.00    +0.020 A 
ATOM     22  C   UNL     1      22.909   2.997  21.537  0.00  0.00    +0.041 A 
ENDBRANCH  13  15
ENDBRANCH   5  13
ENDBRANCH  14   9
TORSDOF 8
ENDMDL
MODEL 3
REMARK VINA RESULT:      -6.5      3.695      9.304
REMARK  Name = 45783342
REMARK  9 active torsions:
REMARK  status: ('A' for Active; 'I' for Inactive)
REMARK    1  A    between atoms: O_3  and  C_25
REMARK    2  A    between atoms: O_3  and  C_27
REMARK    3  A    between atoms: O_4  and  C_28
REMARK    4  A    between atoms: O_4  and  C_29
REMARK    5  A    between atoms: N_5  and  C_13
REMARK    6  A    between atoms: C_9  and  C_14
REMARK    7  A    between atoms: C_13  and  C_15
REMARK    8  A    between atoms: C_18  and  C_21
REMARK    9  A    between atoms: C_27  and  C_28
REMARK                            x       y       z     vdW  Elec       q    Type
REMARK                         _______ _______ _______ _____ _____    ______ ____
ROOT
ATOM      2  O   UNL     1      17.810   7.198  20.367  0.00  0.00    -0.336 OA
ATOM      6  N   UNL     1      16.342   8.428  21.529  0.00  0.00    -0.190 NA
ATOM      7  N   UNL     1      16.541   6.811  19.921  0.00  0.00    -0.056 NA
ATOM     14  C   UNL     1      17.603   8.152  21.312  0.00  0.00    +0.245 A 
ATOM     18  C   UNL     1      15.728   7.580  20.653  0.00  0.00    +0.202 A 
ENDROOT
BRANCH  18  21
ATOM      8  N   UNL     1      11.516   7.419  20.298  0.00  0.00    -0.221 NA
ATOM     21  C   UNL     1      14.300   7.525  20.533  0.00  0.00    +0.029 A 
ATOM     23  C   UNL     1      13.686   7.871  19.333  0.00  0.00    +0.079 A 
ATOM     24  C   UNL     1      13.523   7.127  21.615  0.00  0.00    +0.031 A 
ATOM     25  C   UNL     1      12.304   7.802  19.269  0.00  0.00    +0.215 A 
ATOM     26  C   UNL     1      12.148   7.091  21.448  0.00  0.00    +0.115 A 
BRANCH  25   3
ATOM      3  O   UNL     1      11.676   8.136  18.098  0.00  0.00    -0.474 OA
BRANCH   3  27
ATOM     27  C   UNL     1      12.246   9.202  17.347  0.00  0.00    +0.258 C 
BRANCH  27  28
ATOM     28  C   UNL     1      11.740   9.126  15.919  0.00  0.00    +0.200 C 
BRANCH  28   4
ATOM      4  O   UNL     1      12.835   8.854  15.053  0.00  0.00    -0.380 OA
ATOM     29  C   UNL     1      14.076   8.951  15.738  0.00  0.00    +0.194 C 
ENDBRANCH  28   4
ENDBRANCH  27  28
ENDBRANCH   3  27
ENDBRANCH  25   3
ENDBRANCH  18  21
BRANCH  14   9
ATOM      5  N   UNL     1      20.034   7.893  21.781  0.00  0.00    -0.287 NA
ATOM      9  C   UNL     1      18.839   8.742  21.958  0.00  0.00    +0.146 C 
ATOM     10  C   UNL     1      19.234  10.102  21.354  0.00  0.00    +0.030 C 
ATOM     11  C   UNL     1      20.683   9.939  20.919  0.00  0.00    +0.017 C 
ATOM     12  C   UNL     1      21.185   8.795  21.775  0.00  0.00    +0.085 C 
BRANCH   5  13
ATOM     13  C   UNL     1      20.155   6.853  22.795  0.00  0.00    +0.120 C 
BRANCH  13  15
ATOM      1 CL   UNL     1      23.459   2.214  20.858  0.00  0.00    -0.084 Cl
ATOM     15  C   UNL     1      20.983   5.692  22.310  0.00  0.00    -0.033 A 
ATOM     16  C   UNL     1      20.648   5.046  21.120  0.00  0.00    +0.006 A 
ATOM     17  C   UNL     1      22.083   5.261  23.052  0.00  0.00    +0.006 A 
ATOM     19  C   UNL     1      21.413   3.970  20.672  0.00  0.00    +0.020 A 
ATOM     20  C   UNL     1      22.848   4.185  22.604  0.00  0.00    +0.020 A 
ATOM     22  C   UNL     1      22.513   3.539  21.414  0.00  0.00    +0.041 A 
ENDBRANCH  13  15
ENDBRANCH   5  13
ENDBRANCH  14   9
TORSDOF 8
ENDMDL
MODEL 4
REMARK VINA RESULT:      -6.4      2.459      7.628
REMARK  Name = 45783342
REMARK  9 active torsions:
REMARK  status: ('A' for Active; 'I' for Inactive)
REMARK    1  A    between atoms: O_3  and  C_25
REMARK    2  A    between atoms: O_3  and  C_27
REMARK    3  A    between atoms: O_4  and  C_28
REMARK    4  A    between atoms: O_4  and  C_29
REMARK    5  A    between atoms: N_5  and  C_13
REMARK    6  A    between atoms: C_9  and  C_14
REMARK    7  A    between atoms: C_13  and  C_15
REMARK    8  A    between atoms: C_18  and  C_21
REMARK    9  A    between atoms: C_27  and  C_28
REMARK                            x       y       z     vdW  Elec       q    Type
REMARK                         _______ _______ _______ _____ _____    ______ ____
ROOT
ATOM      2  O   UNL     1      18.060   5.852  19.446  0.00  0.00    -0.336 OA
ATOM      6  N   UNL     1      16.841   7.556  20.236  0.00  0.00    -0.190 NA
ATOM      7  N   UNL     1      16.792   5.723  18.867  0.00  0.00    -0.056 NA
ATOM     14  C   UNL     1      18.003   6.955  20.237  0.00  0.00    +0.245 A 
ATOM     18  C   UNL     1      16.130   6.764  19.382  0.00  0.00    +0.202 A 
ENDROOT
BRANCH  18  21
ATOM      8  N   UNL     1      12.087   7.576  18.442  0.00  0.00    -0.221 NA
ATOM     21  C   UNL     1      14.759   7.040  19.063  0.00  0.00    +0.029 A 
ATOM     23  C   UNL     1      13.753   6.722  19.970  0.00  0.00    +0.079 A 
ATOM     24  C   UNL     1      14.429   7.625  17.846  0.00  0.00    +0.031 A 
ATOM     25  C   UNL     1      12.445   7.007  19.615  0.00  0.00    +0.215 A 
ATOM     26  C   UNL     1      13.091   7.870  17.585  0.00  0.00    +0.115 A 
BRANCH  25   3
ATOM      3  O   UNL     1      11.437   6.705  20.492  0.00  0.00    -0.474 OA
BRANCH   3  27
ATOM     27  C   UNL     1      11.641   7.068  21.852  0.00  0.00    +0.258 C 
BRANCH  27  28
ATOM     28  C   UNL     1      10.483   7.934  22.311  0.00  0.00    +0.200 C 
BRANCH  28   4
ATOM      4  O   UNL     1      10.996   9.058  23.017  0.00  0.00    -0.380 OA
ATOM     29  C   UNL     1      11.929   9.784  22.228  0.00  0.00    +0.194 C 
ENDBRANCH  28   4
ENDBRANCH  27  28
ENDBRANCH   3  27
ENDBRANCH  25   3
ENDBRANCH  18  21
BRANCH  14   9
ATOM      5  N   UNL     1      19.090   8.474  21.881  0.00  0.00    -0.287 NA
ATOM      9  C   UNL     1      19.270   7.316  20.984  0.00  0.00    +0.146 C 
ATOM     10  C   UNL     1      19.761   6.183  21.904  0.00  0.00    +0.030 C 
ATOM     11  C   UNL     1      19.883   6.814  23.283  0.00  0.00    +0.017 C 
ATOM     12  C   UNL     1      20.031   8.292  22.986  0.00  0.00    +0.085 C 
BRANCH   5  13
ATOM     13  C   UNL     1      19.273   9.755  21.210  0.00  0.00    +0.120 C 
BRANCH  13  15
ATOM      1 CL   UNL     1      14.757  13.557  22.370  0.00  0.00    -0.084 Cl
ATOM     15  C   UNL     1      18.142  10.707  21.500  0.00  0.00    -0.033 A 
ATOM     16  C   UNL     1      18.164  11.481  22.660  0.00  0.00    +0.006 A 
ATOM     17  C   UNL     1      17.073  10.812  20.610  0.00  0.00    +0.006 A 
ATOM     19  C   UNL     1      17.116  12.362  22.929  0.00  0.00    +0.020 A 
ATOM     20  C   UNL     1      16.026  11.693  20.879  0.00  0.00    +0.020 A 
ATOM     22  C   UNL     1      16.047  12.467  22.039  0.00  0.00    +0.041 A 
ENDBRANCH  13  15
ENDBRANCH   5  13
ENDBRANCH  14   9
TORSDOF 8
ENDMDL
MODEL 5
REMARK VINA RESULT:      -6.4     26.361     29.752
REMARK  Name = 45783342
REMARK  9 active torsions:
REMARK  status: ('A' for Active; 'I' for Inactive)
REMARK    1  A    between atoms: O_3  and  C_25
REMARK    2  A    between atoms: O_3  and  C_27
REMARK    3  A    between atoms: O_4  and  C_28
REMARK    4  A    between atoms: O_4  and  C_29
REMARK    5  A    between atoms: N_5  and  C_13
REMARK    6  A    between atoms: C_9  and  C_14
REMARK    7  A    between atoms: C_13  and  C_15
REMARK    8  A    between atoms: C_18  and  C_21
REMARK    9  A    between atoms: C_27  and  C_28
REMARK                            x       y       z     vdW  Elec       q    Type
REMARK                         _______ _______ _______ _____ _____    ______ ____
ROOT
ATOM      2  O   UNL     1      -4.139 -11.425  17.870  0.00  0.00    -0.336 OA
ATOM      6  N   UNL     1      -5.413 -10.547  16.252  0.00  0.00    -0.190 NA
ATOM      7  N   UNL     1      -5.368 -11.120  18.467  0.00  0.00    -0.056 NA
ATOM     14  C   UNL     1      -4.250 -11.057  16.568  0.00  0.00    +0.245 A 
ATOM     18  C   UNL     1      -6.066 -10.606  17.449  0.00  0.00    +0.202 A 
ENDROOT
BRANCH  18  21
ATOM      8  N   UNL     1     -10.044  -9.237  17.883  0.00  0.00    -0.221 NA
ATOM     21  C   UNL     1      -7.415 -10.142  17.596  0.00  0.00    +0.029 A 
ATOM     23  C   UNL     1      -7.866  -9.059  16.848  0.00  0.00    +0.079 A 
ATOM     24  C   UNL     1      -8.276 -10.772  18.487  0.00  0.00    +0.031 A 
ATOM     25  C   UNL     1      -9.178  -8.649  17.027  0.00  0.00    +0.215 A 
ATOM     26  C   UNL     1      -9.569 -10.285  18.593  0.00  0.00    +0.115 A 
BRANCH  25   3
ATOM      3  O   UNL     1      -9.647  -7.586  16.302  0.00  0.00    -0.474 OA
BRANCH   3  27
ATOM     27  C   UNL     1     -11.048  -7.543  16.060  0.00  0.00    +0.258 C 
BRANCH  27  28
ATOM     28  C   UNL     1     -11.558  -6.145  16.354  0.00  0.00    +0.200 C 
BRANCH  28   4
ATOM      4  O   UNL     1     -12.539  -5.796  15.385  0.00  0.00    -0.380 OA
ATOM     29  C   UNL     1     -11.964  -5.647  14.094  0.00  0.00    +0.194 C 
ENDBRANCH  28   4
ENDBRANCH  27  28
ENDBRANCH   3  27
ENDBRANCH  25   3
ENDBRANCH  18  21
BRANCH  14   9
ATOM      5  N   UNL     1      -3.157 -10.648  14.369  0.00  0.00    -0.287 NA
ATOM      9  C   UNL     1      -3.035 -11.288  15.694  0.00  0.00    +0.146 C 
ATOM     10  C   UNL     1      -1.748 -10.697  16.296  0.00  0.00    +0.030 C 
ATOM     11  C   UNL     1      -1.186  -9.783  15.217  0.00  0.00    +0.017 C 
ATOM     12  C   UNL     1      -1.797 -10.323  13.940  0.00  0.00    +0.085 C 
BRANCH   5  13
ATOM     13  C   UNL     1      -3.858 -11.474  13.394  0.00  0.00    +0.120 C 
BRANCH  13  15
ATOM      1 CL   UNL     1      -6.601  -8.142   9.202  0.00  0.00    -0.084 Cl
ATOM     15  C   UNL     1      -4.545 -10.640  12.344  0.00  0.00    -0.033 A 
ATOM     16  C   UNL     1      -5.519  -9.715  12.717  0.00  0.00    +0.006 A 
ATOM     17  C   UNL     1      -4.207 -10.794  10.999  0.00  0.00    +0.006 A 
ATOM     19  C   UNL     1      -6.156  -8.943  11.745  0.00  0.00    +0.020 A 
ATOM     20  C   UNL     1      -4.843 -10.022  10.027  0.00  0.00    +0.020 A 
ATOM     22  C   UNL     1      -5.818  -9.097  10.400  0.00  0.00    +0.041 A 
ENDBRANCH  13  15
ENDBRANCH   5  13
ENDBRANCH  14   9
TORSDOF 8
ENDMDL
MODEL 6
REMARK VINA RESULT:      -6.3      6.650      9.384
REMARK  Name = 45783342
REMARK  9 active torsions:
REMARK  status: ('A' for Active; 'I' for Inactive)
REMARK    1  A    between atoms: O_3  and  C_25
REMARK    2  A    between atoms: O_3  and  C_27
REMARK    3  A    between atoms: O_4  and  C_28
REMARK    4  A    between atoms: O_4  and  C_29
REMARK    5  A    between atoms: N_5  and  C_13
REMARK    6  A    between atoms: C_9  and  C_14
REMARK    7  A    between atoms: C_13  and  C_15
REMARK    8  A    between atoms: C_18  and  C_21
REMARK    9  A    between atoms: C_27  and  C_28
REMARK                            x       y       z     vdW  Elec       q    Type
REMARK                         _______ _______ _______ _____ _____    ______ ____
ROOT
ATOM      2  O   UNL     1      15.409  10.161  14.226  0.00  0.00    -0.336 OA
ATOM      6  N   UNL     1      13.783  11.311  15.251  0.00  0.00    -0.190 NA
ATOM      7  N   UNL     1      14.632   9.214  14.905  0.00  0.00    -0.056 NA
ATOM     14  C   UNL     1      14.841  11.368  14.482  0.00  0.00    +0.245 A 
ATOM     18  C   UNL     1      13.693   9.970  15.485  0.00  0.00    +0.202 A 
ENDROOT
BRANCH  18  21
ATOM      8  N   UNL     1      10.631   8.333  17.900  0.00  0.00    -0.221 NA
ATOM     21  C   UNL     1      12.655   9.415  16.304  0.00  0.00    +0.029 A 
ATOM     23  C   UNL     1      12.892   9.153  17.649  0.00  0.00    +0.079 A 
ATOM     24  C   UNL     1      11.408   9.137  15.756  0.00  0.00    +0.031 A 
ATOM     25  C   UNL     1      11.856   8.616  18.397  0.00  0.00    +0.215 A 
ATOM     26  C   UNL     1      10.439   8.601  16.588  0.00  0.00    +0.115 A 
BRANCH  25   3
ATOM      3  O   UNL     1      12.064   8.350  19.725  0.00  0.00    -0.474 OA
BRANCH   3  27
ATOM     27  C   UNL     1      10.985   8.627  20.610  0.00  0.00    +0.258 C 
BRANCH  27  28
ATOM     28  C   UNL     1      10.902   7.524  21.649  0.00  0.00    +0.200 C 
BRANCH  28   4
ATOM      4  O   UNL     1      11.575   6.372  21.157  0.00  0.00    -0.380 OA
ATOM     29  C   UNL     1      10.970   5.176  21.629  0.00  0.00    +0.194 C 
ENDBRANCH  28   4
ENDBRANCH  27  28
ENDBRANCH   3  27
ENDBRANCH  25   3
ENDBRANCH  18  21
BRANCH  14   9
ATOM      5  N   UNL     1      14.565  13.386  13.052  0.00  0.00    -0.287 NA
ATOM      9  C   UNL     1      15.505  12.574  13.851  0.00  0.00    +0.146 C 
ATOM     10  C   UNL     1      16.078  13.551  14.893  0.00  0.00    +0.030 C 
ATOM     11  C   UNL     1      15.449  14.898  14.565  0.00  0.00    +0.017 C 
ATOM     12  C   UNL     1      15.059  14.762  13.107  0.00  0.00    +0.085 C 
BRANCH   5  13
ATOM     13  C   UNL     1      14.415  12.911  11.683  0.00  0.00    +0.120 C 
BRANCH  13  15
ATOM      1 CL   UNL     1       8.740  11.322  10.476  0.00  0.00    -0.084 Cl
ATOM     15  C   UNL     1      12.995  12.513  11.380  0.00  0.00    -0.033 A 
ATOM     16  C   UNL     1      12.039  12.517  12.396  0.00  0.00    +0.006 A 
ATOM     17  C   UNL     1      12.635  12.140  10.085  0.00  0.00    +0.006 A 
ATOM     19  C   UNL     1      10.723  12.148  12.116  0.00  0.00    +0.020 A 
ATOM     20  C   UNL     1      11.320  11.770   9.805  0.00  0.00    +0.020 A 
ATOM     22  C   UNL     1      10.364  11.774  10.821  0.00  0.00    +0.041 A 
ENDBRANCH  13  15
ENDBRANCH   5  13
ENDBRANCH  14   9
TORSDOF 8
ENDMDL
MODEL 7
REMARK VINA RESULT:      -6.3      4.424      9.046
REMARK  Name = 45783342
REMARK  9 active torsions:
REMARK  status: ('A' for Active; 'I' for Inactive)
REMARK    1  A    between atoms: O_3  and  C_25
REMARK    2  A    between atoms: O_3  and  C_27
REMARK    3  A    between atoms: O_4  and  C_28
REMARK    4  A    between atoms: O_4  and  C_29
REMARK    5  A    between atoms: N_5  and  C_13
REMARK    6  A    between atoms: C_9  and  C_14
REMARK    7  A    between atoms: C_13  and  C_15
REMARK    8  A    between atoms: C_18  and  C_21
REMARK    9  A    between atoms: C_27  and  C_28
REMARK                            x       y       z     vdW  Elec       q    Type
REMARK                         _______ _______ _______ _____ _____    ______ ____
ROOT
ATOM      2  O   UNL     1      13.180   7.661  16.710  0.00  0.00    -0.336 OA
ATOM      6  N   UNL     1      13.294   9.724  17.573  0.00  0.00    -0.190 NA
ATOM      7  N   UNL     1      13.724   8.472  15.707  0.00  0.00    -0.056 NA
ATOM     14  C   UNL     1      12.956   8.476  17.773  0.00  0.00    +0.245 A 
ATOM     18  C   UNL     1      13.760   9.674  16.292  0.00  0.00    +0.202 A 
ENDROOT
BRANCH  18  21
ATOM      8  N   UNL     1      15.216  13.120  14.318  0.00  0.00    -0.221 NA
ATOM     21  C   UNL     1      14.254  10.842  15.623  0.00  0.00    +0.029 A 
ATOM     23  C   UNL     1      13.545  11.390  14.559  0.00  0.00    +0.079 A 
ATOM     24  C   UNL     1      15.443  11.432  16.035  0.00  0.00    +0.031 A 
ATOM     25  C   UNL     1      14.064  12.518  13.946  0.00  0.00    +0.215 A 
ATOM     26  C   UNL     1      15.878  12.558  15.355  0.00  0.00    +0.115 A 
BRANCH  25   3
ATOM      3  O   UNL     1      13.384  13.077  12.896  0.00  0.00    -0.474 OA
BRANCH   3  27
ATOM     27  C   UNL     1      12.149  12.470  12.537  0.00  0.00    +0.258 C 
BRANCH  27  28
ATOM     28  C   UNL     1      12.113  12.272  11.033  0.00  0.00    +0.200 C 
BRANCH  28   4
ATOM      4  O   UNL     1      10.943  11.541  10.688  0.00  0.00    -0.380 OA
ATOM     29  C   UNL     1      10.956  11.153   9.322  0.00  0.00    +0.194 C 
ENDBRANCH  28   4
ENDBRANCH  27  28
ENDBRANCH   3  27
ENDBRANCH  25   3
ENDBRANCH  18  21
BRANCH  14   9
ATOM      5  N   UNL     1      13.301   7.809  20.147  0.00  0.00    -0.287 NA
ATOM      9  C   UNL     1      12.362   7.828  19.007  0.00  0.00    +0.146 C 
ATOM     10  C   UNL     1      11.124   8.575  19.533  0.00  0.00    +0.030 C 
ATOM     11  C   UNL     1      11.434   8.884  20.991  0.00  0.00    +0.017 C 
ATOM     12  C   UNL     1      12.481   7.852  21.358  0.00  0.00    +0.085 C 
BRANCH   5  13
ATOM     13  C   UNL     1      14.199   6.662  20.133  0.00  0.00    +0.120 C 
BRANCH  13  15
ATOM      1 CL   UNL     1      19.867   8.244  21.385  0.00  0.00    -0.084 Cl
ATOM     15  C   UNL     1      15.618   7.057  20.446  0.00  0.00    -0.033 A 
ATOM     16  C   UNL     1      15.871   8.193  21.215  0.00  0.00    +0.006 A 
ATOM     17  C   UNL     1      16.679   6.289  19.966  0.00  0.00    +0.006 A 
ATOM     19  C   UNL     1      17.185   8.560  21.504  0.00  0.00    +0.020 A 
ATOM     20  C   UNL     1      17.993   6.656  20.256  0.00  0.00    +0.020 A 
ATOM     22  C   UNL     1      18.246   7.792  21.024  0.00  0.00    +0.041 A 
ENDBRANCH  13  15
ENDBRANCH   5  13
ENDBRANCH  14   9
TORSDOF 8
ENDMDL
MODEL 8
REMARK VINA RESULT:      -6.3      2.402      3.896
REMARK  Name = 45783342
REMARK  9 active torsions:
REMARK  status: ('A' for Active; 'I' for Inactive)
REMARK    1  A    between atoms: O_3  and  C_25
REMARK    2  A    between atoms: O_3  and  C_27
REMARK    3  A    between atoms: O_4  and  C_28
REMARK    4  A    between atoms: O_4  and  C_29
REMARK    5  A    between atoms: N_5  and  C_13
REMARK    6  A    between atoms: C_9  and  C_14
REMARK    7  A    between atoms: C_13  and  C_15
REMARK    8  A    between atoms: C_18  and  C_21
REMARK    9  A    between atoms: C_27  and  C_28
REMARK                            x       y       z     vdW  Elec       q    Type
REMARK                         _______ _______ _______ _____ _____    ______ ____
ROOT
ATOM      2  O   UNL     1      14.415   6.578  20.368  0.00  0.00    -0.336 OA
ATOM      6  N   UNL     1      15.588   8.144  21.457  0.00  0.00    -0.190 NA
ATOM      7  N   UNL     1      15.762   6.218  20.234  0.00  0.00    -0.056 NA
ATOM     14  C   UNL     1      14.402   7.721  21.100  0.00  0.00    +0.245 A 
ATOM     18  C   UNL     1      16.391   7.190  20.903  0.00  0.00    +0.202 A 
ENDROOT
BRANCH  18  21
ATOM      8  N   UNL     1      20.600   7.326  21.291  0.00  0.00    -0.221 NA
ATOM     21  C   UNL     1      17.818   7.237  21.035  0.00  0.00    +0.029 A 
ATOM     23  C   UNL     1      18.587   6.127  20.699  0.00  0.00    +0.079 A 
ATOM     24  C   UNL     1      18.439   8.390  21.499  0.00  0.00    +0.031 A 
ATOM     25  C   UNL     1      19.961   6.222  20.845  0.00  0.00    +0.215 A 
ATOM     26  C   UNL     1      19.820   8.384  21.609  0.00  0.00    +0.115 A 
BRANCH  25   3
ATOM      3  O   UNL     1      20.740   5.143  20.520  0.00  0.00    -0.474 OA
BRANCH   3  27
ATOM     27  C   UNL     1      21.644   4.682  21.517  0.00  0.00    +0.258 C 
BRANCH  27  28
ATOM     28  C   UNL     1      22.872   4.101  20.842  0.00  0.00    +0.200 C 
BRANCH  28   4
ATOM      4  O   UNL     1      22.774   2.682  20.842  0.00  0.00    -0.380 OA
ATOM     29  C   UNL     1      24.008   2.076  21.199  0.00  0.00    +0.194 C 
ENDBRANCH  28   4
ENDBRANCH  27  28
ENDBRANCH   3  27
ENDBRANCH  25   3
ENDBRANCH  18  21
BRANCH  14   9
ATOM      5  N   UNL     1      12.381   8.843  20.176  0.00  0.00    -0.287 NA
ATOM      9  C   UNL     1      13.042   8.322  21.389  0.00  0.00    +0.146 C 
ATOM     10  C   UNL     1      12.049   7.297  21.965  0.00  0.00    +0.030 C 
ATOM     11  C   UNL     1      10.839   7.353  21.044  0.00  0.00    +0.017 C 
ATOM     12  C   UNL     1      10.941   8.723  20.405  0.00  0.00    +0.085 C 
BRANCH   5  13
ATOM     13  C   UNL     1      12.773  10.208  19.848  0.00  0.00    +0.120 C 
BRANCH  13  15
ATOM      1 CL   UNL     1      15.431  10.544  14.461  0.00  0.00    -0.084 Cl
ATOM     15  C   UNL     1      13.438  10.291  18.499  0.00  0.00    -0.033 A 
ATOM     16  C   UNL     1      14.345  11.317  18.232  0.00  0.00    +0.006 A 
ATOM     17  C   UNL     1      13.146   9.345  17.517  0.00  0.00    +0.006 A 
ATOM     19  C   UNL     1      14.960  11.395  16.983  0.00  0.00    +0.020 A 
ATOM     20  C   UNL     1      13.762   9.423  16.268  0.00  0.00    +0.020 A 
ATOM     22  C   UNL     1      14.668  10.449  16.001  0.00  0.00    +0.041 A 
ENDBRANCH  13  15
ENDBRANCH   5  13
ENDBRANCH  14   9
TORSDOF 8
ENDMDL
MODEL 9
REMARK VINA RESULT:      -6.2      4.039      7.097
REMARK  Name = 45783342
REMARK  9 active torsions:
REMARK  status: ('A' for Active; 'I' for Inactive)
REMARK    1  A    between atoms: O_3  and  C_25
REMARK    2  A    between atoms: O_3  and  C_27
REMARK    3  A    between atoms: O_4  and  C_28
REMARK    4  A    between atoms: O_4  and  C_29
REMARK    5  A    between atoms: N_5  and  C_13
REMARK    6  A    between atoms: C_9  and  C_14
REMARK    7  A    between atoms: C_13  and  C_15
REMARK    8  A    between atoms: C_18  and  C_21
REMARK    9  A    between atoms: C_27  and  C_28
REMARK                            x       y       z     vdW  Elec       q    Type
REMARK                         _______ _______ _______ _____ _____    ______ ____
ROOT
ATOM      2  O   UNL     1      13.017   7.741  16.911  0.00  0.00    -0.336 OA
ATOM      6  N   UNL     1      13.711   9.580  17.984  0.00  0.00    -0.190 NA
ATOM      7  N   UNL     1      13.713   8.504  15.965  0.00  0.00    -0.056 NA
ATOM     14  C   UNL     1      13.063   8.446  18.071  0.00  0.00    +0.245 A 
ATOM     18  C   UNL     1      14.091   9.573  16.674  0.00  0.00    +0.202 A 
ENDROOT
BRANCH  18  21
ATOM      8  N   UNL     1      16.321  12.747  14.988  0.00  0.00    -0.221 NA
ATOM     21  C   UNL     1      14.847  10.649  16.102  0.00  0.00    +0.029 A 
ATOM     23  C   UNL     1      15.338  11.666  16.914  0.00  0.00    +0.079 A 
ATOM     24  C   UNL     1      15.092  10.680  14.734  0.00  0.00    +0.031 A 
ATOM     25  C   UNL     1      16.062  12.683  16.314  0.00  0.00    +0.215 A 
ATOM     26  C   UNL     1      15.827  11.741  14.231  0.00  0.00    +0.115 A 
BRANCH  25   3
ATOM      3  O   UNL     1      16.557  13.696  17.092  0.00  0.00    -0.474 OA
BRANCH   3  27
ATOM     27  C   UNL     1      17.967  13.884  17.078  0.00  0.00    +0.258 C 
BRANCH  27  28
ATOM     28  C   UNL     1      18.597  12.978  18.120  0.00  0.00    +0.200 C 
BRANCH  28   4
ATOM      4  O   UNL     1      19.787  12.412  17.584  0.00  0.00    -0.380 OA
ATOM     29  C   UNL     1      19.806  12.491  16.166  0.00  0.00    +0.194 C 
ENDBRANCH  28   4
ENDBRANCH  27  28
ENDBRANCH   3  27
ENDBRANCH  25   3
ENDBRANCH  18  21
BRANCH  14   9
ATOM      5  N   UNL     1      13.178   7.918  20.501  0.00  0.00    -0.287 NA
ATOM      9  C   UNL     1      12.373   7.824  19.267  0.00  0.00    +0.146 C 
ATOM     10  C   UNL     1      11.044   8.518  19.614  0.00  0.00    +0.030 C 
ATOM     11  C   UNL     1      11.172   8.916  21.077  0.00  0.00    +0.017 C 
ATOM     12  C   UNL     1      12.228   7.970  21.612  0.00  0.00    +0.085 C 
BRANCH   5  13
ATOM     13  C   UNL     1      14.136   6.829  20.647  0.00  0.00    +0.120 C 
BRANCH  13  15
ATOM      1 CL   UNL     1      19.742   8.869  21.424  0.00  0.00    -0.084 Cl
ATOM     15  C   UNL     1      15.539   7.339  20.842  0.00  0.00    -0.033 A 
ATOM     16  C   UNL     1      15.799   8.708  20.773  0.00  0.00    +0.006 A 
ATOM     17  C   UNL     1      16.579   6.443  21.089  0.00  0.00    +0.006 A 
ATOM     19  C   UNL     1      17.099   9.181  20.952  0.00  0.00    +0.020 A 
ATOM     20  C   UNL     1      17.880   6.916  21.269  0.00  0.00    +0.020 A 
ATOM     22  C   UNL     1      18.139   8.285  21.200  0.00  0.00    +0.041 A 
ENDBRANCH  13  15
ENDBRANCH   5  13
ENDBRANCH  14   9
TORSDOF 8
ENDMDL
MODEL 10
REMARK VINA RESULT:      -6.2     17.108     21.033
REMARK  Name = 45783342
REMARK  9 active torsions:
REMARK  status: ('A' for Active; 'I' for Inactive)
REMARK    1  A    between atoms: O_3  and  C_25
REMARK    2  A    between atoms: O_3  and  C_27
REMARK    3  A    between atoms: O_4  and  C_28
REMARK    4  A    between atoms: O_4  and  C_29
REMARK    5  A    between atoms: N_5  and  C_13
REMARK    6  A    between atoms: C_9  and  C_14
REMARK    7  A    between atoms: C_13  and  C_15
REMARK    8  A    between atoms: C_18  and  C_21
REMARK    9  A    between atoms: C_27  and  C_28
REMARK                            x       y       z     vdW  Elec       q    Type
REMARK                         _______ _______ _______ _____ _____    ______ ____
ROOT
ATOM      2  O   UNL     1      11.858   3.245   2.478  0.00  0.00    -0.336 OA
ATOM      6  N   UNL     1      11.804   5.302   1.594  0.00  0.00    -0.190 NA
ATOM      7  N   UNL     1      10.833   3.928   3.145  0.00  0.00    -0.056 NA
ATOM     14  C   UNL     1      12.377   4.125   1.584  0.00  0.00    +0.245 A 
ATOM     18  C   UNL     1      10.863   5.134   2.568  0.00  0.00    +0.202 A 
ENDROOT
BRANCH  18  21
ATOM      8  N   UNL     1       8.222   8.247   3.672  0.00  0.00    -0.221 NA
ATOM     21  C   UNL     1       9.968   6.190   2.942  0.00  0.00    +0.029 A 
ATOM     23  C   UNL     1       9.439   6.233   4.228  0.00  0.00    +0.079 A 
ATOM     24  C   UNL     1       9.625   7.173   2.022  0.00  0.00    +0.031 A 
ATOM     25  C   UNL     1       8.578   7.273   4.540  0.00  0.00    +0.215 A 
ATOM     26  C   UNL     1       8.756   8.171   2.432  0.00  0.00    +0.115 A 
BRANCH  25   3
ATOM      3  O   UNL     1       8.044   7.339   5.800  0.00  0.00    -0.474 OA
BRANCH   3  27
ATOM     27  C   UNL     1       8.723   8.162   6.741  0.00  0.00    +0.258 C 
BRANCH  27  28
ATOM     28  C   UNL     1       8.870   7.403   8.046  0.00  0.00    +0.200 C 
BRANCH  28   4
ATOM      4  O   UNL     1       9.214   6.052   7.761  0.00  0.00    -0.380 OA
ATOM     29  C   UNL     1      10.369   5.647   8.483  0.00  0.00    +0.194 C 
ENDBRANCH  28   4
ENDBRANCH  27  28
ENDBRANCH   3  27
ENDBRANCH  25   3
ENDBRANCH  18  21
BRANCH  14   9
ATOM      5  N   UNL     1      13.294   3.863  -0.715  0.00  0.00    -0.287 NA
ATOM      9  C   UNL     1      13.518   3.621   0.724  0.00  0.00    +0.146 C 
ATOM     10  C   UNL     1      14.852   4.323   1.035  0.00  0.00    +0.030 C 
ATOM     11  C   UNL     1      15.332   4.877  -0.298  0.00  0.00    +0.017 C 
ATOM     12  C   UNL     1      14.618   4.014  -1.319  0.00  0.00    +0.085 C 
BRANCH   5  13
ATOM     13  C   UNL     1      12.514   2.814  -1.360  0.00  0.00    +0.120 C 
BRANCH  13  15
ATOM      1 CL   UNL     1       7.792   5.054  -4.340  0.00  0.00    -0.084 Cl
ATOM     15  C   UNL     1      11.331   3.374  -2.106  0.00  0.00    -0.033 A 
ATOM     16  C   UNL     1      10.839   4.638  -1.783  0.00  0.00    +0.006 A 
ATOM     17  C   UNL     1      10.729   2.629  -3.119  0.00  0.00    +0.006 A 
ATOM     19  C   UNL     1       9.743   5.157  -2.473  0.00  0.00    +0.020 A 
ATOM     20  C   UNL     1       9.634   3.147  -3.810  0.00  0.00    +0.020 A 
ATOM     22  C   UNL     1       9.141   4.411  -3.487  0.00  0.00    +0.041 A 
ENDBRANCH  13  15
ENDBRANCH   5  13
ENDBRANCH  14   9
TORSDOF 8
ENDMDL
