MODEL 1
REMARK VINA RESULT:      -7.9      0.000      0.000
REMARK  Name = 75367690
REMARK  6 active torsions:
REMARK  status: ('A' for Active; 'I' for Inactive)
REMARK    1  A    between atoms: S_1  and  C_20
REMARK    2  A    between atoms: S_1  and  C_25
REMARK    3  A    between atoms: O_3  and  C_10
REMARK    4  A    between atoms: O_3  and  C_16
REMARK    5  A    between atoms: C_15  and  C_17
REMARK    6  A    between atoms: C_24  and  C_26
REMARK                            x       y       z     vdW  Elec       q    Type
REMARK                         _______ _______ _______ _____ _____    ______ ____
ROOT
ATOM      2  O   UNL     1      13.063   7.639  21.892  0.00  0.00    -0.375 OA
ATOM      4  O   UNL     1      11.293   7.699  17.401  0.00  0.00    -0.268 OA
ATOM      8  N   UNL     1      13.196   7.567  18.762  0.00  0.00    -0.290 N 
ATOM     10  C   UNL     1      15.043   7.906  20.491  0.00  0.00    +0.216 C 
ATOM     11  C   UNL     1      14.572   7.998  19.037  0.00  0.00    +0.155 C 
ATOM     12  C   UNL     1      12.550   6.656  19.709  0.00  0.00    +0.136 C 
ATOM     13  C   UNL     1      14.074   8.553  21.479  0.00  0.00    +0.206 C 
ATOM     14  C   UNL     1      12.039   7.410  20.930  0.00  0.00    +0.179 C 
ATOM     15  C   UNL     1      12.456   8.010  17.654  0.00  0.00    +0.268 C 
ENDROOT
BRANCH  15  17
ATOM      5  O   UNL     1      14.118   9.561  14.899  0.00  0.00    -0.359 OA
ATOM      9  N   UNL     1      13.580   8.453  15.543  0.00  0.00    -0.073 NA
ATOM     17  C   UNL     1      13.107   8.924  16.701  0.00  0.00    +0.168 A 
ATOM     23  C   UNL     1      13.316  10.307  16.841  0.00  0.00    +0.080 A 
ATOM     24  C   UNL     1      13.955  10.658  15.681  0.00  0.00    +0.135 A 
ATOM     26  C   UNL     1      14.471  11.926  15.150  0.00  0.00    +0.089 C 
ENDBRANCH  15  17
BRANCH  10   3
ATOM      3  O   UNL     1      16.299   8.582  20.561  0.00  0.00    -0.485 OA
BRANCH   3  16
ATOM     16  C   UNL     1      17.407   7.798  20.722  0.00  0.00    +0.121 A 
ATOM     18  C   UNL     1      18.421   8.193  21.594  0.00  0.00    +0.047 A 
ATOM     19  C   UNL     1      17.522   6.600  20.016  0.00  0.00    +0.047 A 
ATOM     20  C   UNL     1      19.667   6.196  21.052  0.00  0.00    +0.088 A 
ATOM     21  C   UNL     1      19.551   7.393  21.759  0.00  0.00    +0.030 A 
ATOM     22  C   UNL     1      18.653   5.799  20.180  0.00  0.00    +0.030 A 
BRANCH  20   1
ATOM      1  S   UNL     1      21.081   5.191  21.262  0.00  0.00    -0.006 S 
ATOM      6  O   UNL     1      21.372   5.078  22.685  0.00  0.00    -0.170 OA
ATOM      7  O   UNL     1      20.897   3.987  20.464  0.00  0.00    -0.170 OA
ATOM     25  C   UNL     1      22.404   6.133  20.536  0.00  0.00    +0.200 C 
ENDBRANCH  20   1
ENDBRANCH   3  16
ENDBRANCH  10   3
TORSDOF 4
ENDMDL
MODEL 2
REMARK VINA RESULT:      -6.9      2.481      4.437
REMARK  Name = 75367690
REMARK  6 active torsions:
REMARK  status: ('A' for Active; 'I' for Inactive)
REMARK    1  A    between atoms: S_1  and  C_20
REMARK    2  A    between atoms: S_1  and  C_25
REMARK    3  A    between atoms: O_3  and  C_10
REMARK    4  A    between atoms: O_3  and  C_16
REMARK    5  A    between atoms: C_15  and  C_17
REMARK    6  A    between atoms: C_24  and  C_26
REMARK                            x       y       z     vdW  Elec       q    Type
REMARK                         _______ _______ _______ _____ _____    ______ ____
ROOT
ATOM      2  O   UNL     1      12.787   7.987  16.899  0.00  0.00    -0.375 OA
ATOM      4  O   UNL     1      12.963  12.292  19.076  0.00  0.00    -0.268 OA
ATOM      8  N   UNL     1      13.892  10.149  18.881  0.00  0.00    -0.290 N 
ATOM     10  C   UNL     1      14.344   7.641  18.744  0.00  0.00    +0.216 C 
ATOM     11  C   UNL     1      14.420   8.948  19.538  0.00  0.00    +0.155 C 
ATOM     12  C   UNL     1      13.795  10.157  17.420  0.00  0.00    +0.136 C 
ATOM     13  C   UNL     1      12.957   7.365  18.168  0.00  0.00    +0.206 C 
ATOM     14  C   UNL     1      12.564   9.392  16.949  0.00  0.00    +0.179 C 
ATOM     15  C   UNL     1      13.441  11.278  19.584  0.00  0.00    +0.268 C 
ENDROOT
BRANCH  15  17
ATOM      5  O   UNL     1      12.934  10.967  23.106  0.00  0.00    -0.359 OA
ATOM      9  N   UNL     1      12.510  10.842  21.788  0.00  0.00    -0.073 NA
ATOM     17  C   UNL     1      13.540  11.270  21.053  0.00  0.00    +0.168 A 
ATOM     23  C   UNL     1      14.630  11.675  21.844  0.00  0.00    +0.080 A 
ATOM     24  C   UNL     1      14.197  11.463  23.126  0.00  0.00    +0.135 A 
ATOM     26  C   UNL     1      14.804  11.661  24.448  0.00  0.00    +0.089 C 
ENDBRANCH  15  17
BRANCH  10   3
ATOM      3  O   UNL     1      14.691   6.590  19.647  0.00  0.00    -0.485 OA
BRANCH   3  16
ATOM     16  C   UNL     1      16.021   6.432  19.920  0.00  0.00    +0.121 A 
ATOM     18  C   UNL     1      16.868   5.872  18.965  0.00  0.00    +0.047 A 
ATOM     19  C   UNL     1      16.532   6.833  21.155  0.00  0.00    +0.047 A 
ATOM     20  C   UNL     1      18.736   6.111  20.478  0.00  0.00    +0.088 A 
ATOM     21  C   UNL     1      18.225   5.711  19.242  0.00  0.00    +0.030 A 
ATOM     22  C   UNL     1      17.889   6.672  21.434  0.00  0.00    +0.030 A 
BRANCH  20   1
ATOM      1  S   UNL     1      20.436   5.914  20.825  0.00  0.00    -0.006 S 
ATOM      6  O   UNL     1      20.825   4.544  20.514  0.00  0.00    -0.170 OA
ATOM      7  O   UNL     1      21.151   7.024  20.212  0.00  0.00    -0.170 OA
ATOM     25  C   UNL     1      20.551   6.096  22.590  0.00  0.00    +0.200 C 
ENDBRANCH  20   1
ENDBRANCH   3  16
ENDBRANCH  10   3
TORSDOF 4
ENDMDL
MODEL 3
REMARK VINA RESULT:      -6.6     32.146     33.605
REMARK  Name = 75367690
REMARK  6 active torsions:
REMARK  status: ('A' for Active; 'I' for Inactive)
REMARK    1  A    between atoms: S_1  and  C_20
REMARK    2  A    between atoms: S_1  and  C_25
REMARK    3  A    between atoms: O_3  and  C_10
REMARK    4  A    between atoms: O_3  and  C_16
REMARK    5  A    between atoms: C_15  and  C_17
REMARK    6  A    between atoms: C_24  and  C_26
REMARK                            x       y       z     vdW  Elec       q    Type
REMARK                         _______ _______ _______ _____ _____    ______ ____
ROOT
ATOM      2  O   UNL     1     -16.691   6.600  33.182  0.00  0.00    -0.375 OA
ATOM      4  O   UNL     1     -13.975  10.368  34.498  0.00  0.00    -0.268 OA
ATOM      8  N   UNL     1     -14.028   8.188  33.639  0.00  0.00    -0.290 N 
ATOM     10  C   UNL     1     -14.420   5.709  33.178  0.00  0.00    +0.216 C 
ATOM     11  C   UNL     1     -13.483   6.825  33.646  0.00  0.00    +0.155 C 
ATOM     12  C   UNL     1     -15.171   8.476  32.771  0.00  0.00    +0.136 C 
ATOM     13  C   UNL     1     -15.784   5.740  33.865  0.00  0.00    +0.206 C 
ATOM     14  C   UNL     1     -16.471   7.990  33.400  0.00  0.00    +0.179 C 
ATOM     15  C   UNL     1     -13.530   9.222  34.449  0.00  0.00    +0.268 C 
ENDROOT
BRANCH  15  17
ATOM      5  O   UNL     1     -10.337   8.970  36.030  0.00  0.00    -0.359 OA
ATOM      9  N   UNL     1     -11.175   9.428  35.020  0.00  0.00    -0.073 NA
ATOM     17  C   UNL     1     -12.379   8.933  35.321  0.00  0.00    +0.168 A 
ATOM     23  C   UNL     1     -12.363   8.163  36.497  0.00  0.00    +0.080 A 
ATOM     24  C   UNL     1     -11.055   8.219  36.902  0.00  0.00    +0.135 A 
ATOM     26  C   UNL     1     -10.320   7.651  38.040  0.00  0.00    +0.089 C 
ENDBRANCH  15  17
BRANCH  10   3
ATOM      3  O   UNL     1     -13.773   4.473  33.485  0.00  0.00    -0.485 OA
BRANCH   3  16
ATOM     16  C   UNL     1     -14.061   3.413  32.670  0.00  0.00    +0.121 A 
ATOM     18  C   UNL     1     -14.605   2.247  33.207  0.00  0.00    +0.047 A 
ATOM     19  C   UNL     1     -13.811   3.500  31.300  0.00  0.00    +0.047 A 
ATOM     20  C   UNL     1     -14.649   1.252  31.007  0.00  0.00    +0.088 A 
ATOM     21  C   UNL     1     -14.899   1.167  32.376  0.00  0.00    +0.030 A 
ATOM     22  C   UNL     1     -14.105   2.418  30.468  0.00  0.00    +0.030 A 
BRANCH  20   1
ATOM      1  S   UNL     1     -15.021  -0.100  29.965  0.00  0.00    -0.006 S 
ATOM      6  O   UNL     1     -15.726  -1.112  30.740  0.00  0.00    -0.170 OA
ATOM      7  O   UNL     1     -15.621   0.425  28.746  0.00  0.00    -0.170 OA
ATOM     25  C   UNL     1     -13.434  -0.783  29.544  0.00  0.00    +0.200 C 
ENDBRANCH  20   1
ENDBRANCH   3  16
ENDBRANCH  10   3
TORSDOF 4
ENDMDL
MODEL 4
REMARK VINA RESULT:      -6.4     13.399     16.917
REMARK  Name = 75367690
REMARK  6 active torsions:
REMARK  status: ('A' for Active; 'I' for Inactive)
REMARK    1  A    between atoms: S_1  and  C_20
REMARK    2  A    between atoms: S_1  and  C_25
REMARK    3  A    between atoms: O_3  and  C_10
REMARK    4  A    between atoms: O_3  and  C_16
REMARK    5  A    between atoms: C_15  and  C_17
REMARK    6  A    between atoms: C_24  and  C_26
REMARK                            x       y       z     vdW  Elec       q    Type
REMARK                         _______ _______ _______ _____ _____    ______ ____
ROOT
ATOM      2  O   UNL     1       8.203  10.088   3.691  0.00  0.00    -0.375 OA
ATOM      4  O   UNL     1      10.277   9.578   8.020  0.00  0.00    -0.268 OA
ATOM      8  N   UNL     1      10.124   8.810   5.811  0.00  0.00    -0.290 N 
ATOM     10  C   UNL     1       9.381   7.959   3.523  0.00  0.00    +0.216 C 
ATOM     11  C   UNL     1      10.027   7.678   4.883  0.00  0.00    +0.155 C 
ATOM     12  C   UNL     1      10.080  10.167   5.262  0.00  0.00    +0.136 C 
ATOM     13  C   UNL     1       8.036   8.676   3.632  0.00  0.00    +0.206 C 
ATOM     14  C   UNL     1       8.648  10.583   4.950  0.00  0.00    +0.179 C 
ATOM     15  C   UNL     1      10.224   8.659   7.204  0.00  0.00    +0.268 C 
ENDROOT
BRANCH  15  17
ATOM      5  O   UNL     1      11.114   5.391   8.338  0.00  0.00    -0.359 OA
ATOM      9  N   UNL     1      11.421   6.616   7.758  0.00  0.00    -0.073 NA
ATOM     17  C   UNL     1      10.271   7.295   7.756  0.00  0.00    +0.168 A 
ATOM     23  C   UNL     1       9.214   6.557   8.317  0.00  0.00    +0.080 A 
ATOM     24  C   UNL     1       9.797   5.368   8.666  0.00  0.00    +0.135 A 
ATOM     26  C   UNL     1       9.299   4.138   9.294  0.00  0.00    +0.089 C 
ENDBRANCH  15  17
BRANCH  10   3
ATOM      3  O   UNL     1       9.183   6.693   2.892  0.00  0.00    -0.485 OA
BRANCH   3  16
ATOM     16  C   UNL     1      10.301   6.068   2.411  0.00  0.00    +0.121 A 
ATOM     18  C   UNL     1      11.146   6.734   1.524  0.00  0.00    +0.047 A 
ATOM     19  C   UNL     1      10.597   4.764   2.810  0.00  0.00    +0.047 A 
ATOM     20  C   UNL     1      12.581   4.794   1.432  0.00  0.00    +0.088 A 
ATOM     21  C   UNL     1      12.286   6.098   1.034  0.00  0.00    +0.030 A 
ATOM     22  C   UNL     1      11.737   4.127   2.320  0.00  0.00    +0.030 A 
BRANCH  20   1
ATOM      1  S   UNL     1      14.011   3.998   0.822  0.00  0.00    -0.006 S 
ATOM      6  O   UNL     1      14.506   3.074   1.835  0.00  0.00    -0.170 OA
ATOM      7  O   UNL     1      13.715   3.510  -0.518  0.00  0.00    -0.170 OA
ATOM     25  C   UNL     1      15.214   5.300   0.677  0.00  0.00    +0.200 C 
ENDBRANCH  20   1
ENDBRANCH   3  16
ENDBRANCH  10   3
TORSDOF 4
ENDMDL
MODEL 5
REMARK VINA RESULT:      -6.2     16.184     19.589
REMARK  Name = 75367690
REMARK  6 active torsions:
REMARK  status: ('A' for Active; 'I' for Inactive)
REMARK    1  A    between atoms: S_1  and  C_20
REMARK    2  A    between atoms: S_1  and  C_25
REMARK    3  A    between atoms: O_3  and  C_10
REMARK    4  A    between atoms: O_3  and  C_16
REMARK    5  A    between atoms: C_15  and  C_17
REMARK    6  A    between atoms: C_24  and  C_26
REMARK                            x       y       z     vdW  Elec       q    Type
REMARK                         _______ _______ _______ _____ _____    ______ ____
ROOT
ATOM      2  O   UNL     1      14.927   3.790   1.695  0.00  0.00    -0.375 OA
ATOM      4  O   UNL     1      14.423   4.339  -3.075  0.00  0.00    -0.268 OA
ATOM      8  N   UNL     1      13.503   4.690  -0.949  0.00  0.00    -0.290 N 
ATOM     10  C   UNL     1      12.606   4.495   1.433  0.00  0.00    +0.216 C 
ATOM     11  C   UNL     1      12.331   4.638  -0.066  0.00  0.00    +0.155 C 
ATOM     12  C   UNL     1      14.789   5.092  -0.375  0.00  0.00    +0.136 C 
ATOM     13  C   UNL     1      13.572   3.358   1.763  0.00  0.00    +0.206 C 
ATOM     14  C   UNL     1      15.439   3.935   0.374  0.00  0.00    +0.179 C 
ATOM     15  C   UNL     1      13.461   4.340  -2.308  0.00  0.00    +0.268 C 
ENDROOT
BRANCH  15  17
ATOM      5  O   UNL     1      10.292   4.132  -3.942  0.00  0.00    -0.359 OA
ATOM      9  N   UNL     1      11.422   4.833  -3.537  0.00  0.00    -0.073 NA
ATOM     17  C   UNL     1      12.168   3.937  -2.885  0.00  0.00    +0.168 A 
ATOM     23  C   UNL     1      11.568   2.667  -2.848  0.00  0.00    +0.080 A 
ATOM     24  C   UNL     1      10.391   2.844  -3.526  0.00  0.00    +0.135 A 
ATOM     26  C   UNL     1       9.274   1.955  -3.871  0.00  0.00    +0.089 C 
ENDBRANCH  15  17
BRANCH  10   3
ATOM      3  O   UNL     1      11.349   4.235   2.059  0.00  0.00    -0.485 OA
BRANCH   3  16
ATOM     16  C   UNL     1      11.121   4.857   3.256  0.00  0.00    +0.121 A 
ATOM     18  C   UNL     1      10.324   4.242   4.221  0.00  0.00    +0.047 A 
ATOM     19  C   UNL     1      11.689   6.105   3.511  0.00  0.00    +0.047 A 
ATOM     20  C   UNL     1      10.658   6.125   5.697  0.00  0.00    +0.088 A 
ATOM     21  C   UNL     1      10.092   4.876   5.441  0.00  0.00    +0.030 A 
ATOM     22  C   UNL     1      11.456   6.740   4.732  0.00  0.00    +0.030 A 
BRANCH  20   1
ATOM      1  S   UNL     1      10.371   6.917   7.227  0.00  0.00    -0.006 S 
ATOM      6  O   UNL     1      10.392   5.917   8.287  0.00  0.00    -0.170 OA
ATOM      7  O   UNL     1      11.253   8.073   7.306  0.00  0.00    -0.170 OA
ATOM     25  C   UNL     1       8.699   7.512   7.109  0.00  0.00    +0.200 C 
ENDBRANCH  20   1
ENDBRANCH   3  16
ENDBRANCH  10   3
TORSDOF 4
ENDMDL
MODEL 6
REMARK VINA RESULT:      -6.0     14.211     18.095
REMARK  Name = 75367690
REMARK  6 active torsions:
REMARK  status: ('A' for Active; 'I' for Inactive)
REMARK    1  A    between atoms: S_1  and  C_20
REMARK    2  A    between atoms: S_1  and  C_25
REMARK    3  A    between atoms: O_3  and  C_10
REMARK    4  A    between atoms: O_3  and  C_16
REMARK    5  A    between atoms: C_15  and  C_17
REMARK    6  A    between atoms: C_24  and  C_26
REMARK                            x       y       z     vdW  Elec       q    Type
REMARK                         _______ _______ _______ _____ _____    ______ ____
ROOT
ATOM      2  O   UNL     1      11.943   8.533   2.686  0.00  0.00    -0.375 OA
ATOM      4  O   UNL     1      11.719   9.148   7.469  0.00  0.00    -0.268 OA
ATOM      8  N   UNL     1      11.940   7.639   5.690  0.00  0.00    -0.290 N 
ATOM     10  C   UNL     1      11.696   6.266   3.552  0.00  0.00    +0.216 C 
ATOM     11  C   UNL     1      11.554   6.364   5.073  0.00  0.00    +0.155 C 
ATOM     12  C   UNL     1      12.856   8.516   4.958  0.00  0.00    +0.136 C 
ATOM     13  C   UNL     1      11.047   7.433   2.810  0.00  0.00    +0.206 C 
ATOM     14  C   UNL     1      12.118   9.295   3.876  0.00  0.00    +0.179 C 
ATOM     15  C   UNL     1      11.448   8.076   6.930  0.00  0.00    +0.268 C 
ENDROOT
BRANCH  15  17
ATOM      5  O   UNL     1       8.666   6.476   8.498  0.00  0.00    -0.359 OA
ATOM      9  N   UNL     1       9.231   7.501   7.749  0.00  0.00    -0.073 NA
ATOM     17  C   UNL     1      10.529   7.192   7.667  0.00  0.00    +0.168 A 
ATOM     23  C   UNL     1      10.838   5.997   8.338  0.00  0.00    +0.080 A 
ATOM     24  C   UNL     1       9.632   5.587   8.843  0.00  0.00    +0.135 A 
ATOM     26  C   UNL     1       9.206   4.432   9.644  0.00  0.00    +0.089 C 
ENDBRANCH  15  17
BRANCH  10   3
ATOM      3  O   UNL     1      11.058   5.051   3.157  0.00  0.00    -0.485 OA
BRANCH   3  16
ATOM     16  C   UNL     1      11.331   4.598   1.895  0.00  0.00    +0.121 A 
ATOM     18  C   UNL     1      12.554   3.988   1.623  0.00  0.00    +0.047 A 
ATOM     19  C   UNL     1      10.384   4.746   0.882  0.00  0.00    +0.047 A 
ATOM     20  C   UNL     1      11.887   3.674  -0.677  0.00  0.00    +0.088 A 
ATOM     21  C   UNL     1      12.833   3.526   0.337  0.00  0.00    +0.030 A 
ATOM     22  C   UNL     1      10.662   4.284  -0.405  0.00  0.00    +0.030 A 
BRANCH  20   1
ATOM      1  S   UNL     1      12.234   3.092  -2.287  0.00  0.00    -0.006 S 
ATOM      6  O   UNL     1      13.537   3.597  -2.700  0.00  0.00    -0.170 OA
ATOM      7  O   UNL     1      11.973   1.660  -2.312  0.00  0.00    -0.170 OA
ATOM     25  C   UNL     1      11.021   3.888  -3.316  0.00  0.00    +0.200 C 
ENDBRANCH  20   1
ENDBRANCH   3  16
ENDBRANCH  10   3
TORSDOF 4
ENDMDL
MODEL 7
REMARK VINA RESULT:      -6.0     27.376     30.828
REMARK  Name = 75367690
REMARK  6 active torsions:
REMARK  status: ('A' for Active; 'I' for Inactive)
REMARK    1  A    between atoms: S_1  and  C_20
REMARK    2  A    between atoms: S_1  and  C_25
REMARK    3  A    between atoms: O_3  and  C_10
REMARK    4  A    between atoms: O_3  and  C_16
REMARK    5  A    between atoms: C_15  and  C_17
REMARK    6  A    between atoms: C_24  and  C_26
REMARK                            x       y       z     vdW  Elec       q    Type
REMARK                         _______ _______ _______ _____ _____    ______ ____
ROOT
ATOM      2  O   UNL     1      -9.031 -11.049  18.754  0.00  0.00    -0.375 OA
ATOM      4  O   UNL     1      -4.298 -11.908  19.160  0.00  0.00    -0.268 OA
ATOM      8  N   UNL     1      -5.981 -10.598  18.190  0.00  0.00    -0.290 N 
ATOM     10  C   UNL     1      -8.041  -9.694  16.984  0.00  0.00    +0.216 C 
ATOM     11  C   UNL     1      -6.531  -9.950  16.994  0.00  0.00    +0.155 C 
ATOM     12  C   UNL     1      -6.742 -10.514  19.439  0.00  0.00    +0.136 C 
ATOM     13  C   UNL     1      -8.863 -10.929  17.345  0.00  0.00    +0.206 C 
ATOM     14  C   UNL     1      -7.884 -11.522  19.452  0.00  0.00    +0.179 C 
ATOM     15  C   UNL     1      -4.780 -11.325  18.190  0.00  0.00    +0.268 C 
ENDROOT
BRANCH  15  17
ATOM      5  O   UNL     1      -3.327 -12.215  15.051  0.00  0.00    -0.359 OA
ATOM      9  N   UNL     1      -4.186 -12.451  16.118  0.00  0.00    -0.073 NA
ATOM     17  C   UNL     1      -4.015 -11.407  16.935  0.00  0.00    +0.168 A 
ATOM     23  C   UNL     1      -3.070 -10.490  16.441  0.00  0.00    +0.080 A 
ATOM     24  C   UNL     1      -2.669 -11.045  15.255  0.00  0.00    +0.135 A 
ATOM     26  C   UNL     1      -1.714 -10.640  14.216  0.00  0.00    +0.089 C 
ENDBRANCH  15  17
BRANCH  10   3
ATOM      3  O   UNL     1      -8.380  -9.280  15.659  0.00  0.00    -0.485 OA
BRANCH   3  16
ATOM     16  C   UNL     1      -9.586  -8.656  15.502  0.00  0.00    +0.121 A 
ATOM     18  C   UNL     1     -10.432  -9.023  14.457  0.00  0.00    +0.047 A 
ATOM     19  C   UNL     1      -9.971  -7.652  16.392  0.00  0.00    +0.047 A 
ATOM     20  C   UNL     1     -12.048  -7.383  15.186  0.00  0.00    +0.088 A 
ATOM     21  C   UNL     1     -11.662  -8.387  14.297  0.00  0.00    +0.030 A 
ATOM     22  C   UNL     1     -11.203  -7.015  16.232  0.00  0.00    +0.030 A 
BRANCH  20   1
ATOM      1  S   UNL     1     -13.591  -6.588  14.989  0.00  0.00    -0.006 S 
ATOM      6  O   UNL     1     -14.313  -6.641  16.253  0.00  0.00    -0.170 OA
ATOM      7  O   UNL     1     -13.354  -5.304  14.344  0.00  0.00    -0.170 OA
ATOM     25  C   UNL     1     -14.477  -7.621  13.843  0.00  0.00    +0.200 C 
ENDBRANCH  20   1
ENDBRANCH   3  16
ENDBRANCH  10   3
TORSDOF 4
ENDMDL
MODEL 8
REMARK VINA RESULT:      -6.0     14.630     17.957
REMARK  Name = 75367690
REMARK  6 active torsions:
REMARK  status: ('A' for Active; 'I' for Inactive)
REMARK    1  A    between atoms: S_1  and  C_20
REMARK    2  A    between atoms: S_1  and  C_25
REMARK    3  A    between atoms: O_3  and  C_10
REMARK    4  A    between atoms: O_3  and  C_16
REMARK    5  A    between atoms: C_15  and  C_17
REMARK    6  A    between atoms: C_24  and  C_26
REMARK                            x       y       z     vdW  Elec       q    Type
REMARK                         _______ _______ _______ _____ _____    ______ ____
ROOT
ATOM      2  O   UNL     1       8.339   5.809   5.470  0.00  0.00    -0.375 OA
ATOM      4  O   UNL     1      11.300   9.550   6.207  0.00  0.00    -0.268 OA
ATOM      8  N   UNL     1      10.829   7.637   4.938  0.00  0.00    -0.290 N 
ATOM     10  C   UNL     1      10.280   5.294   4.085  0.00  0.00    +0.216 C 
ATOM     11  C   UNL     1      11.311   6.406   4.301  0.00  0.00    +0.155 C 
ATOM     12  C   UNL     1       9.397   7.936   4.877  0.00  0.00    +0.136 C 
ATOM     13  C   UNL     1       9.478   4.964   5.342  0.00  0.00    +0.206 C 
ATOM     14  C   UNL     1       8.625   7.131   5.915  0.00  0.00    +0.179 C 
ATOM     15  C   UNL     1      11.666   8.525   5.633  0.00  0.00    +0.268 C 
ENDROOT
BRANCH  15  17
ATOM      5  O   UNL     1      14.954   7.387   6.440  0.00  0.00    -0.359 OA
ATOM      9  N   UNL     1      13.588   7.469   6.684  0.00  0.00    -0.073 NA
ATOM     17  C   UNL     1      13.106   8.224   5.693  0.00  0.00    +0.168 A 
ATOM     23  C   UNL     1      14.109   8.643   4.803  0.00  0.00    +0.080 A 
ATOM     24  C   UNL     1      15.252   8.090   5.318  0.00  0.00    +0.135 A 
ATOM     26  C   UNL     1      16.663   8.110   4.911  0.00  0.00    +0.089 C 
ENDBRANCH  15  17
BRANCH  10   3
ATOM      3  O   UNL     1      11.006   4.133   3.677  0.00  0.00    -0.485 OA
BRANCH   3  16
ATOM     16  C   UNL     1      11.306   4.036   2.347  0.00  0.00    +0.121 A 
ATOM     18  C   UNL     1      12.514   3.470   1.944  0.00  0.00    +0.047 A 
ATOM     19  C   UNL     1      10.400   4.501   1.392  0.00  0.00    +0.047 A 
ATOM     20  C   UNL     1      11.916   3.835  -0.368  0.00  0.00    +0.088 A 
ATOM     21  C   UNL     1      12.820   3.370   0.587  0.00  0.00    +0.030 A 
ATOM     22  C   UNL     1      10.706   4.401   0.035  0.00  0.00    +0.030 A 
BRANCH  20   1
ATOM      1  S   UNL     1      12.297   3.706  -2.068  0.00  0.00    -0.006 S 
ATOM      6  O   UNL     1      13.742   3.788  -2.234  0.00  0.00    -0.170 OA
ATOM      7  O   UNL     1      11.571   2.564  -2.604  0.00  0.00    -0.170 OA
ATOM     25  C   UNL     1      11.608   5.180  -2.788  0.00  0.00    +0.200 C 
ENDBRANCH  20   1
ENDBRANCH   3  16
ENDBRANCH  10   3
TORSDOF 4
ENDMDL
MODEL 9
REMARK VINA RESULT:      -6.0     27.366     29.728
REMARK  Name = 75367690
REMARK  6 active torsions:
REMARK  status: ('A' for Active; 'I' for Inactive)
REMARK    1  A    between atoms: S_1  and  C_20
REMARK    2  A    between atoms: S_1  and  C_25
REMARK    3  A    between atoms: O_3  and  C_10
REMARK    4  A    between atoms: O_3  and  C_16
REMARK    5  A    between atoms: C_15  and  C_17
REMARK    6  A    between atoms: C_24  and  C_26
REMARK                            x       y       z     vdW  Elec       q    Type
REMARK                         _______ _______ _______ _____ _____    ______ ____
ROOT
ATOM      2  O   UNL     1      -7.004 -12.105  19.753  0.00  0.00    -0.375 OA
ATOM      4  O   UNL     1     -11.487 -11.575  18.042  0.00  0.00    -0.268 OA
ATOM      8  N   UNL     1      -9.189 -11.388  17.623  0.00  0.00    -0.290 N 
ATOM     10  C   UNL     1      -6.689 -10.876  17.670  0.00  0.00    +0.216 C 
ATOM     11  C   UNL     1      -8.074 -10.604  17.078  0.00  0.00    +0.155 C 
ATOM     12  C   UNL     1      -8.887 -12.657  18.288  0.00  0.00    +0.136 C 
ATOM     13  C   UNL     1      -6.668 -10.838  19.197  0.00  0.00    +0.206 C 
ATOM     14  C   UNL     1      -8.391 -12.425  19.710  0.00  0.00    +0.179 C 
ATOM     15  C   UNL     1     -10.527 -10.965  17.571  0.00  0.00    +0.268 C 
ENDROOT
BRANCH  15  17
ATOM      5  O   UNL     1     -11.371  -8.340  15.301  0.00  0.00    -0.359 OA
ATOM      9  N   UNL     1     -11.151  -9.679  15.604  0.00  0.00    -0.073 NA
ATOM     17  C   UNL     1     -10.831  -9.690  16.901  0.00  0.00    +0.168 A 
ATOM     23  C   UNL     1     -10.832  -8.402  17.464  0.00  0.00    +0.080 A 
ATOM     24  C   UNL     1     -11.178  -7.590  16.416  0.00  0.00    +0.135 A 
ATOM     26  C   UNL     1     -11.370  -6.141  16.274  0.00  0.00    +0.089 C 
ENDBRANCH  15  17
BRANCH  10   3
ATOM      3  O   UNL     1      -5.820  -9.859  17.167  0.00  0.00    -0.485 OA
BRANCH   3  16
ATOM     16  C   UNL     1      -4.996 -10.214  16.135  0.00  0.00    +0.121 A 
ATOM     18  C   UNL     1      -3.687 -10.619  16.395  0.00  0.00    +0.047 A 
ATOM     19  C   UNL     1      -5.466 -10.173  14.822  0.00  0.00    +0.047 A 
ATOM     20  C   UNL     1      -3.316 -10.939  14.030  0.00  0.00    +0.088 A 
ATOM     21  C   UNL     1      -2.847 -10.981  15.343  0.00  0.00    +0.030 A 
ATOM     22  C   UNL     1      -4.625 -10.535  13.769  0.00  0.00    +0.030 A 
BRANCH  20   1
ATOM      1  S   UNL     1      -2.265 -11.397  12.712  0.00  0.00    -0.006 S 
ATOM      6  O   UNL     1      -1.597 -10.205  12.206  0.00  0.00    -0.170 OA
ATOM      7  O   UNL     1      -1.473 -12.539  13.147  0.00  0.00    -0.170 OA
ATOM     25  C   UNL     1      -3.372 -11.952  11.436  0.00  0.00    +0.200 C 
ENDBRANCH  20   1
ENDBRANCH   3  16
ENDBRANCH  10   3
TORSDOF 4
ENDMDL
MODEL 10
REMARK VINA RESULT:      -5.9     26.904     29.627
REMARK  Name = 75367690
REMARK  6 active torsions:
REMARK  status: ('A' for Active; 'I' for Inactive)
REMARK    1  A    between atoms: S_1  and  C_20
REMARK    2  A    between atoms: S_1  and  C_25
REMARK    3  A    between atoms: O_3  and  C_10
REMARK    4  A    between atoms: O_3  and  C_16
REMARK    5  A    between atoms: C_15  and  C_17
REMARK    6  A    between atoms: C_24  and  C_26
REMARK                            x       y       z     vdW  Elec       q    Type
REMARK                         _______ _______ _______ _____ _____    ______ ____
ROOT
ATOM      2  O   UNL     1      -4.205 -12.934   8.319  0.00  0.00    -0.375 OA
ATOM      4  O   UNL     1      -6.361 -11.326   4.309  0.00  0.00    -0.268 OA
ATOM      8  N   UNL     1      -5.283 -10.777   6.317  0.00  0.00    -0.290 N 
ATOM     10  C   UNL     1      -4.504 -10.549   8.737  0.00  0.00    +0.216 C 
ATOM     11  C   UNL     1      -5.242  -9.957   7.533  0.00  0.00    +0.155 C 
ATOM     12  C   UNL     1      -4.263 -11.814   6.142  0.00  0.00    +0.136 C 
ATOM     13  C   UNL     1      -4.941 -11.974   9.070  0.00  0.00    +0.206 C 
ATOM     14  C   UNL     1      -4.602 -13.056   6.957  0.00  0.00    +0.179 C 
ATOM     15  C   UNL     1      -6.271 -10.641   5.328  0.00  0.00    +0.268 C 
ENDROOT
BRANCH  15  17
ATOM      5  O   UNL     1      -8.232  -7.656   5.341  0.00  0.00    -0.359 OA
ATOM      9  N   UNL     1      -7.092  -8.376   5.001  0.00  0.00    -0.073 NA
ATOM     17  C   UNL     1      -7.294  -9.598   5.502  0.00  0.00    +0.168 A 
ATOM     23  C   UNL     1      -8.531  -9.708   6.162  0.00  0.00    +0.080 A 
ATOM     24  C   UNL     1      -9.080  -8.460   6.031  0.00  0.00    +0.135 A 
ATOM     26  C   UNL     1     -10.344  -7.855   6.472  0.00  0.00    +0.089 C 
ENDBRANCH  15  17
BRANCH  10   3
ATOM      3  O   UNL     1      -4.788  -9.702   9.851  0.00  0.00    -0.485 OA
BRANCH   3  16
ATOM     16  C   UNL     1      -4.107  -9.965  11.008  0.00  0.00    +0.121 A 
ATOM     18  C   UNL     1      -2.714 -10.024  11.000  0.00  0.00    +0.047 A 
ATOM     19  C   UNL     1      -4.807 -10.172  12.197  0.00  0.00    +0.047 A 
ATOM     20  C   UNL     1      -2.720 -10.499  13.368  0.00  0.00    +0.088 A 
ATOM     21  C   UNL     1      -2.020 -10.291  12.180  0.00  0.00    +0.030 A 
ATOM     22  C   UNL     1      -4.113 -10.440  13.377  0.00  0.00    +0.030 A 
BRANCH  20   1
ATOM      1  S   UNL     1      -1.850 -10.830  14.847  0.00  0.00    -0.006 S 
ATOM      6  O   UNL     1      -1.288 -12.172  14.773  0.00  0.00    -0.170 OA
ATOM      7  O   UNL     1      -0.979  -9.695  15.118  0.00  0.00    -0.170 OA
ATOM     25  C   UNL     1      -3.110 -10.866  16.102  0.00  0.00    +0.200 C 
ENDBRANCH  20   1
ENDBRANCH   3  16
ENDBRANCH  10   3
TORSDOF 4
ENDMDL
