MODEL 1
REMARK VINA RESULT:      -6.8      0.000      0.000
REMARK  Name = 25312713
REMARK  7 active torsions:
REMARK  status: ('A' for Active; 'I' for Inactive)
REMARK    1  A    between atoms: O_3  and  C_29
REMARK    2  A    between atoms: N_6  and  C_17
REMARK    3  A    between atoms: C_14  and  C_18
REMARK    4  A    between atoms: C_16  and  C_23
REMARK    5  A    between atoms: C_17  and  C_18
REMARK    6  A    between atoms: C_23  and  C_29
REMARK    7  A    between atoms: C_26  and  C_30
REMARK                            x       y       z     vdW  Elec       q    Type
REMARK                         _______ _______ _______ _____ _____    ______ ____
ROOT
ATOM      4  O   UNL     1      -1.512  -9.986  12.272  0.00  0.00    -0.269 OA
ATOM      8  N   UNL     1      -2.824 -11.297  13.699  0.00  0.00    -0.297 N 
ATOM     14  C   UNL     1      -4.689 -11.495  15.330  0.00  0.00    +0.011 C 
ATOM     16  C   UNL     1      -3.635 -11.585  16.464  0.00  0.00    +0.006 C 
ATOM     20  C   UNL     1      -4.079 -11.996  14.007  0.00  0.00    +0.112 C 
ATOM     21  C   UNL     1      -2.324 -10.881  16.075  0.00  0.00    +0.023 C 
ATOM     22  C   UNL     1      -1.798 -11.391  14.737  0.00  0.00    +0.108 C 
ATOM     26  C   UNL     1      -2.560 -10.576  12.532  0.00  0.00    +0.253 C 
ENDROOT
BRANCH  26  30
ATOM      1  S   UNL     1      -3.717 -11.741  10.333  0.00  0.00    -0.092 S 
ATOM     30  C   UNL     1      -3.613 -10.504  11.514  0.00  0.00    +0.074 A 
ATOM     31  C   UNL     1      -4.588  -9.546  11.346  0.00  0.00    +0.021 A 
ATOM     32  C   UNL     1      -5.432  -9.830  10.234  0.00  0.00    +0.008 A 
ATOM     33  C   UNL     1      -5.071 -10.995   9.593  0.00  0.00    +0.046 A 
ENDBRANCH  26  30
BRANCH  14  18
ATOM     18  C   UNL     1      -5.285 -10.094  15.144  0.00  0.00    +0.020 C 
BRANCH  18  17
ATOM     17  C   UNL     1      -6.674 -10.161  14.515  0.00  0.00    +0.085 C 
BRANCH  17   6
ATOM      2  O   UNL     1     -10.832 -13.506  17.580  0.00  0.00    -0.268 OA
ATOM      6  N   UNL     1      -7.702 -10.144  15.554  0.00  0.00    -0.301 NA
ATOM      7  N   UNL     1      -9.645 -11.490  17.696  0.00  0.00    -0.312 N 
ATOM      9  C   UNL     1     -10.063  -9.517  16.117  0.00  0.00    +0.024 C 
ATOM     10  C   UNL     1      -8.328  -9.349  17.838  0.00  0.00    +0.050 C 
ATOM     11  C   UNL     1      -9.579  -8.670  17.288  0.00  0.00    +0.017 C 
ATOM     12  C   UNL     1      -8.964  -9.602  15.036  0.00  0.00    +0.089 C 
ATOM     13  C   UNL     1      -7.243  -9.404  16.738  0.00  0.00    +0.094 C 
ATOM     15  C   UNL     1     -10.481 -10.898  16.643  0.00  0.00    +0.130 C 
ATOM     19  C   UNL     1      -8.648 -10.746  18.337  0.00  0.00    +0.026 A 
ATOM     24  C   UNL     1      -7.972 -11.273  19.372  0.00  0.00    +0.022 A 
ATOM     25  C   UNL     1      -9.959 -12.804  18.091  0.00  0.00    +0.251 A 
ATOM     27  C   UNL     1      -8.242 -12.610  19.821  0.00  0.00    +0.007 A 
ATOM     28  C   UNL     1      -9.172 -13.361  19.226  0.00  0.00    +0.070 A 
ENDBRANCH  17   6
ENDBRANCH  18  17
ENDBRANCH  14  18
BRANCH  16  23
ATOM     23  C   UNL     1      -4.150 -11.063  17.805  0.00  0.00    +0.124 C 
BRANCH  23  29
ATOM      5  O   UNL     1      -3.348 -12.115  19.852  0.00  0.00    -0.251 OA
ATOM     29  C   UNL     1      -4.081 -12.118  18.874  0.00  0.00    +0.305 C 
BRANCH  29   3
ATOM      3  O   UNL     1      -4.972 -13.106  18.600  0.00  0.00    -0.481 OA
ATOM     34  H   UNL     1      -5.715 -12.784  18.045  0.00  0.00    +0.295 HD
ENDBRANCH  29   3
ENDBRANCH  23  29
ENDBRANCH  16  23
TORSDOF 7
ENDMDL
MODEL 2
REMARK VINA RESULT:      -6.7     24.217     28.272
REMARK  Name = 25312713
REMARK  7 active torsions:
REMARK  status: ('A' for Active; 'I' for Inactive)
REMARK    1  A    between atoms: O_3  and  C_29
REMARK    2  A    between atoms: N_6  and  C_17
REMARK    3  A    between atoms: C_14  and  C_18
REMARK    4  A    between atoms: C_16  and  C_23
REMARK    5  A    between atoms: C_17  and  C_18
REMARK    6  A    between atoms: C_23  and  C_29
REMARK    7  A    between atoms: C_26  and  C_30
REMARK                            x       y       z     vdW  Elec       q    Type
REMARK                         _______ _______ _______ _____ _____    ______ ____
ROOT
ATOM      4  O   UNL     1      10.580  11.428   5.888  0.00  0.00    -0.269 OA
ATOM      8  N   UNL     1      11.156   9.388   6.878  0.00  0.00    -0.297 N 
ATOM     14  C   UNL     1      11.031   6.906   6.918  0.00  0.00    +0.011 C 
ATOM     16  C   UNL     1      10.021   7.015   8.089  0.00  0.00    +0.006 C 
ATOM     20  C   UNL     1      11.943   8.147   6.895  0.00  0.00    +0.112 C 
ATOM     21  C   UNL     1       9.258   8.349   8.055  0.00  0.00    +0.023 C 
ATOM     22  C   UNL     1      10.217   9.534   7.988  0.00  0.00    +0.108 C 
ATOM     26  C   UNL     1      11.241  10.390   5.909  0.00  0.00    +0.253 C 
ENDROOT
BRANCH  26  30
ATOM      1  S   UNL     1      13.778  10.840   4.967  0.00  0.00    -0.092 S 
ATOM     30  C   UNL     1      12.194  10.208   4.810  0.00  0.00    +0.074 A 
ATOM     31  C   UNL     1      12.008   9.573   3.602  0.00  0.00    +0.021 A 
ATOM     32  C   UNL     1      13.182   9.605   2.794  0.00  0.00    +0.008 A 
ATOM     33  C   UNL     1      14.220  10.264   3.415  0.00  0.00    +0.046 A 
ENDBRANCH  26  30
BRANCH  14  18
ATOM     18  C   UNL     1      10.375   6.703   5.546  0.00  0.00    +0.020 C 
BRANCH  18  17
ATOM     17  C   UNL     1      10.540   5.267   5.059  0.00  0.00    +0.085 C 
BRANCH  17   6
ATOM      2  O   UNL     1      14.639   7.097   0.849  0.00  0.00    -0.268 OA
ATOM      6  N   UNL     1      10.899   5.249   3.643  0.00  0.00    -0.301 NA
ATOM      7  N   UNL     1      12.907   5.556   1.182  0.00  0.00    -0.312 N 
ATOM      9  C   UNL     1      10.443   6.229   1.381  0.00  0.00    +0.024 C 
ATOM     10  C   UNL     1      11.076   3.870   1.567  0.00  0.00    +0.050 C 
ATOM     11  C   UNL     1      10.173   4.841   0.813  0.00  0.00    +0.017 C 
ATOM     12  C   UNL     1      10.133   6.251   2.893  0.00  0.00    +0.089 C 
ATOM     13  C   UNL     1      10.730   3.904   3.073  0.00  0.00    +0.094 C 
ATOM     15  C   UNL     1      11.896   6.616   1.071  0.00  0.00    +0.130 C 
ATOM     19  C   UNL     1      12.538   4.216   1.350  0.00  0.00    +0.026 A 
ATOM     24  C   UNL     1      13.474   3.252   1.338  0.00  0.00    +0.022 A 
ATOM     25  C   UNL     1      14.251   5.940   1.015  0.00  0.00    +0.251 A 
ATOM     27  C   UNL     1      14.862   3.578   1.176  0.00  0.00    +0.007 A 
ATOM     28  C   UNL     1      15.259   4.844   1.031  0.00  0.00    +0.070 A 
ENDBRANCH  17   6
ENDBRANCH  18  17
ENDBRANCH  14  18
BRANCH  16  23
ATOM     23  C   UNL     1       9.048   5.839   8.154  0.00  0.00    +0.124 C 
BRANCH  23  29
ATOM      5  O   UNL     1       9.198   4.640  10.272  0.00  0.00    -0.251 OA
ATOM     29  C   UNL     1       9.527   4.774   9.103  0.00  0.00    +0.305 C 
BRANCH  29   3
ATOM      3  O   UNL     1      10.401   3.953   8.465  0.00  0.00    -0.481 OA
ATOM     34  H   UNL     1      10.319   3.024   8.769  0.00  0.00    +0.295 HD
ENDBRANCH  29   3
ENDBRANCH  23  29
ENDBRANCH  16  23
TORSDOF 7
ENDMDL
MODEL 3
REMARK VINA RESULT:      -6.7      2.775      7.668
REMARK  Name = 25312713
REMARK  7 active torsions:
REMARK  status: ('A' for Active; 'I' for Inactive)
REMARK    1  A    between atoms: O_3  and  C_29
REMARK    2  A    between atoms: N_6  and  C_17
REMARK    3  A    between atoms: C_14  and  C_18
REMARK    4  A    between atoms: C_16  and  C_23
REMARK    5  A    between atoms: C_17  and  C_18
REMARK    6  A    between atoms: C_23  and  C_29
REMARK    7  A    between atoms: C_26  and  C_30
REMARK                            x       y       z     vdW  Elec       q    Type
REMARK                         _______ _______ _______ _____ _____    ______ ____
ROOT
ATOM      4  O   UNL     1      -8.082 -11.496  18.846  0.00  0.00    -0.269 OA
ATOM      8  N   UNL     1      -6.455 -10.367  17.599  0.00  0.00    -0.297 N 
ATOM     14  C   UNL     1      -4.975 -10.244  15.606  0.00  0.00    +0.011 C 
ATOM     16  C   UNL     1      -3.784 -10.641  16.516  0.00  0.00    +0.006 C 
ATOM     20  C   UNL     1      -6.064  -9.548  16.443  0.00  0.00    +0.112 C 
ATOM     21  C   UNL     1      -4.249 -11.455  17.735  0.00  0.00    +0.023 C 
ATOM     22  C   UNL     1      -5.358 -10.730  18.493  0.00  0.00    +0.108 C 
ATOM     26  C   UNL     1      -7.751 -10.806  17.882  0.00  0.00    +0.253 C 
ENDROOT
BRANCH  26  30
ATOM      1  S   UNL     1      -9.700  -8.979  17.257  0.00  0.00    -0.092 S 
ATOM     30  C   UNL     1      -8.826 -10.422  16.962  0.00  0.00    +0.074 A 
ATOM     31  C   UNL     1      -9.270 -11.074  15.833  0.00  0.00    +0.021 A 
ATOM     32  C   UNL     1     -10.342 -10.380  15.201  0.00  0.00    +0.008 A 
ATOM     33  C   UNL     1     -10.677  -9.224  15.871  0.00  0.00    +0.046 A 
ENDBRANCH  26  30
BRANCH  14  18
ATOM     18  C   UNL     1      -5.575 -11.417  14.821  0.00  0.00    +0.020 C 
BRANCH  18  17
ATOM     17  C   UNL     1      -6.177 -10.949  13.499  0.00  0.00    +0.085 C 
BRANCH  17   6
ATOM      2  O   UNL     1      -5.324 -13.357   7.900  0.00  0.00    -0.268 OA
ATOM      6  N   UNL     1      -5.226 -11.150  12.408  0.00  0.00    -0.301 NA
ATOM      7  N   UNL     1      -4.401 -11.811   9.398  0.00  0.00    -0.312 N 
ATOM      9  C   UNL     1      -3.265 -12.483  11.593  0.00  0.00    +0.024 C 
ATOM     10  C   UNL     1      -3.445 -10.115  10.995  0.00  0.00    +0.050 C 
ATOM     11  C   UNL     1      -2.457 -11.207  11.392  0.00  0.00    +0.017 C 
ATOM     12  C   UNL     1      -4.323 -12.270  12.697  0.00  0.00    +0.089 C 
ATOM     13  C   UNL     1      -4.479  -9.916  12.126  0.00  0.00    +0.094 C 
ATOM     15  C   UNL     1      -3.888 -12.891  10.251  0.00  0.00    +0.130 C 
ATOM     19  C   UNL     1      -4.143 -10.467   9.694  0.00  0.00    +0.026 A 
ATOM     24  C   UNL     1      -4.527  -9.502   8.842  0.00  0.00    +0.022 A 
ATOM     25  C   UNL     1      -5.078 -12.195   8.225  0.00  0.00    +0.251 A 
ATOM     27  C   UNL     1      -5.225  -9.827   7.630  0.00  0.00    +0.007 A 
ATOM     28  C   UNL     1      -5.508 -11.094   7.318  0.00  0.00    +0.070 A 
ENDBRANCH  17   6
ENDBRANCH  18  17
ENDBRANCH  14  18
BRANCH  16  23
ATOM     23  C   UNL     1      -2.675 -11.379  15.767  0.00  0.00    +0.124 C 
BRANCH  23  29
ATOM      5  O   UNL     1      -1.501  -9.811  14.316  0.00  0.00    -0.251 OA
ATOM     29  C   UNL     1      -1.567 -10.448  15.356  0.00  0.00    +0.305 C 
BRANCH  29   3
ATOM      3  O   UNL     1      -0.621 -10.406  16.330  0.00  0.00    -0.481 OA
ATOM     34  H   UNL     1      -1.013 -10.241  17.214  0.00  0.00    +0.295 HD
ENDBRANCH  29   3
ENDBRANCH  23  29
ENDBRANCH  16  23
TORSDOF 7
ENDMDL
MODEL 4
REMARK VINA RESULT:      -6.7      1.876      3.251
REMARK  Name = 25312713
REMARK  7 active torsions:
REMARK  status: ('A' for Active; 'I' for Inactive)
REMARK    1  A    between atoms: O_3  and  C_29
REMARK    2  A    between atoms: N_6  and  C_17
REMARK    3  A    between atoms: C_14  and  C_18
REMARK    4  A    between atoms: C_16  and  C_23
REMARK    5  A    between atoms: C_17  and  C_18
REMARK    6  A    between atoms: C_23  and  C_29
REMARK    7  A    between atoms: C_26  and  C_30
REMARK                            x       y       z     vdW  Elec       q    Type
REMARK                         _______ _______ _______ _____ _____    ______ ____
ROOT
ATOM      4  O   UNL     1      -1.563  -9.956  12.355  0.00  0.00    -0.269 OA
ATOM      8  N   UNL     1      -2.858 -11.296  13.770  0.00  0.00    -0.297 N 
ATOM     14  C   UNL     1      -4.732 -11.532  15.386  0.00  0.00    +0.011 C 
ATOM     16  C   UNL     1      -3.686 -11.601  16.528  0.00  0.00    +0.006 C 
ATOM     20  C   UNL     1      -4.102 -12.019  14.068  0.00  0.00    +0.112 C 
ATOM     21  C   UNL     1      -2.386 -10.871  16.151  0.00  0.00    +0.023 C 
ATOM     22  C   UNL     1      -1.840 -11.369  14.816  0.00  0.00    +0.108 C 
ATOM     26  C   UNL     1      -2.600 -10.568  12.606  0.00  0.00    +0.253 C 
ENDROOT
BRANCH  26  30
ATOM      1  S   UNL     1      -3.761 -11.791  10.441  0.00  0.00    -0.092 S 
ATOM     30  C   UNL     1      -3.646 -10.517  11.579  0.00  0.00    +0.074 A 
ATOM     31  C   UNL     1      -4.607  -9.551  11.373  0.00  0.00    +0.021 A 
ATOM     32  C   UNL     1      -5.448  -9.861  10.266  0.00  0.00    +0.008 A 
ATOM     33  C   UNL     1      -5.100 -11.052   9.668  0.00  0.00    +0.046 A 
ENDBRANCH  26  30
BRANCH  14  18
ATOM     18  C   UNL     1      -5.355 -10.143  15.196  0.00  0.00    +0.020 C 
BRANCH  18  17
ATOM     17  C   UNL     1      -6.611 -10.211  14.332  0.00  0.00    +0.085 C 
BRANCH  17   6
ATOM      2  O   UNL     1     -10.788  -5.897  15.679  0.00  0.00    -0.268 OA
ATOM      6  N   UNL     1      -7.793  -9.888  15.129  0.00  0.00    -0.301 NA
ATOM      7  N   UNL     1     -10.406  -8.202  15.842  0.00  0.00    -0.312 N 
ATOM      9  C   UNL     1      -8.645  -9.231  17.393  0.00  0.00    +0.024 C 
ATOM     10  C   UNL     1     -10.007 -10.685  15.968  0.00  0.00    +0.050 C 
ATOM     11  C   UNL     1      -9.581 -10.434  17.411  0.00  0.00    +0.017 C 
ATOM     12  C   UNL     1      -7.420  -9.527  16.501  0.00  0.00    +0.089 C 
ATOM     13  C   UNL     1      -8.761 -10.994  15.106  0.00  0.00    +0.094 C 
ATOM     15  C   UNL     1      -9.432  -7.999  16.923  0.00  0.00    +0.130 C 
ATOM     19  C   UNL     1     -10.753  -9.487  15.410  0.00  0.00    +0.026 A 
ATOM     24  C   UNL     1     -11.726  -9.652  14.498  0.00  0.00    +0.022 A 
ATOM     25  C   UNL     1     -11.037  -7.052  15.332  0.00  0.00    +0.251 A 
ATOM     27  C   UNL     1     -12.407  -8.520  13.936  0.00  0.00    +0.007 A 
ATOM     28  C   UNL     1     -12.093  -7.276  14.306  0.00  0.00    +0.070 A 
ENDBRANCH  17   6
ENDBRANCH  18  17
ENDBRANCH  14  18
BRANCH  16  23
ATOM     23  C   UNL     1      -4.222 -11.091  17.865  0.00  0.00    +0.124 C 
BRANCH  23  29
ATOM      5  O   UNL     1      -3.361 -12.168  19.876  0.00  0.00    -0.251 OA
ATOM     29  C   UNL     1      -4.140 -12.145  18.935  0.00  0.00    +0.305 C 
BRANCH  29   3
ATOM      3  O   UNL     1      -5.080 -13.100  18.708  0.00  0.00    -0.481 OA
ATOM     34  H   UNL     1      -5.899 -12.722  18.322  0.00  0.00    +0.295 HD
ENDBRANCH  29   3
ENDBRANCH  23  29
ENDBRANCH  16  23
TORSDOF 7
ENDMDL
MODEL 5
REMARK VINA RESULT:      -6.7      2.232      7.314
REMARK  Name = 25312713
REMARK  7 active torsions:
REMARK  status: ('A' for Active; 'I' for Inactive)
REMARK    1  A    between atoms: O_3  and  C_29
REMARK    2  A    between atoms: N_6  and  C_17
REMARK    3  A    between atoms: C_14  and  C_18
REMARK    4  A    between atoms: C_16  and  C_23
REMARK    5  A    between atoms: C_17  and  C_18
REMARK    6  A    between atoms: C_23  and  C_29
REMARK    7  A    between atoms: C_26  and  C_30
REMARK                            x       y       z     vdW  Elec       q    Type
REMARK                         _______ _______ _______ _____ _____    ______ ____
ROOT
ATOM      4  O   UNL     1     -11.081 -11.383  17.864  0.00  0.00    -0.269 OA
ATOM      8  N   UNL     1      -8.906 -10.849  18.540  0.00  0.00    -0.297 N 
ATOM     14  C   UNL     1      -6.478 -10.678  18.036  0.00  0.00    +0.011 C 
ATOM     16  C   UNL     1      -6.255 -11.970  18.864  0.00  0.00    +0.006 C 
ATOM     20  C   UNL     1      -7.743  -9.951  18.529  0.00  0.00    +0.112 C 
ATOM     21  C   UNL     1      -7.514 -12.853  18.885  0.00  0.00    +0.023 C 
ATOM     22  C   UNL     1      -8.737 -12.062  19.339  0.00  0.00    +0.108 C 
ATOM     26  C   UNL     1     -10.107 -10.631  17.862  0.00  0.00    +0.253 C 
ENDROOT
BRANCH  26  30
ATOM      1  S   UNL     1      -9.868  -9.446  15.398  0.00  0.00    -0.092 S 
ATOM     30  C   UNL     1     -10.239  -9.404  17.070  0.00  0.00    +0.074 A 
ATOM     31  C   UNL     1     -10.638  -8.151  17.479  0.00  0.00    +0.021 A 
ATOM     32  C   UNL     1     -10.638  -7.213  16.407  0.00  0.00    +0.008 A 
ATOM     33  C   UNL     1     -10.241  -7.784  15.219  0.00  0.00    +0.046 A 
ENDBRANCH  26  30
BRANCH  14  18
ATOM     18  C   UNL     1      -6.557 -10.915  16.522  0.00  0.00    +0.020 C 
BRANCH  18  17
ATOM     17  C   UNL     1      -5.631  -9.968  15.764  0.00  0.00    +0.085 C 
BRANCH  17   6
ATOM      2  O   UNL     1      -4.509  -8.708   9.845  0.00  0.00    -0.268 OA
ATOM      6  N   UNL     1      -5.291 -10.529  14.458  0.00  0.00    -0.301 NA
ATOM      7  N   UNL     1      -4.217 -10.382  11.457  0.00  0.00    -0.312 N 
ATOM      9  C   UNL     1      -6.152 -11.742  12.440  0.00  0.00    +0.024 C 
ATOM     10  C   UNL     1      -3.864 -12.155  13.209  0.00  0.00    +0.050 C 
ATOM     11  C   UNL     1      -5.099 -12.829  12.620  0.00  0.00    +0.017 C 
ATOM     12  C   UNL     1      -6.478 -11.090  13.801  0.00  0.00    +0.089 C 
ATOM     13  C   UNL     1      -4.219 -11.528  14.576  0.00  0.00    +0.094 C 
ATOM     15  C   UNL     1      -5.644 -10.727  11.406  0.00  0.00    +0.130 C 
ATOM     19  C   UNL     1      -3.325 -11.098  12.263  0.00  0.00    +0.026 A 
ATOM     24  C   UNL     1      -2.008 -10.836  12.210  0.00  0.00    +0.022 A 
ATOM     25  C   UNL     1      -3.780  -9.364  10.589  0.00  0.00    +0.251 A 
ATOM     27  C   UNL     1      -1.498  -9.808  11.348  0.00  0.00    +0.007 A 
ATOM     28  C   UNL     1      -2.316  -9.088  10.576  0.00  0.00    +0.070 A 
ENDBRANCH  17   6
ENDBRANCH  18  17
ENDBRANCH  14  18
BRANCH  16  23
ATOM     23  C   UNL     1      -5.040 -12.775  18.405  0.00  0.00    +0.124 C 
BRANCH  23  29
ATOM      5  O   UNL     1      -3.335 -12.245  20.066  0.00  0.00    -0.251 OA
ATOM     29  C   UNL     1      -3.756 -12.184  18.920  0.00  0.00    +0.305 C 
BRANCH  29   3
ATOM      3  O   UNL     1      -3.105 -11.553  17.908  0.00  0.00    -0.481 OA
ATOM     34  H   UNL     1      -3.178 -10.577  17.980  0.00  0.00    +0.295 HD
ENDBRANCH  29   3
ENDBRANCH  23  29
ENDBRANCH  16  23
TORSDOF 7
ENDMDL
MODEL 6
REMARK VINA RESULT:      -6.4      2.757      7.284
REMARK  Name = 25312713
REMARK  7 active torsions:
REMARK  status: ('A' for Active; 'I' for Inactive)
REMARK    1  A    between atoms: O_3  and  C_29
REMARK    2  A    between atoms: N_6  and  C_17
REMARK    3  A    between atoms: C_14  and  C_18
REMARK    4  A    between atoms: C_16  and  C_23
REMARK    5  A    between atoms: C_17  and  C_18
REMARK    6  A    between atoms: C_23  and  C_29
REMARK    7  A    between atoms: C_26  and  C_30
REMARK                            x       y       z     vdW  Elec       q    Type
REMARK                         _______ _______ _______ _____ _____    ______ ____
ROOT
ATOM      4  O   UNL     1      -8.775 -11.302  18.897  0.00  0.00    -0.269 OA
ATOM      8  N   UNL     1      -7.066 -10.178  17.762  0.00  0.00    -0.297 N 
ATOM     14  C   UNL     1      -5.583  -9.960  15.780  0.00  0.00    +0.011 C 
ATOM     16  C   UNL     1      -4.426 -10.545  16.630  0.00  0.00    +0.006 C 
ATOM     20  C   UNL     1      -6.612  -9.273  16.697  0.00  0.00    +0.112 C 
ATOM     21  C   UNL     1      -4.953 -11.445  17.760  0.00  0.00    +0.023 C 
ATOM     22  C   UNL     1      -5.999 -10.721  18.602  0.00  0.00    +0.108 C 
ATOM     26  C   UNL     1      -8.392 -10.541  18.010  0.00  0.00    +0.253 C 
ENDROOT
BRANCH  26  30
ATOM      1  S   UNL     1     -10.121  -8.460  17.551  0.00  0.00    -0.092 S 
ATOM     30  C   UNL     1      -9.434  -9.976  17.147  0.00  0.00    +0.074 A 
ATOM     31  C   UNL     1      -9.979 -10.500  15.996  0.00  0.00    +0.021 A 
ATOM     32  C   UNL     1     -10.975  -9.647  15.438  0.00  0.00    +0.008 A 
ATOM     33  C   UNL     1     -11.152  -8.502  16.183  0.00  0.00    +0.046 A 
ENDBRANCH  26  30
BRANCH  14  18
ATOM     18  C   UNL     1      -6.276 -10.990  14.879  0.00  0.00    +0.020 C 
BRANCH  18  17
ATOM     17  C   UNL     1      -6.357 -10.501  13.437  0.00  0.00    +0.085 C 
BRANCH  17   6
ATOM      2  O   UNL     1      -0.793 -13.116  13.714  0.00  0.00    -0.268 OA
ATOM      6  N   UNL     1      -5.229 -11.013  12.662  0.00  0.00    -0.301 NA
ATOM      7  N   UNL     1      -2.575 -12.733  12.243  0.00  0.00    -0.312 N 
ATOM      9  C   UNL     1      -3.183 -10.414  11.343  0.00  0.00    +0.024 C 
ATOM     10  C   UNL     1      -4.515 -12.360  10.683  0.00  0.00    +0.050 C 
ATOM     11  C   UNL     1      -3.711 -11.184  10.138  0.00  0.00    +0.017 C 
ATOM     12  C   UNL     1      -4.360  -9.920  12.212  0.00  0.00    +0.089 C 
ATOM     13  C   UNL     1      -5.693 -11.832  11.533  0.00  0.00    +0.094 C 
ATOM     15  C   UNL     1      -2.213 -11.314  12.121  0.00  0.00    +0.130 C 
ATOM     19  C   UNL     1      -3.634 -13.279  11.509  0.00  0.00    +0.026 A 
ATOM     24  C   UNL     1      -3.876 -14.600  11.553  0.00  0.00    +0.022 A 
ATOM     25  C   UNL     1      -1.748 -13.531  13.056  0.00  0.00    +0.251 A 
ATOM     27  C   UNL     1      -3.071 -15.467  12.366  0.00  0.00    +0.007 A 
ATOM     28  C   UNL     1      -2.063 -14.986  13.096  0.00  0.00    +0.070 A 
ENDBRANCH  17   6
ENDBRANCH  18  17
ENDBRANCH  14  18
BRANCH  16  23
ATOM     23  C   UNL     1      -3.381 -11.284  15.795  0.00  0.00    +0.124 C 
BRANCH  23  29
ATOM      5  O   UNL     1      -1.472  -9.920  15.133  0.00  0.00    -0.251 OA
ATOM     29  C   UNL     1      -2.018 -10.662  15.935  0.00  0.00    +0.305 C 
BRANCH  29   3
ATOM      3  O   UNL     1      -1.458 -11.048  17.111  0.00  0.00    -0.481 OA
ATOM     34  H   UNL     1      -0.817 -11.780  16.987  0.00  0.00    +0.295 HD
ENDBRANCH  29   3
ENDBRANCH  23  29
ENDBRANCH  16  23
TORSDOF 7
ENDMDL
MODEL 7
REMARK VINA RESULT:      -6.4      2.818      7.245
REMARK  Name = 25312713
REMARK  7 active torsions:
REMARK  status: ('A' for Active; 'I' for Inactive)
REMARK    1  A    between atoms: O_3  and  C_29
REMARK    2  A    between atoms: N_6  and  C_17
REMARK    3  A    between atoms: C_14  and  C_18
REMARK    4  A    between atoms: C_16  and  C_23
REMARK    5  A    between atoms: C_17  and  C_18
REMARK    6  A    between atoms: C_23  and  C_29
REMARK    7  A    between atoms: C_26  and  C_30
REMARK                            x       y       z     vdW  Elec       q    Type
REMARK                         _______ _______ _______ _____ _____    ______ ____
ROOT
ATOM      4  O   UNL     1      -8.380 -11.040  19.591  0.00  0.00    -0.269 OA
ATOM      8  N   UNL     1      -6.859 -10.198  18.025  0.00  0.00    -0.297 N 
ATOM     14  C   UNL     1      -5.565 -10.475  15.921  0.00  0.00    +0.011 C 
ATOM     16  C   UNL     1      -4.302 -10.738  16.780  0.00  0.00    +0.006 C 
ATOM     20  C   UNL     1      -6.564  -9.609  16.711  0.00  0.00    +0.112 C 
ATOM     21  C   UNL     1      -4.664 -11.309  18.161  0.00  0.00    +0.023 C 
ATOM     22  C   UNL     1      -5.690 -10.429  18.871  0.00  0.00    +0.108 C 
ATOM     26  C   UNL     1      -8.129 -10.542  18.495  0.00  0.00    +0.253 C 
ENDROOT
BRANCH  26  30
ATOM      1  S   UNL     1      -9.883  -8.701  17.463  0.00  0.00    -0.092 S 
ATOM     30  C   UNL     1      -9.279 -10.296  17.618  0.00  0.00    +0.074 A 
ATOM     31  C   UNL     1      -9.990 -11.194  16.854  0.00  0.00    +0.021 A 
ATOM     32  C   UNL     1     -11.046 -10.566  16.133  0.00  0.00    +0.008 A 
ATOM     33  C   UNL     1     -11.101  -9.210  16.371  0.00  0.00    +0.046 A 
ENDBRANCH  26  30
BRANCH  14  18
ATOM     18  C   UNL     1      -6.250 -11.750  15.414  0.00  0.00    +0.020 C 
BRANCH  18  17
ATOM     17  C   UNL     1      -7.342 -11.427  14.398  0.00  0.00    +0.085 C 
BRANCH  17   6
ATOM      2  O   UNL     1      -5.603  -8.413   9.322  0.00  0.00    -0.268 OA
ATOM      6  N   UNL     1      -6.825 -11.560  13.038  0.00  0.00    -0.301 NA
ATOM      7  N   UNL     1      -5.418 -10.494  10.380  0.00  0.00    -0.312 N 
ATOM      9  C   UNL     1      -7.384 -12.112  10.657  0.00  0.00    +0.024 C 
ATOM     10  C   UNL     1      -5.183 -12.712  11.548  0.00  0.00    +0.050 C 
ATOM     11  C   UNL     1      -6.307 -13.190  10.634  0.00  0.00    +0.017 C 
ATOM     12  C   UNL     1      -7.897 -11.909  12.099  0.00  0.00    +0.089 C 
ATOM     13  C   UNL     1      -5.725 -12.534  12.985  0.00  0.00    +0.094 C 
ATOM     15  C   UNL     1      -6.811 -10.825  10.048  0.00  0.00    +0.130 C 
ATOM     19  C   UNL     1      -4.591 -11.410  11.039  0.00  0.00    +0.026 A 
ATOM     24  C   UNL     1      -3.292 -11.129  11.233  0.00  0.00    +0.022 A 
ATOM     25  C   UNL     1      -4.933  -9.255   9.920  0.00  0.00    +0.251 A 
ATOM     27  C   UNL     1      -2.736  -9.881  10.791  0.00  0.00    +0.007 A 
ATOM     28  C   UNL     1      -3.494  -8.971  10.175  0.00  0.00    +0.070 A 
ENDBRANCH  17   6
ENDBRANCH  18  17
ENDBRANCH  14  18
BRANCH  16  23
ATOM     23  C   UNL     1      -3.276 -11.630  16.081  0.00  0.00    +0.124 C 
BRANCH  23  29
ATOM      5  O   UNL     1      -1.952 -10.226  14.590  0.00  0.00    -0.251 OA
ATOM     29  C   UNL     1      -2.071 -10.847  15.636  0.00  0.00    +0.305 C 
BRANCH  29   3
ATOM      3  O   UNL     1      -1.101 -10.922  16.584  0.00  0.00    -0.481 OA
ATOM     34  H   UNL     1      -1.158 -11.756  17.099  0.00  0.00    +0.295 HD
ENDBRANCH  29   3
ENDBRANCH  23  29
ENDBRANCH  16  23
TORSDOF 7
ENDMDL
MODEL 8
REMARK VINA RESULT:      -6.2      2.678      7.216
REMARK  Name = 25312713
REMARK  7 active torsions:
REMARK  status: ('A' for Active; 'I' for Inactive)
REMARK    1  A    between atoms: O_3  and  C_29
REMARK    2  A    between atoms: N_6  and  C_17
REMARK    3  A    between atoms: C_14  and  C_18
REMARK    4  A    between atoms: C_16  and  C_23
REMARK    5  A    between atoms: C_17  and  C_18
REMARK    6  A    between atoms: C_23  and  C_29
REMARK    7  A    between atoms: C_26  and  C_30
REMARK                            x       y       z     vdW  Elec       q    Type
REMARK                         _______ _______ _______ _____ _____    ______ ____
ROOT
ATOM      4  O   UNL     1      -7.464 -12.445  20.125  0.00  0.00    -0.269 OA
ATOM      8  N   UNL     1      -6.644 -10.794  18.684  0.00  0.00    -0.297 N 
ATOM     14  C   UNL     1      -6.161 -10.000  16.379  0.00  0.00    +0.011 C 
ATOM     16  C   UNL     1      -4.663 -10.311  16.628  0.00  0.00    +0.006 C 
ATOM     20  C   UNL     1      -6.866  -9.710  17.717  0.00  0.00    +0.112 C 
ATOM     21  C   UNL     1      -4.482 -11.417  17.680  0.00  0.00    +0.023 C 
ATOM     22  C   UNL     1      -5.240 -11.090  18.963  0.00  0.00    +0.108 C 
ATOM     26  C   UNL     1      -7.645 -11.533  19.320  0.00  0.00    +0.253 C 
ENDROOT
BRANCH  26  30
ATOM      1  S   UNL     1      -9.827 -12.031  17.733  0.00  0.00    -0.092 S 
ATOM     30  C   UNL     1      -9.042 -11.208  19.013  0.00  0.00    +0.074 A 
ATOM     31  C   UNL     1      -9.871 -10.295  19.627  0.00  0.00    +0.021 A 
ATOM     32  C   UNL     1     -11.168 -10.270  19.038  0.00  0.00    +0.008 A 
ATOM     33  C   UNL     1     -11.282 -11.165  17.997  0.00  0.00    +0.046 A 
ENDBRANCH  26  30
BRANCH  14  18
ATOM     18  C   UNL     1      -6.906 -11.100  15.612  0.00  0.00    +0.020 C 
BRANCH  18  17
ATOM     17  C   UNL     1      -7.663 -10.528  14.417  0.00  0.00    +0.085 C 
BRANCH  17   6
ATOM      2  O   UNL     1      -1.984 -11.429  12.222  0.00  0.00    -0.268 OA
ATOM      6  N   UNL     1      -6.832 -10.584  13.216  0.00  0.00    -0.301 NA
ATOM      7  N   UNL     1      -4.229 -11.389  11.556  0.00  0.00    -0.312 N 
ATOM      9  C   UNL     1      -5.632  -9.248  11.467  0.00  0.00    +0.024 C 
ATOM     10  C   UNL     1      -6.649 -11.392  10.859  0.00  0.00    +0.050 C 
ATOM     11  C   UNL     1      -6.395  -9.971  10.364  0.00  0.00    +0.017 C 
ATOM     12  C   UNL     1      -6.467  -9.236  12.766  0.00  0.00    +0.089 C 
ATOM     13  C   UNL     1      -7.498 -11.346  12.150  0.00  0.00    +0.094 C 
ATOM     15  C   UNL     1      -4.266  -9.923  11.650  0.00  0.00    +0.130 C 
ATOM     19  C   UNL     1      -5.339 -12.116  11.111  0.00  0.00    +0.026 A 
ATOM     24  C   UNL     1      -5.247 -13.444  10.928  0.00  0.00    +0.022 A 
ATOM     25  C   UNL     1      -3.000 -12.012  11.842  0.00  0.00    +0.251 A 
ATOM     27  C   UNL     1      -4.022 -14.140  11.206  0.00  0.00    +0.007 A 
ATOM     28  C   UNL     1      -2.945 -13.488  11.649  0.00  0.00    +0.070 A 
ENDBRANCH  17   6
ENDBRANCH  18  17
ENDBRANCH  14  18
BRANCH  16  23
ATOM     23  C   UNL     1      -3.899 -10.653  15.349  0.00  0.00    +0.124 C 
BRANCH  23  29
ATOM      5  O   UNL     1      -1.633 -10.276  16.165  0.00  0.00    -0.251 OA
ATOM     29  C   UNL     1      -2.464 -10.999  15.635  0.00  0.00    +0.305 C 
BRANCH  29   3
ATOM      3  O   UNL     1      -2.206 -12.264  15.214  0.00  0.00    -0.481 OA
ATOM     34  H   UNL     1      -1.917 -12.843  15.952  0.00  0.00    +0.295 HD
ENDBRANCH  29   3
ENDBRANCH  23  29
ENDBRANCH  16  23
TORSDOF 7
ENDMDL
MODEL 9
REMARK VINA RESULT:      -6.1     24.603     28.295
REMARK  Name = 25312713
REMARK  7 active torsions:
REMARK  status: ('A' for Active; 'I' for Inactive)
REMARK    1  A    between atoms: O_3  and  C_29
REMARK    2  A    between atoms: N_6  and  C_17
REMARK    3  A    between atoms: C_14  and  C_18
REMARK    4  A    between atoms: C_16  and  C_23
REMARK    5  A    between atoms: C_17  and  C_18
REMARK    6  A    between atoms: C_23  and  C_29
REMARK    7  A    between atoms: C_26  and  C_30
REMARK                            x       y       z     vdW  Elec       q    Type
REMARK                         _______ _______ _______ _____ _____    ______ ____
ROOT
ATOM      4  O   UNL     1       7.204   9.151   2.549  0.00  0.00    -0.269 OA
ATOM      8  N   UNL     1       8.957   8.294   3.842  0.00  0.00    -0.297 N 
ATOM     14  C   UNL     1      10.522   6.441   4.384  0.00  0.00    +0.011 C 
ATOM     16  C   UNL     1       9.652   6.124   5.628  0.00  0.00    +0.006 C 
ATOM     20  C   UNL     1      10.370   7.926   4.004  0.00  0.00    +0.112 C 
ATOM     21  C   UNL     1       8.194   6.570   5.428  0.00  0.00    +0.023 C 
ATOM     22  C   UNL     1       8.117   8.036   5.010  0.00  0.00    +0.108 C 
ATOM     26  C   UNL     1       8.388   8.846   2.691  0.00  0.00    +0.253 C 
ENDROOT
BRANCH  26  30
ATOM      1  S   UNL     1      10.191  10.528   1.487  0.00  0.00    -0.092 S 
ATOM     30  C   UNL     1       9.261   9.090   1.539  0.00  0.00    +0.074 A 
ATOM     31  C   UNL     1       9.466   8.302   0.428  0.00  0.00    +0.021 A 
ATOM     32  C   UNL     1      10.397   8.886  -0.478  0.00  0.00    +0.008 A 
ATOM     33  C   UNL     1      10.871  10.098  -0.025  0.00  0.00    +0.046 A 
ENDBRANCH  26  30
BRANCH  14  18
ATOM     18  C   UNL     1      10.225   5.549   3.173  0.00  0.00    +0.020 C 
BRANCH  18  17
ATOM     17  C   UNL     1      11.247   4.423   3.048  0.00  0.00    +0.085 C 
BRANCH  17   6
ATOM      2  O   UNL     1      11.078   1.787  -2.511  0.00  0.00    -0.268 OA
ATOM      6  N   UNL     1      11.825   4.408   1.706  0.00  0.00    -0.301 NA
ATOM      7  N   UNL     1      11.849   3.703  -1.405  0.00  0.00    -0.312 N 
ATOM      9  C   UNL     1      13.763   3.671   0.297  0.00  0.00    +0.024 C 
ATOM     10  C   UNL     1      12.631   5.782  -0.219  0.00  0.00    +0.050 C 
ATOM     11  C   UNL     1      13.998   5.105  -0.164  0.00  0.00    +0.017 C 
ATOM     12  C   UNL     1      13.091   3.666   1.687  0.00  0.00    +0.089 C 
ATOM     13  C   UNL     1      11.994   5.774   1.189  0.00  0.00    +0.094 C 
ATOM     15  C   UNL     1      12.929   2.940  -0.764  0.00  0.00    +0.130 C 
ATOM     19  C   UNL     1      11.725   5.084  -1.216  0.00  0.00    +0.026 A 
ATOM     24  C   UNL     1      10.798   5.778  -1.899  0.00  0.00    +0.022 A 
ATOM     25  C   UNL     1      11.011   2.997  -2.288  0.00  0.00    +0.251 A 
ATOM     27  C   UNL     1       9.910   5.117  -2.812  0.00  0.00    +0.007 A 
ATOM     28  C   UNL     1       9.982   3.798  -3.008  0.00  0.00    +0.070 A 
ENDBRANCH  17   6
ENDBRANCH  18  17
ENDBRANCH  14  18
BRANCH  16  23
ATOM     23  C   UNL     1       9.713   4.655   6.045  0.00  0.00    +0.124 C 
BRANCH  23  29
ATOM      5  O   UNL     1       9.503   3.806   8.320  0.00  0.00    -0.251 OA
ATOM     29  C   UNL     1      10.075   4.504   7.497  0.00  0.00    +0.305 C 
BRANCH  29   3
ATOM      3  O   UNL     1      11.159   5.273   7.780  0.00  0.00    -0.481 OA
ATOM     34  H   UNL     1      11.986   4.744   7.801  0.00  0.00    +0.295 HD
ENDBRANCH  29   3
ENDBRANCH  23  29
ENDBRANCH  16  23
TORSDOF 7
ENDMDL
MODEL 10
REMARK VINA RESULT:      -6.0     24.391     28.429
REMARK  Name = 25312713
REMARK  7 active torsions:
REMARK  status: ('A' for Active; 'I' for Inactive)
REMARK    1  A    between atoms: O_3  and  C_29
REMARK    2  A    between atoms: N_6  and  C_17
REMARK    3  A    between atoms: C_14  and  C_18
REMARK    4  A    between atoms: C_16  and  C_23
REMARK    5  A    between atoms: C_17  and  C_18
REMARK    6  A    between atoms: C_23  and  C_29
REMARK    7  A    between atoms: C_26  and  C_30
REMARK                            x       y       z     vdW  Elec       q    Type
REMARK                         _______ _______ _______ _____ _____    ______ ____
ROOT
ATOM      4  O   UNL     1      11.404  11.261   5.757  0.00  0.00    -0.269 OA
ATOM      8  N   UNL     1      11.789   9.095   6.553  0.00  0.00    -0.297 N 
ATOM     14  C   UNL     1      11.411   6.644   6.387  0.00  0.00    +0.011 C 
ATOM     16  C   UNL     1      10.443   6.751   7.593  0.00  0.00    +0.006 C 
ATOM     20  C   UNL     1      12.445   7.785   6.441  0.00  0.00    +0.112 C 
ATOM     21  C   UNL     1       9.819   8.153   7.695  0.00  0.00    +0.023 C 
ATOM     22  C   UNL     1      10.893   9.237   7.699  0.00  0.00    +0.108 C 
ATOM     26  C   UNL     1      11.955  10.164   5.670  0.00  0.00    +0.253 C 
ENDROOT
BRANCH  26  30
ATOM      1  S   UNL     1      14.548  10.163   4.771  0.00  0.00    -0.092 S 
ATOM     30  C   UNL     1      12.861   9.984   4.531  0.00  0.00    +0.074 A 
ATOM     31  C   UNL     1      12.555   9.675   3.224  0.00  0.00    +0.021 A 
ATOM     32  C   UNL     1      13.720   9.584   2.409  0.00  0.00    +0.008 A 
ATOM     33  C   UNL     1      14.873   9.827   3.123  0.00  0.00    +0.046 A 
ENDBRANCH  26  30
BRANCH  14  18
ATOM     18  C   UNL     1      10.709   6.628   5.023  0.00  0.00    +0.020 C 
BRANCH  18  17
ATOM     17  C   UNL     1      10.605   5.210   4.469  0.00  0.00    +0.085 C 
BRANCH  17   6
ATOM      2  O   UNL     1       9.068   5.027  -1.487  0.00  0.00    -0.268 OA
ATOM      6  N   UNL     1      11.108   5.163   3.098  0.00  0.00    -0.301 NA
ATOM      7  N   UNL     1      10.868   5.501  -0.065  0.00  0.00    -0.312 N 
ATOM      9  C   UNL     1      12.088   3.713   1.303  0.00  0.00    +0.024 C 
ATOM     10  C   UNL     1      12.782   6.056   1.473  0.00  0.00    +0.050 C 
ATOM     11  C   UNL     1      13.286   4.646   1.177  0.00  0.00    +0.017 C 
ATOM     12  C   UNL     1      11.500   3.798   2.728  0.00  0.00    +0.089 C 
ATOM     13  C   UNL     1      12.215   6.111   2.910  0.00  0.00    +0.094 C 
ATOM     15  C   UNL     1      11.063   4.073   0.219  0.00  0.00    +0.130 C 
ATOM     19  C   UNL     1      11.723   6.471   0.468  0.00  0.00    +0.026 A 
ATOM     24  C   UNL     1      11.593   7.759   0.106  0.00  0.00    +0.022 A 
ATOM     25  C   UNL     1       9.843   5.833  -0.972  0.00  0.00    +0.251 A 
ATOM     27  C   UNL     1      10.566   8.163  -0.812  0.00  0.00    +0.007 A 
ATOM     28  C   UNL     1       9.717   7.273  -1.330  0.00  0.00    +0.070 A 
ENDBRANCH  17   6
ENDBRANCH  18  17
ENDBRANCH  14  18
BRANCH  16  23
ATOM     23  C   UNL     1       9.356   5.677   7.587  0.00  0.00    +0.124 C 
BRANCH  23  29
ATOM      5  O   UNL     1       9.002   4.591   9.741  0.00  0.00    -0.251 OA
ATOM     29  C   UNL     1       9.581   4.655   8.667  0.00  0.00    +0.305 C 
BRANCH  29   3
ATOM      3  O   UNL     1      10.544   3.780   8.275  0.00  0.00    -0.481 OA
ATOM     34  H   UNL     1      10.213   2.857   8.257  0.00  0.00    +0.295 HD
ENDBRANCH  29   3
ENDBRANCH  23  29
ENDBRANCH  16  23
TORSDOF 7
ENDMDL
