MODEL 1
REMARK VINA RESULT:      -6.9      0.000      0.000
REMARK  Name = 11867054
REMARK  13 active torsions:
REMARK  status: ('A' for Active; 'I' for Inactive)
REMARK    1  A    between atoms: O_2  and  C_14
REMARK    2  A    between atoms: O_3  and  C_19
REMARK    3  A    between atoms: N_7  and  C_25
REMARK    4  A    between atoms: C_9  and  C_17
REMARK    5  A    between atoms: C_11  and  C_19
REMARK    6  A    between atoms: C_11  and  C_20
REMARK    7  A    between atoms: C_12  and  C_22
REMARK    8  A    between atoms: C_22  and  C_23
REMARK    9  A    between atoms: C_26  and  C_27
REMARK   10  A    between atoms: C_27  and  C_28
REMARK   11  A    between atoms: C_28  and  C_31
REMARK   12  A    between atoms: C_28  and  C_32
REMARK   13  A    between atoms: C_28  and  C_33
REMARK                            x       y       z     vdW  Elec       q    Type
REMARK                         _______ _______ _______ _____ _____    ______ ____
ROOT
ATOM      1  S   UNL     1      -5.627 -10.011  10.173  0.00  0.00    -0.057 S 
ATOM      5  O   UNL     1     -10.081  -8.697  10.563  0.00  0.00    -0.275 OA
ATOM      6  N   UNL     1      -7.563  -9.600  11.840  0.00  0.00    -0.229 NA
ATOM      8  N   UNL     1      -8.034  -9.210   9.509  0.00  0.00    -0.265 N 
ATOM      9  C   UNL     1      -5.293 -11.008  14.622  0.00  0.00    -0.019 C 
ATOM     10  C   UNL     1      -3.966 -10.488  13.910  0.00  0.00    +0.011 C 
ATOM     11  C   UNL     1      -2.593 -10.895  14.572  0.00  0.00    +0.021 C 
ATOM     12  C   UNL     1      -6.519 -10.143  14.072  0.00  0.00    +0.054 C 
ATOM     13  C   UNL     1      -5.182 -10.782  16.151  0.00  0.00    +0.010 C 
ATOM     14  C   UNL     1      -2.670 -10.647  16.105  0.00  0.00    +0.123 C 
ATOM     15  C   UNL     1      -4.015 -10.722  12.373  0.00  0.00    +0.049 C 
ATOM     16  C   UNL     1      -3.885 -11.297  16.759  0.00  0.00    +0.032 C 
ATOM     17  C   UNL     1      -5.565 -12.510  14.360  0.00  0.00    +0.012 C 
ATOM     18  C   UNL     1      -6.467 -10.022  12.570  0.00  0.00    +0.058 A 
ATOM     20  C   UNL     1      -1.470  -9.978  14.011  0.00  0.00    +0.016 C 
ATOM     21  C   UNL     1      -5.329 -10.269  11.830  0.00  0.00    +0.015 A 
ATOM     24  C   UNL     1      -7.239  -9.565  10.566  0.00  0.00    +0.165 A 
ATOM     26  C   UNL     1      -9.378  -8.806   9.562  0.00  0.00    +0.219 C 
ATOM     40  H   UNL     1      -7.582  -9.255   8.600  0.00  0.00    +0.157 HD
ENDROOT
BRANCH  14   2
ATOM      2  O   UNL     1      -1.490 -11.126  16.751  0.00  0.00    -0.391 OA
ATOM     37  H   UNL     1      -1.546 -10.876  17.689  0.00  0.00    +0.210 HD
ENDBRANCH  14   2
BRANCH  11  19
ATOM     19  C   UNL     1      -2.140 -12.340  14.269  0.00  0.00    +0.165 C 
BRANCH  19   3
ATOM      3  O   UNL     1      -1.358 -12.310  13.097  0.00  0.00    -0.394 OA
ATOM     38  H   UNL     1      -0.722 -13.044  13.153  0.00  0.00    +0.209 HD
ENDBRANCH  19   3
ENDBRANCH  11  19
BRANCH  12  22
ATOM     22  C   UNL     1      -7.898 -10.615  14.550  0.00  0.00    +0.106 C 
BRANCH  22  23
ATOM      4  O   UNL     1      -8.212  -9.148  16.434  0.00  0.00    -0.275 OA
ATOM      7  N   UNL     1      -9.764  -9.140  14.672  0.00  0.00    -0.285 N 
ATOM     23  C   UNL     1      -8.620  -9.551  15.351  0.00  0.00    +0.218 C 
ATOM     39  H   UNL     1      -9.972  -9.582  13.779  0.00  0.00    +0.155 HD
BRANCH   7  25
ATOM     25  C   UNL     1     -10.708  -8.168  15.081  0.00  0.00    +0.033 A 
ATOM     29  C   UNL     1     -12.072  -8.460  15.041  0.00  0.00    +0.023 A 
ATOM     30  C   UNL     1     -10.274  -6.919  15.525  0.00  0.00    +0.023 A 
ATOM     34  C   UNL     1     -13.001  -7.501  15.444  0.00  0.00    +0.002 A 
ATOM     35  C   UNL     1     -11.205  -5.960  15.928  0.00  0.00    +0.002 A 
ATOM     36  C   UNL     1     -12.568  -6.252  15.887  0.00  0.00    +0.000 A 
ENDBRANCH   7  25
ENDBRANCH  22  23
ENDBRANCH  12  22
BRANCH  26  27
ATOM     27  C   UNL     1      -9.954  -8.493   8.186  0.00  0.00    +0.102 C 
BRANCH  27  28
ATOM     28  C   UNL     1      -9.607  -7.087   7.641  0.00  0.00    -0.029 C 
ATOM     31  C   UNL     1      -9.678  -6.020   8.745  0.00  0.00    +0.011 C 
ATOM     32  C   UNL     1     -10.638  -6.730   6.553  0.00  0.00    +0.011 C 
ATOM     33  C   UNL     1      -8.205  -7.070   7.008  0.00  0.00    +0.011 C 
ENDBRANCH  27  28
ENDBRANCH  26  27
TORSDOF 8
ENDMDL
MODEL 2
REMARK VINA RESULT:      -6.9     24.095     26.676
REMARK  Name = 11867054
REMARK  13 active torsions:
REMARK  status: ('A' for Active; 'I' for Inactive)
REMARK    1  A    between atoms: O_2  and  C_14
REMARK    2  A    between atoms: O_3  and  C_19
REMARK    3  A    between atoms: N_7  and  C_25
REMARK    4  A    between atoms: C_9  and  C_17
REMARK    5  A    between atoms: C_11  and  C_19
REMARK    6  A    between atoms: C_11  and  C_20
REMARK    7  A    between atoms: C_12  and  C_22
REMARK    8  A    between atoms: C_22  and  C_23
REMARK    9  A    between atoms: C_26  and  C_27
REMARK   10  A    between atoms: C_27  and  C_28
REMARK   11  A    between atoms: C_28  and  C_31
REMARK   12  A    between atoms: C_28  and  C_32
REMARK   13  A    between atoms: C_28  and  C_33
REMARK                            x       y       z     vdW  Elec       q    Type
REMARK                         _______ _______ _______ _____ _____    ______ ____
ROOT
ATOM      1  S   UNL     1      10.250   8.402  -1.229  0.00  0.00    -0.057 S 
ATOM      5  O   UNL     1       7.409   9.164   2.385  0.00  0.00    -0.275 OA
ATOM      6  N   UNL     1       9.731   7.739   1.218  0.00  0.00    -0.229 NA
ATOM      8  N   UNL     1       8.295   9.393   0.211  0.00  0.00    -0.265 N 
ATOM      9  C   UNL     1      12.459   5.029   0.925  0.00  0.00    -0.019 C 
ATOM     10  C   UNL     1      13.314   5.890  -0.107  0.00  0.00    +0.011 C 
ATOM     11  C   UNL     1      14.591   5.203  -0.727  0.00  0.00    +0.021 C 
ATOM     12  C   UNL     1      11.513   6.030   1.736  0.00  0.00    +0.054 C 
ATOM     13  C   UNL     1      13.412   4.335   1.931  0.00  0.00    +0.010 C 
ATOM     14  C   UNL     1      15.406   4.519   0.408  0.00  0.00    +0.123 C 
ATOM     15  C   UNL     1      12.403   6.584  -1.161  0.00  0.00    +0.049 C 
ATOM     16  C   UNL     1      14.565   3.589   1.275  0.00  0.00    +0.032 C 
ATOM     17  C   UNL     1      11.593   3.948   0.233  0.00  0.00    +0.012 C 
ATOM     18  C   UNL     1      10.822   6.995   0.807  0.00  0.00    +0.058 A 
ATOM     20  C   UNL     1      15.500   6.297  -1.355  0.00  0.00    +0.016 C 
ATOM     21  C   UNL     1      11.249   7.242  -0.482  0.00  0.00    +0.015 A 
ATOM     24  C   UNL     1       9.341   8.509   0.225  0.00  0.00    +0.165 A 
ATOM     26  C   UNL     1       7.408   9.666   1.265  0.00  0.00    +0.219 C 
ATOM     40  H   UNL     1       8.167   9.889  -0.667  0.00  0.00    +0.157 HD
ENDROOT
BRANCH  14   2
ATOM      2  O   UNL     1      16.499   3.779  -0.135  0.00  0.00    -0.391 OA
ATOM     37  H   UNL     1      16.628   4.074  -1.053  0.00  0.00    +0.210 HD
ENDBRANCH  14   2
BRANCH  11  19
ATOM     19  C   UNL     1      14.293   4.206  -1.868  0.00  0.00    +0.165 C 
BRANCH  19   3
ATOM      3  O   UNL     1      15.246   4.416  -2.885  0.00  0.00    -0.394 OA
ATOM     38  H   UNL     1      15.377   5.375  -2.966  0.00  0.00    +0.209 HD
ENDBRANCH  19   3
ENDBRANCH  11  19
BRANCH  12  22
ATOM     22  C   UNL     1      10.513   5.342   2.675  0.00  0.00    +0.106 C 
BRANCH  22  23
ATOM      4  O   UNL     1      11.749   6.320   4.496  0.00  0.00    -0.275 OA
ATOM      7  N   UNL     1       9.750   5.165   4.924  0.00  0.00    -0.285 N 
ATOM     23  C   UNL     1      10.770   5.681   4.129  0.00  0.00    +0.218 C 
ATOM     39  H   UNL     1       9.004   4.646   4.465  0.00  0.00    +0.155 HD
BRANCH   7  25
ATOM     25  C   UNL     1       9.618   5.263   6.330  0.00  0.00    +0.033 A 
ATOM     29  C   UNL     1       9.885   4.154   7.134  0.00  0.00    +0.023 A 
ATOM     30  C   UNL     1       9.224   6.468   6.911  0.00  0.00    +0.023 A 
ATOM     34  C   UNL     1       9.755   4.251   8.519  0.00  0.00    +0.002 A 
ATOM     35  C   UNL     1       9.093   6.564   8.297  0.00  0.00    +0.002 A 
ATOM     36  C   UNL     1       9.359   5.456   9.101  0.00  0.00    +0.000 A 
ENDBRANCH   7  25
ENDBRANCH  22  23
ENDBRANCH  12  22
BRANCH  26  27
ATOM     27  C   UNL     1       6.355  10.704   0.893  0.00  0.00    +0.102 C 
BRANCH  27  28
ATOM     28  C   UNL     1       4.961  10.123   0.555  0.00  0.00    -0.029 C 
ATOM     31  C   UNL     1       5.070   8.886  -0.350  0.00  0.00    +0.011 C 
ATOM     32  C   UNL     1       4.162  11.206  -0.196  0.00  0.00    +0.011 C 
ATOM     33  C   UNL     1       4.193   9.750   1.833  0.00  0.00    +0.011 C 
ENDBRANCH  27  28
ENDBRANCH  26  27
TORSDOF 8
ENDMDL
MODEL 3
REMARK VINA RESULT:      -6.9     23.564     26.806
REMARK  Name = 11867054
REMARK  13 active torsions:
REMARK  status: ('A' for Active; 'I' for Inactive)
REMARK    1  A    between atoms: O_2  and  C_14
REMARK    2  A    between atoms: O_3  and  C_19
REMARK    3  A    between atoms: N_7  and  C_25
REMARK    4  A    between atoms: C_9  and  C_17
REMARK    5  A    between atoms: C_11  and  C_19
REMARK    6  A    between atoms: C_11  and  C_20
REMARK    7  A    between atoms: C_12  and  C_22
REMARK    8  A    between atoms: C_22  and  C_23
REMARK    9  A    between atoms: C_26  and  C_27
REMARK   10  A    between atoms: C_27  and  C_28
REMARK   11  A    between atoms: C_28  and  C_31
REMARK   12  A    between atoms: C_28  and  C_32
REMARK   13  A    between atoms: C_28  and  C_33
REMARK                            x       y       z     vdW  Elec       q    Type
REMARK                         _______ _______ _______ _____ _____    ______ ____
ROOT
ATOM      1  S   UNL     1       9.802   8.038  -0.283  0.00  0.00    -0.057 S 
ATOM      5  O   UNL     1      12.622   6.370   3.030  0.00  0.00    -0.275 OA
ATOM      6  N   UNL     1      10.149   7.817   2.272  0.00  0.00    -0.229 NA
ATOM      8  N   UNL     1      11.840   6.844   0.856  0.00  0.00    -0.265 N 
ATOM      9  C   UNL     1       7.062  10.077   2.754  0.00  0.00    -0.019 C 
ATOM     10  C   UNL     1       6.372   9.554   1.417  0.00  0.00    +0.011 C 
ATOM     11  C   UNL     1       5.026  10.252   0.986  0.00  0.00    +0.021 C 
ATOM     12  C   UNL     1       8.122   8.977   3.225  0.00  0.00    +0.054 C 
ATOM     13  C   UNL     1       5.989  10.227   3.863  0.00  0.00    +0.010 C 
ATOM     14  C   UNL     1       4.087  10.363   2.221  0.00  0.00    +0.123 C 
ATOM     15  C   UNL     1       7.405   9.415   0.261  0.00  0.00    +0.049 C 
ATOM     16  C   UNL     1       4.758  11.009   3.429  0.00  0.00    +0.032 C 
ATOM     17  C   UNL     1       7.779  11.436   2.569  0.00  0.00    +0.012 C 
ATOM     18  C   UNL     1       8.973   8.516   2.069  0.00  0.00    +0.058 A 
ATOM     20  C   UNL     1       4.305   9.360  -0.064  0.00  0.00    +0.016 C 
ATOM     21  C   UNL     1       8.624   8.707   0.748  0.00  0.00    +0.015 A 
ATOM     24  C   UNL     1      10.676   7.521   1.103  0.00  0.00    +0.165 A 
ATOM     26  C   UNL     1      12.729   6.318   1.809  0.00  0.00    +0.219 C 
ATOM     40  H   UNL     1      12.065   6.725  -0.128  0.00  0.00    +0.157 HD
ENDROOT
BRANCH  14   2
ATOM      2  O   UNL     1       2.913  11.106   1.895  0.00  0.00    -0.391 OA
ATOM     37  H   UNL     1       2.176  10.731   2.407  0.00  0.00    +0.210 HD
ENDBRANCH  14   2
BRANCH  11  19
ATOM     19  C   UNL     1       5.206  11.628   0.307  0.00  0.00    +0.165 C 
BRANCH  19   3
ATOM      3  O   UNL     1       4.206  11.758  -0.678  0.00  0.00    -0.394 OA
ATOM     38  H   UNL     1       3.379  11.416  -0.299  0.00  0.00    +0.209 HD
ENDBRANCH  19   3
ENDBRANCH  11  19
BRANCH  12  22
ATOM     22  C   UNL     1       8.982   9.393   4.425  0.00  0.00    +0.106 C 
BRANCH  22  23
ATOM      4  O   UNL     1       7.956   8.778   6.515  0.00  0.00    -0.275 OA
ATOM      7  N   UNL     1       9.572   7.376   5.545  0.00  0.00    -0.285 N 
ATOM     23  C   UNL     1       8.756   8.501   5.628  0.00  0.00    +0.218 C 
ATOM     39  H   UNL     1      10.192   7.296   4.742  0.00  0.00    +0.155 HD
BRANCH   7  25
ATOM     25  C   UNL     1       9.660   6.305   6.465  0.00  0.00    +0.033 A 
ATOM     29  C   UNL     1       9.634   6.559   7.837  0.00  0.00    +0.023 A 
ATOM     30  C   UNL     1       9.772   4.994   6.001  0.00  0.00    +0.023 A 
ATOM     34  C   UNL     1       9.722   5.503   8.743  0.00  0.00    +0.002 A 
ATOM     35  C   UNL     1       9.860   3.937   6.909  0.00  0.00    +0.002 A 
ATOM     36  C   UNL     1       9.835   4.193   8.280  0.00  0.00    +0.000 A 
ENDBRANCH   7  25
ENDBRANCH  22  23
ENDBRANCH  12  22
BRANCH  26  27
ATOM     27  C   UNL     1      13.933   5.631   1.175  0.00  0.00    +0.102 C 
BRANCH  27  28
ATOM     28  C   UNL     1      13.840   4.088   1.110  0.00  0.00    -0.029 C 
ATOM     31  C   UNL     1      15.042   3.421   1.797  0.00  0.00    +0.011 C 
ATOM     32  C   UNL     1      13.836   3.673  -0.374  0.00  0.00    +0.011 C 
ATOM     33  C   UNL     1      12.541   3.584   1.759  0.00  0.00    +0.011 C 
ENDBRANCH  27  28
ENDBRANCH  26  27
TORSDOF 8
ENDMDL
MODEL 4
REMARK VINA RESULT:      -6.9     23.799     26.926
REMARK  Name = 11867054
REMARK  13 active torsions:
REMARK  status: ('A' for Active; 'I' for Inactive)
REMARK    1  A    between atoms: O_2  and  C_14
REMARK    2  A    between atoms: O_3  and  C_19
REMARK    3  A    between atoms: N_7  and  C_25
REMARK    4  A    between atoms: C_9  and  C_17
REMARK    5  A    between atoms: C_11  and  C_19
REMARK    6  A    between atoms: C_11  and  C_20
REMARK    7  A    between atoms: C_12  and  C_22
REMARK    8  A    between atoms: C_22  and  C_23
REMARK    9  A    between atoms: C_26  and  C_27
REMARK   10  A    between atoms: C_27  and  C_28
REMARK   11  A    between atoms: C_28  and  C_31
REMARK   12  A    between atoms: C_28  and  C_32
REMARK   13  A    between atoms: C_28  and  C_33
REMARK                            x       y       z     vdW  Elec       q    Type
REMARK                         _______ _______ _______ _____ _____    ______ ____
ROOT
ATOM      1  S   UNL     1      -5.990  -7.436  39.331  0.00  0.00    -0.057 S 
ATOM      5  O   UNL     1      -7.298 -11.850  38.607  0.00  0.00    -0.275 OA
ATOM      6  N   UNL     1      -8.011  -9.051  39.275  0.00  0.00    -0.229 NA
ATOM      8  N   UNL     1      -5.848  -9.998  38.790  0.00  0.00    -0.265 N 
ATOM      9  C   UNL     1     -10.197  -6.152  40.576  0.00  0.00    -0.019 C 
ATOM     10  C   UNL     1      -9.306  -5.051  39.849  0.00  0.00    +0.011 C 
ATOM     11  C   UNL     1      -9.668  -3.541  40.127  0.00  0.00    +0.021 C 
ATOM     12  C   UNL     1      -9.958  -7.548  39.834  0.00  0.00    +0.054 C 
ATOM     13  C   UNL     1     -11.695  -5.777  40.441  0.00  0.00    +0.010 C 
ATOM     14  C   UNL     1     -11.205  -3.349  39.995  0.00  0.00    +0.123 C 
ATOM     15  C   UNL     1      -7.788  -5.367  39.984  0.00  0.00    +0.049 C 
ATOM     16  C   UNL     1     -12.008  -4.339  40.832  0.00  0.00    +0.032 C 
ATOM     17  C   UNL     1      -9.856  -6.305  42.079  0.00  0.00    +0.012 C 
ATOM     18  C   UNL     1      -8.489  -7.796  39.607  0.00  0.00    +0.058 A 
ATOM     20  C   UNL     1      -8.996  -2.651  39.043  0.00  0.00    +0.016 C 
ATOM     21  C   UNL     1      -7.536  -6.801  39.661  0.00  0.00    +0.015 A 
ATOM     24  C   UNL     1      -6.707  -8.982  39.115  0.00  0.00    +0.165 A 
ATOM     26  C   UNL     1      -6.181 -11.343  38.560  0.00  0.00    +0.219 C 
ATOM     40  H   UNL     1      -4.872  -9.725  38.718  0.00  0.00    +0.157 HD
ENDROOT
BRANCH  14   2
ATOM      2  O   UNL     1     -11.580  -2.023  40.366  0.00  0.00    -0.391 OA
ATOM     37  H   UNL     1     -10.768  -1.541  40.598  0.00  0.00    +0.210 HD
ENDBRANCH  14   2
BRANCH  11  19
ATOM     19  C   UNL     1      -9.160  -2.999  41.482  0.00  0.00    +0.165 C 
BRANCH  19   3
ATOM      3  O   UNL     1      -8.678  -1.691  41.271  0.00  0.00    -0.394 OA
ATOM     38  H   UNL     1      -8.612  -1.262  42.140  0.00  0.00    +0.209 HD
ENDBRANCH  19   3
ENDBRANCH  11  19
BRANCH  12  22
ATOM     22  C   UNL     1     -10.635  -8.751  40.504  0.00  0.00    +0.106 C 
BRANCH  22  23
ATOM      4  O   UNL     1     -12.761  -9.577  39.732  0.00  0.00    -0.275 OA
ATOM      7  N   UNL     1     -10.812 -10.030  38.503  0.00  0.00    -0.285 N 
ATOM     23  C   UNL     1     -11.551  -9.493  39.553  0.00  0.00    +0.218 C 
ATOM     39  H   UNL     1      -9.806  -9.878  38.502  0.00  0.00    +0.155 HD
BRANCH   7  25
ATOM     25  C   UNL     1     -11.292 -10.791  37.411  0.00  0.00    +0.033 A 
ATOM     29  C   UNL     1     -12.428 -10.375  36.716  0.00  0.00    +0.023 A 
ATOM     30  C   UNL     1     -10.629 -11.957  37.028  0.00  0.00    +0.023 A 
ATOM     34  C   UNL     1     -12.900 -11.126  35.639  0.00  0.00    +0.002 A 
ATOM     35  C   UNL     1     -11.102 -12.708  35.951  0.00  0.00    +0.002 A 
ATOM     36  C   UNL     1     -12.238 -12.292  35.257  0.00  0.00    +0.000 A 
ENDBRANCH   7  25
ENDBRANCH  22  23
ENDBRANCH  12  22
BRANCH  26  27
ATOM     27  C   UNL     1      -4.966 -12.202  38.229  0.00  0.00    +0.102 C 
BRANCH  27  28
ATOM     28  C   UNL     1      -5.035 -12.927  36.863  0.00  0.00    -0.029 C 
ATOM     31  C   UNL     1      -5.566 -14.361  37.012  0.00  0.00    +0.011 C 
ATOM     32  C   UNL     1      -3.608 -12.994  36.286  0.00  0.00    +0.011 C 
ATOM     33  C   UNL     1      -5.925 -12.156  35.873  0.00  0.00    +0.011 C 
ENDBRANCH  27  28
ENDBRANCH  26  27
TORSDOF 8
ENDMDL
MODEL 5
REMARK VINA RESULT:      -6.7     27.255     30.337
REMARK  Name = 11867054
REMARK  13 active torsions:
REMARK  status: ('A' for Active; 'I' for Inactive)
REMARK    1  A    between atoms: O_2  and  C_14
REMARK    2  A    between atoms: O_3  and  C_19
REMARK    3  A    between atoms: N_7  and  C_25
REMARK    4  A    between atoms: C_9  and  C_17
REMARK    5  A    between atoms: C_11  and  C_19
REMARK    6  A    between atoms: C_11  and  C_20
REMARK    7  A    between atoms: C_12  and  C_22
REMARK    8  A    between atoms: C_22  and  C_23
REMARK    9  A    between atoms: C_26  and  C_27
REMARK   10  A    between atoms: C_27  and  C_28
REMARK   11  A    between atoms: C_28  and  C_31
REMARK   12  A    between atoms: C_28  and  C_32
REMARK   13  A    between atoms: C_28  and  C_33
REMARK                            x       y       z     vdW  Elec       q    Type
REMARK                         _______ _______ _______ _____ _____    ______ ____
ROOT
ATOM      1  S   UNL     1      14.756   7.902   6.580  0.00  0.00    -0.057 S 
ATOM      5  O   UNL     1      11.981   6.222   3.235  0.00  0.00    -0.275 OA
ATOM      6  N   UNL     1      14.603   7.331   4.061  0.00  0.00    -0.229 NA
ATOM      8  N   UNL     1      12.641   6.903   5.395  0.00  0.00    -0.265 N 
ATOM      9  C   UNL     1      18.089   8.923   3.622  0.00  0.00    -0.019 C 
ATOM     10  C   UNL     1      18.546   8.514   5.092  0.00  0.00    +0.011 C 
ATOM     11  C   UNL     1      19.956   9.034   5.573  0.00  0.00    +0.021 C 
ATOM     12  C   UNL     1      16.888   7.958   3.194  0.00  0.00    +0.054 C 
ATOM     13  C   UNL     1      19.265   8.706   2.636  0.00  0.00    +0.010 C 
ATOM     14  C   UNL     1      21.005   8.781   4.453  0.00  0.00    +0.123 C 
ATOM     15  C   UNL     1      17.407   8.744   6.127  0.00  0.00    +0.049 C 
ATOM     16  C   UNL     1      20.577   9.327   3.095  0.00  0.00    +0.032 C 
ATOM     17  C   UNL     1      17.624  10.396   3.525  0.00  0.00    +0.012 C 
ATOM     18  C   UNL     1      15.866   7.842   4.297  0.00  0.00    +0.058 A 
ATOM     20  C   UNL     1      20.401   8.214   6.817  0.00  0.00    +0.016 C 
ATOM     21  C   UNL     1      16.126   8.183   5.608  0.00  0.00    +0.015 A 
ATOM     24  C   UNL     1      13.929   7.323   5.191  0.00  0.00    +0.165 A 
ATOM     26  C   UNL     1      11.759   6.388   4.430  0.00  0.00    +0.219 C 
ATOM     40  H   UNL     1      12.312   6.986   6.352  0.00  0.00    +0.157 HD
ENDROOT
BRANCH  14   2
ATOM      2  O   UNL     1      22.263   9.356   4.803  0.00  0.00    -0.391 OA
ATOM     37  H   UNL     1      22.574   9.872   4.040  0.00  0.00    +0.210 HD
ENDBRANCH  14   2
BRANCH  11  19
ATOM     19  C   UNL     1      19.975  10.512   6.021  0.00  0.00    +0.165 C 
BRANCH  19   3
ATOM      3  O   UNL     1      20.915  10.635   7.064  0.00  0.00    -0.394 OA
ATOM     38  H   UNL     1      21.039  11.584   7.234  0.00  0.00    +0.209 HD
ENDBRANCH  19   3
ENDBRANCH  11  19
BRANCH  12  22
ATOM     22  C   UNL     1      16.231   8.314   1.854  0.00  0.00    +0.106 C 
BRANCH  22  23
ATOM      4  O   UNL     1      16.856   6.649   0.231  0.00  0.00    -0.275 OA
ATOM      7  N   UNL     1      14.717   6.597   1.198  0.00  0.00    -0.285 N 
ATOM     23  C   UNL     1      16.001   7.093   0.989  0.00  0.00    +0.218 C 
ATOM     39  H   UNL     1      14.119   7.088   1.859  0.00  0.00    +0.155 HD
BRANCH   7  25
ATOM     25  C   UNL     1      14.115   5.473   0.584  0.00  0.00    +0.033 A 
ATOM     29  C   UNL     1      13.978   4.280   1.294  0.00  0.00    +0.023 A 
ATOM     30  C   UNL     1      13.657   5.558  -0.731  0.00  0.00    +0.023 A 
ATOM     34  C   UNL     1      13.385   3.172   0.689  0.00  0.00    +0.002 A 
ATOM     35  C   UNL     1      13.064   4.450  -1.337  0.00  0.00    +0.002 A 
ATOM     36  C   UNL     1      12.929   3.257  -0.627  0.00  0.00    +0.000 A 
ENDBRANCH   7  25
ENDBRANCH  22  23
ENDBRANCH  12  22
BRANCH  26  27
ATOM     27  C   UNL     1      10.396   6.029   5.011  0.00  0.00    +0.102 C 
BRANCH  27  28
ATOM     28  C   UNL     1       9.288   7.080   4.766  0.00  0.00    -0.029 C 
ATOM     31  C   UNL     1       9.619   8.419   5.446  0.00  0.00    +0.011 C 
ATOM     32  C   UNL     1       7.977   6.540   5.369  0.00  0.00    +0.011 C 
ATOM     33  C   UNL     1       9.072   7.315   3.262  0.00  0.00    +0.011 C 
ENDBRANCH  27  28
ENDBRANCH  26  27
TORSDOF 8
ENDMDL
MODEL 6
REMARK VINA RESULT:      -6.7      3.262      7.490
REMARK  Name = 11867054
REMARK  13 active torsions:
REMARK  status: ('A' for Active; 'I' for Inactive)
REMARK    1  A    between atoms: O_2  and  C_14
REMARK    2  A    between atoms: O_3  and  C_19
REMARK    3  A    between atoms: N_7  and  C_25
REMARK    4  A    between atoms: C_9  and  C_17
REMARK    5  A    between atoms: C_11  and  C_19
REMARK    6  A    between atoms: C_11  and  C_20
REMARK    7  A    between atoms: C_12  and  C_22
REMARK    8  A    between atoms: C_22  and  C_23
REMARK    9  A    between atoms: C_26  and  C_27
REMARK   10  A    between atoms: C_27  and  C_28
REMARK   11  A    between atoms: C_28  and  C_31
REMARK   12  A    between atoms: C_28  and  C_32
REMARK   13  A    between atoms: C_28  and  C_33
REMARK                            x       y       z     vdW  Elec       q    Type
REMARK                         _______ _______ _______ _____ _____    ______ ____
ROOT
ATOM      1  S   UNL     1     -10.019  -9.936  13.088  0.00  0.00    -0.057 S 
ATOM      5  O   UNL     1      -5.471  -9.313  12.288  0.00  0.00    -0.275 OA
ATOM      6  N   UNL     1      -7.678  -9.867  14.188  0.00  0.00    -0.229 NA
ATOM      8  N   UNL     1      -7.775  -9.480  11.810  0.00  0.00    -0.265 N 
ATOM      9  C   UNL     1      -9.420 -10.216  17.611  0.00  0.00    -0.019 C 
ATOM     10  C   UNL     1     -10.620 -11.067  17.001  0.00  0.00    +0.011 C 
ATOM     11  C   UNL     1     -11.803 -11.435  17.976  0.00  0.00    +0.021 C 
ATOM     12  C   UNL     1      -8.174 -10.337  16.616  0.00  0.00    +0.054 C 
ATOM     13  C   UNL     1      -9.009 -10.811  18.982  0.00  0.00    +0.010 C 
ATOM     14  C   UNL     1     -11.217 -11.971  19.314  0.00  0.00    +0.123 C 
ATOM     15  C   UNL     1     -11.090 -10.489  15.635  0.00  0.00    +0.049 C 
ATOM     16  C   UNL     1     -10.178 -11.040  19.930  0.00  0.00    +0.032 C 
ATOM     17  C   UNL     1      -9.779  -8.722  17.804  0.00  0.00    +0.012 C 
ATOM     18  C   UNL     1      -8.600 -10.122  15.186  0.00  0.00    +0.058 A 
ATOM     20  C   UNL     1     -12.641 -12.583  17.346  0.00  0.00    +0.016 C 
ATOM     21  C   UNL     1      -9.911 -10.213  14.765  0.00  0.00    +0.015 A 
ATOM     24  C   UNL     1      -8.313  -9.742  13.042  0.00  0.00    +0.165 A 
ATOM     26  C   UNL     1      -6.417  -9.284  11.507  0.00  0.00    +0.219 C 
ATOM     40  H   UNL     1      -8.450  -9.422  11.053  0.00  0.00    +0.157 HD
ENDROOT
BRANCH  14   2
ATOM      2  O   UNL     1     -12.258 -12.192  20.265  0.00  0.00    -0.391 OA
ATOM     37  H   UNL     1     -12.052 -11.663  21.055  0.00  0.00    +0.210 HD
ENDBRANCH  14   2
BRANCH  11  19
ATOM     19  C   UNL     1     -12.802 -10.286  18.234  0.00  0.00    +0.165 C 
BRANCH  19   3
ATOM      3  O   UNL     1     -14.080 -10.856  18.412  0.00  0.00    -0.394 OA
ATOM     38  H   UNL     1     -13.962 -11.681  18.914  0.00  0.00    +0.209 HD
ENDBRANCH  19   3
ENDBRANCH  11  19
BRANCH  12  22
ATOM     22  C   UNL     1      -6.975  -9.453  16.984  0.00  0.00    +0.106 C 
BRANCH  22  23
ATOM      4  O   UNL     1      -5.296 -10.849  18.000  0.00  0.00    -0.275 OA
ATOM      7  N   UNL     1      -5.035 -10.130  15.780  0.00  0.00    -0.285 N 
ATOM     23  C   UNL     1      -5.677 -10.233  17.011  0.00  0.00    +0.218 C 
ATOM     39  H   UNL     1      -5.481  -9.570  15.056  0.00  0.00    +0.155 HD
BRANCH   7  25
ATOM     25  C   UNL     1      -3.803 -10.710  15.398  0.00  0.00    +0.033 A 
ATOM     29  C   UNL     1      -3.765 -11.658  14.375  0.00  0.00    +0.023 A 
ATOM     30  C   UNL     1      -2.625 -10.333  16.044  0.00  0.00    +0.023 A 
ATOM     34  C   UNL     1      -2.549 -12.230  14.000  0.00  0.00    +0.002 A 
ATOM     35  C   UNL     1      -1.409 -10.906  15.668  0.00  0.00    +0.002 A 
ATOM     36  C   UNL     1      -1.372 -11.854  14.646  0.00  0.00    +0.000 A 
ENDBRANCH   7  25
ENDBRANCH  22  23
ENDBRANCH  12  22
BRANCH  26  27
ATOM     27  C   UNL     1      -6.179  -9.003  10.028  0.00  0.00    +0.102 C 
BRANCH  27  28
ATOM     28  C   UNL     1      -5.013  -9.799   9.395  0.00  0.00    -0.029 C 
ATOM     31  C   UNL     1      -3.657  -9.131   9.672  0.00  0.00    +0.011 C 
ATOM     32  C   UNL     1      -5.234  -9.838   7.871  0.00  0.00    +0.011 C 
ATOM     33  C   UNL     1      -4.983 -11.245   9.919  0.00  0.00    +0.011 C 
ENDBRANCH  27  28
ENDBRANCH  26  27
TORSDOF 8
ENDMDL
MODEL 7
REMARK VINA RESULT:      -6.6      3.174      9.495
REMARK  Name = 11867054
REMARK  13 active torsions:
REMARK  status: ('A' for Active; 'I' for Inactive)
REMARK    1  A    between atoms: O_2  and  C_14
REMARK    2  A    between atoms: O_3  and  C_19
REMARK    3  A    between atoms: N_7  and  C_25
REMARK    4  A    between atoms: C_9  and  C_17
REMARK    5  A    between atoms: C_11  and  C_19
REMARK    6  A    between atoms: C_11  and  C_20
REMARK    7  A    between atoms: C_12  and  C_22
REMARK    8  A    between atoms: C_22  and  C_23
REMARK    9  A    between atoms: C_26  and  C_27
REMARK   10  A    between atoms: C_27  and  C_28
REMARK   11  A    between atoms: C_28  and  C_31
REMARK   12  A    between atoms: C_28  and  C_32
REMARK   13  A    between atoms: C_28  and  C_33
REMARK                            x       y       z     vdW  Elec       q    Type
REMARK                         _______ _______ _______ _____ _____    ______ ____
ROOT
ATOM      1  S   UNL     1      -9.315  -8.423  17.093  0.00  0.00    -0.057 S 
ATOM      5  O   UNL     1      -5.561 -10.775  15.649  0.00  0.00    -0.275 OA
ATOM      6  N   UNL     1      -8.222  -9.607  15.068  0.00  0.00    -0.229 NA
ATOM      8  N   UNL     1      -6.973  -9.601  17.130  0.00  0.00    -0.265 N 
ATOM      9  C   UNL     1     -11.498  -9.017  13.121  0.00  0.00    -0.019 C 
ATOM     10  C   UNL     1     -11.817  -7.670  13.910  0.00  0.00    +0.011 C 
ATOM     11  C   UNL     1     -13.199  -6.973  13.608  0.00  0.00    +0.021 C 
ATOM     12  C   UNL     1      -9.929  -9.296  13.237  0.00  0.00    +0.054 C 
ATOM     13  C   UNL     1     -11.853  -8.833  11.623  0.00  0.00    +0.010 C 
ATOM     14  C   UNL     1     -13.416  -6.913  12.069  0.00  0.00    +0.123 C 
ATOM     15  C   UNL     1     -11.506  -7.814  15.428  0.00  0.00    +0.049 C 
ATOM     16  C   UNL     1     -13.244  -8.264  11.384  0.00  0.00    +0.032 C 
ATOM     17  C   UNL     1     -12.279 -10.235  13.671  0.00  0.00    +0.012 C 
ATOM     18  C   UNL     1      -9.451  -9.124  14.656  0.00  0.00    +0.058 A 
ATOM     20  C   UNL     1     -13.152  -5.509  14.127  0.00  0.00    +0.016 C 
ATOM     21  C   UNL     1     -10.166  -8.440  15.617  0.00  0.00    +0.015 A 
ATOM     24  C   UNL     1      -8.048  -9.303  16.337  0.00  0.00    +0.165 A 
ATOM     26  C   UNL     1      -5.816 -10.304  16.754  0.00  0.00    +0.219 C 
ATOM     40  H   UNL     1      -7.044  -9.272  18.088  0.00  0.00    +0.157 HD
ENDROOT
BRANCH  14   2
ATOM      2  O   UNL     1     -14.715  -6.405  11.764  0.00  0.00    -0.391 OA
ATOM     37  H   UNL     1     -15.277  -6.548  12.545  0.00  0.00    +0.210 HD
ENDBRANCH  14   2
BRANCH  11  19
ATOM     19  C   UNL     1     -14.411  -7.624  14.309  0.00  0.00    +0.165 C 
BRANCH  19   3
ATOM      3  O   UNL     1     -15.315  -6.597  14.651  0.00  0.00    -0.394 OA
ATOM     38  H   UNL     1     -15.310  -6.517  15.620  0.00  0.00    +0.209 HD
ENDBRANCH  19   3
ENDBRANCH  11  19
BRANCH  12  22
ATOM     22  C   UNL     1      -9.475 -10.640  12.650  0.00  0.00    +0.106 C 
BRANCH  22  23
ATOM      4  O   UNL     1      -8.594 -10.714  10.410  0.00  0.00    -0.275 OA
ATOM      7  N   UNL     1      -7.225 -10.013  12.185  0.00  0.00    -0.285 N 
ATOM     23  C   UNL     1      -8.401 -10.470  11.596  0.00  0.00    +0.218 C 
ATOM     39  H   UNL     1      -7.224  -9.865  13.192  0.00  0.00    +0.155 HD
BRANCH   7  25
ATOM     25  C   UNL     1      -5.994  -9.730  11.548  0.00  0.00    +0.033 A 
ATOM     29  C   UNL     1      -5.921  -8.718  10.590  0.00  0.00    +0.023 A 
ATOM     30  C   UNL     1      -4.853 -10.460  11.879  0.00  0.00    +0.023 A 
ATOM     34  C   UNL     1      -4.707  -8.440   9.962  0.00  0.00    +0.002 A 
ATOM     35  C   UNL     1      -3.639 -10.182  11.250  0.00  0.00    +0.002 A 
ATOM     36  C   UNL     1      -3.566  -9.171  10.292  0.00  0.00    +0.000 A 
ENDBRANCH   7  25
ENDBRANCH  22  23
ENDBRANCH  12  22
BRANCH  26  27
ATOM     27  C   UNL     1      -4.824 -10.461  17.900  0.00  0.00    +0.102 C 
BRANCH  27  28
ATOM     28  C   UNL     1      -5.071 -11.689  18.809  0.00  0.00    -0.029 C 
ATOM     31  C   UNL     1      -5.959 -11.332  20.011  0.00  0.00    +0.011 C 
ATOM     32  C   UNL     1      -3.707 -12.172  19.338  0.00  0.00    +0.011 C 
ATOM     33  C   UNL     1      -5.721 -12.838  18.021  0.00  0.00    +0.011 C 
ENDBRANCH  27  28
ENDBRANCH  26  27
TORSDOF 8
ENDMDL
MODEL 8
REMARK VINA RESULT:      -6.5      4.503     10.190
REMARK  Name = 11867054
REMARK  13 active torsions:
REMARK  status: ('A' for Active; 'I' for Inactive)
REMARK    1  A    between atoms: O_2  and  C_14
REMARK    2  A    between atoms: O_3  and  C_19
REMARK    3  A    between atoms: N_7  and  C_25
REMARK    4  A    between atoms: C_9  and  C_17
REMARK    5  A    between atoms: C_11  and  C_19
REMARK    6  A    between atoms: C_11  and  C_20
REMARK    7  A    between atoms: C_12  and  C_22
REMARK    8  A    between atoms: C_22  and  C_23
REMARK    9  A    between atoms: C_26  and  C_27
REMARK   10  A    between atoms: C_27  and  C_28
REMARK   11  A    between atoms: C_28  and  C_31
REMARK   12  A    between atoms: C_28  and  C_32
REMARK   13  A    between atoms: C_28  and  C_33
REMARK                            x       y       z     vdW  Elec       q    Type
REMARK                         _______ _______ _______ _____ _____    ______ ____
ROOT
ATOM      1  S   UNL     1     -10.473 -10.673  20.119  0.00  0.00    -0.057 S 
ATOM      5  O   UNL     1      -7.145  -9.432  17.103  0.00  0.00    -0.275 OA
ATOM      6  N   UNL     1     -10.015  -9.546  17.835  0.00  0.00    -0.229 NA
ATOM      8  N   UNL     1      -8.098 -10.348  19.057  0.00  0.00    -0.265 N 
ATOM      9  C   UNL     1     -13.831  -9.376  17.300  0.00  0.00    -0.019 C 
ATOM     10  C   UNL     1     -14.122  -9.238  18.860  0.00  0.00    +0.011 C 
ATOM     11  C   UNL     1     -15.634  -9.242  19.308  0.00  0.00    +0.021 C 
ATOM     12  C   UNL     1     -12.323  -8.913  17.037  0.00  0.00    +0.054 C 
ATOM     13  C   UNL     1     -14.775  -8.432  16.513  0.00  0.00    +0.010 C 
ATOM     14  C   UNL     1     -16.444  -8.283  18.390  0.00  0.00    +0.123 C 
ATOM     15  C   UNL     1     -13.217 -10.190  19.694  0.00  0.00    +0.049 C 
ATOM     16  C   UNL     1     -16.241  -8.559  16.904  0.00  0.00    +0.032 C 
ATOM     17  C   UNL     1     -14.023 -10.821  16.778  0.00  0.00    +0.012 C 
ATOM     18  C   UNL     1     -11.383  -9.536  18.037  0.00  0.00    +0.058 A 
ATOM     20  C   UNL     1     -15.734  -8.690  20.758  0.00  0.00    +0.016 C 
ATOM     21  C   UNL     1     -11.804 -10.087  19.230  0.00  0.00    +0.015 A 
ATOM     24  C   UNL     1      -9.436 -10.127  18.863  0.00  0.00    +0.165 A 
ATOM     26  C   UNL     1      -7.051  -9.998  18.188  0.00  0.00    +0.219 C 
ATOM     40  H   UNL     1      -7.864 -10.819  19.926  0.00  0.00    +0.157 HD
ENDROOT
BRANCH  14   2
ATOM      2  O   UNL     1     -17.838  -8.362  18.686  0.00  0.00    -0.391 OA
ATOM     37  H   UNL     1     -18.275  -8.794  17.933  0.00  0.00    +0.210 HD
ENDBRANCH  14   2
BRANCH  11  19
ATOM     19  C   UNL     1     -16.285 -10.642  19.352  0.00  0.00    +0.165 C 
BRANCH  19   3
ATOM      3  O   UNL     1     -17.191 -10.664  20.432  0.00  0.00    -0.394 OA
ATOM     38  H   UNL     1     -17.984 -11.142  20.136  0.00  0.00    +0.209 HD
ENDBRANCH  19   3
ENDBRANCH  11  19
BRANCH  12  22
ATOM     22  C   UNL     1     -11.833  -9.123  15.598  0.00  0.00    +0.106 C 
BRANCH  22  23
ATOM      4  O   UNL     1     -10.424  -7.204  15.239  0.00  0.00    -0.275 OA
ATOM      7  N   UNL     1     -12.381  -7.475  13.970  0.00  0.00    -0.285 N 
ATOM     23  C   UNL     1     -11.438  -7.821  14.933  0.00  0.00    +0.218 C 
ATOM     39  H   UNL     1     -13.179  -8.093  13.840  0.00  0.00    +0.155 HD
BRANCH   7  25
ATOM     25  C   UNL     1     -12.379  -6.335  13.131  0.00  0.00    +0.033 A 
ATOM     29  C   UNL     1     -12.325  -6.489  11.745  0.00  0.00    +0.023 A 
ATOM     30  C   UNL     1     -12.434  -5.058  13.689  0.00  0.00    +0.023 A 
ATOM     34  C   UNL     1     -12.323  -5.366  10.919  0.00  0.00    +0.002 A 
ATOM     35  C   UNL     1     -12.431  -3.934  12.862  0.00  0.00    +0.002 A 
ATOM     36  C   UNL     1     -12.376  -4.088  11.477  0.00  0.00    +0.000 A 
ENDBRANCH   7  25
ENDBRANCH  22  23
ENDBRANCH  12  22
BRANCH  26  27
ATOM     27  C   UNL     1      -5.682 -10.405  18.722  0.00  0.00    +0.102 C 
BRANCH  27  28
ATOM     28  C   UNL     1      -5.069 -11.656  18.048  0.00  0.00    -0.029 C 
ATOM     31  C   UNL     1      -6.145 -12.697  17.703  0.00  0.00    +0.011 C 
ATOM     32  C   UNL     1      -4.076 -12.293  19.039  0.00  0.00    +0.011 C 
ATOM     33  C   UNL     1      -4.304 -11.275  16.769  0.00  0.00    +0.011 C 
ENDBRANCH  27  28
ENDBRANCH  26  27
TORSDOF 8
ENDMDL
MODEL 9
REMARK VINA RESULT:      -6.5      1.837      2.134
REMARK  Name = 11867054
REMARK  13 active torsions:
REMARK  status: ('A' for Active; 'I' for Inactive)
REMARK    1  A    between atoms: O_2  and  C_14
REMARK    2  A    between atoms: O_3  and  C_19
REMARK    3  A    between atoms: N_7  and  C_25
REMARK    4  A    between atoms: C_9  and  C_17
REMARK    5  A    between atoms: C_11  and  C_19
REMARK    6  A    between atoms: C_11  and  C_20
REMARK    7  A    between atoms: C_12  and  C_22
REMARK    8  A    between atoms: C_22  and  C_23
REMARK    9  A    between atoms: C_26  and  C_27
REMARK   10  A    between atoms: C_27  and  C_28
REMARK   11  A    between atoms: C_28  and  C_31
REMARK   12  A    between atoms: C_28  and  C_32
REMARK   13  A    between atoms: C_28  and  C_33
REMARK                            x       y       z     vdW  Elec       q    Type
REMARK                         _______ _______ _______ _____ _____    ______ ____
ROOT
ATOM      1  S   UNL     1      -5.390 -10.036  10.221  0.00  0.00    -0.057 S 
ATOM      5  O   UNL     1      -9.872  -8.762  10.175  0.00  0.00    -0.275 OA
ATOM      6  N   UNL     1      -7.488  -9.663  11.689  0.00  0.00    -0.229 NA
ATOM      8  N   UNL     1      -7.724  -9.245   9.327  0.00  0.00    -0.265 N 
ATOM      9  C   UNL     1      -5.497 -11.092  14.667  0.00  0.00    -0.019 C 
ATOM     10  C   UNL     1      -4.110 -10.552  14.100  0.00  0.00    +0.011 C 
ATOM     11  C   UNL     1      -2.807 -10.957  14.891  0.00  0.00    +0.021 C 
ATOM     12  C   UNL     1      -6.669 -10.229  14.007  0.00  0.00    +0.054 C 
ATOM     13  C   UNL     1      -5.543 -10.886  16.203  0.00  0.00    +0.010 C 
ATOM     14  C   UNL     1      -3.041 -10.732  16.413  0.00  0.00    +0.123 C 
ATOM     15  C   UNL     1      -4.002 -10.765  12.563  0.00  0.00    +0.049 C 
ATOM     16  C   UNL     1      -4.310 -11.399  16.931  0.00  0.00    +0.032 C 
ATOM     17  C   UNL     1      -5.728 -12.592  14.360  0.00  0.00    +0.012 C 
ATOM     18  C   UNL     1      -6.467 -10.087  12.520  0.00  0.00    +0.058 A 
ATOM     20  C   UNL     1      -1.641 -10.024  14.459  0.00  0.00    +0.016 C 
ATOM     21  C   UNL     1      -5.258 -10.315  11.896  0.00  0.00    +0.015 A 
ATOM     24  C   UNL     1      -7.037  -9.608  10.454  0.00  0.00    +0.165 A 
ATOM     26  C   UNL     1      -9.071  -8.851   9.249  0.00  0.00    +0.219 C 
ATOM     40  H   UNL     1      -7.182  -9.273   8.468  0.00  0.00    +0.157 HD
ENDROOT
BRANCH  14   2
ATOM      2  O   UNL     1      -1.928 -11.210  17.168  0.00  0.00    -0.391 OA
ATOM     37  H   UNL     1      -1.497 -11.909  16.646  0.00  0.00    +0.210 HD
ENDBRANCH  14   2
BRANCH  11  19
ATOM     19  C   UNL     1      -2.313 -12.394  14.617  0.00  0.00    +0.165 C 
BRANCH  19   3
ATOM      3  O   UNL     1      -0.911 -12.404  14.766  0.00  0.00    -0.394 OA
ATOM     38  H   UNL     1      -0.646 -11.522  15.077  0.00  0.00    +0.209 HD
ENDBRANCH  19   3
ENDBRANCH  11  19
BRANCH  12  22
ATOM     22  C   UNL     1      -8.086 -10.718  14.337  0.00  0.00    +0.106 C 
BRANCH  22  23
ATOM      4  O   UNL     1      -8.607  -8.782  15.671  0.00  0.00    -0.275 OA
ATOM      7  N   UNL     1      -9.272 -10.915  16.393  0.00  0.00    -0.285 N 
ATOM     23  C   UNL     1      -8.675  -9.998  15.532  0.00  0.00    +0.218 C 
ATOM     39  H   UNL     1      -9.236 -11.900  16.138  0.00  0.00    +0.155 HD
BRANCH   7  25
ATOM     25  C   UNL     1      -9.931 -10.648  17.616  0.00  0.00    +0.033 A 
ATOM     29  C   UNL     1     -11.172 -10.010  17.616  0.00  0.00    +0.023 A 
ATOM     30  C   UNL     1      -9.341 -11.025  18.823  0.00  0.00    +0.023 A 
ATOM     34  C   UNL     1     -11.820  -9.747  18.822  0.00  0.00    +0.002 A 
ATOM     35  C   UNL     1      -9.991 -10.761  20.030  0.00  0.00    +0.002 A 
ATOM     36  C   UNL     1     -11.231 -10.122  20.029  0.00  0.00    +0.000 A 
ENDBRANCH   7  25
ENDBRANCH  22  23
ENDBRANCH  12  22
BRANCH  26  27
ATOM     27  C   UNL     1      -9.508  -8.524   7.826  0.00  0.00    +0.102 C 
BRANCH  27  28
ATOM     28  C   UNL     1      -9.442  -7.023   7.456  0.00  0.00    -0.029 C 
ATOM     31  C   UNL     1     -10.719  -6.280   7.879  0.00  0.00    +0.011 C 
ATOM     32  C   UNL     1      -9.302  -6.916   5.925  0.00  0.00    +0.011 C 
ATOM     33  C   UNL     1      -8.223  -6.346   8.105  0.00  0.00    +0.011 C 
ENDBRANCH  27  28
ENDBRANCH  26  27
TORSDOF 8
ENDMDL
MODEL 10
REMARK VINA RESULT:      -6.4     26.221     29.387
REMARK  Name = 11867054
REMARK  13 active torsions:
REMARK  status: ('A' for Active; 'I' for Inactive)
REMARK    1  A    between atoms: O_2  and  C_14
REMARK    2  A    between atoms: O_3  and  C_19
REMARK    3  A    between atoms: N_7  and  C_25
REMARK    4  A    between atoms: C_9  and  C_17
REMARK    5  A    between atoms: C_11  and  C_19
REMARK    6  A    between atoms: C_11  and  C_20
REMARK    7  A    between atoms: C_12  and  C_22
REMARK    8  A    between atoms: C_22  and  C_23
REMARK    9  A    between atoms: C_26  and  C_27
REMARK   10  A    between atoms: C_27  and  C_28
REMARK   11  A    between atoms: C_28  and  C_31
REMARK   12  A    between atoms: C_28  and  C_32
REMARK   13  A    between atoms: C_28  and  C_33
REMARK                            x       y       z     vdW  Elec       q    Type
REMARK                         _______ _______ _______ _____ _____    ______ ____
ROOT
ATOM      1  S   UNL     1      17.022   7.330   0.823  0.00  0.00    -0.057 S 
ATOM      5  O   UNL     1      17.633   8.902   5.167  0.00  0.00    -0.275 OA
ATOM      6  N   UNL     1      15.858   7.738   3.098  0.00  0.00    -0.229 NA
ATOM      8  N   UNL     1      18.186   8.342   2.944  0.00  0.00    -0.265 N 
ATOM      9  C   UNL     1      12.535   6.706   1.435  0.00  0.00    -0.019 C 
ATOM     10  C   UNL     1      13.259   5.706   0.429  0.00  0.00    +0.011 C 
ATOM     11  C   UNL     1      12.357   5.016  -0.667  0.00  0.00    +0.021 C 
ATOM     12  C   UNL     1      13.503   6.932   2.687  0.00  0.00    +0.054 C 
ATOM     13  C   UNL     1      11.219   6.063   1.945  0.00  0.00    +0.010 C 
ATOM     14  C   UNL     1      11.065   4.469   0.004  0.00  0.00    +0.123 C 
ATOM     15  C   UNL     1      14.572   6.319  -0.136  0.00  0.00    +0.049 C 
ATOM     16  C   UNL     1      10.331   5.515   0.837  0.00  0.00    +0.032 C 
ATOM     17  C   UNL     1      12.202   8.073   0.789  0.00  0.00    +0.012 C 
ATOM     18  C   UNL     1      14.915   7.207   2.237  0.00  0.00    +0.058 A 
ATOM     20  C   UNL     1      13.122   3.799  -1.259  0.00  0.00    +0.016 C 
ATOM     21  C   UNL     1      15.378   6.908   0.972  0.00  0.00    +0.015 A 
ATOM     24  C   UNL     1      17.002   7.854   2.459  0.00  0.00    +0.165 A 
ATOM     26  C   UNL     1      18.432   8.828   4.239  0.00  0.00    +0.219 C 
ATOM     40  H   UNL     1      18.952   8.346   2.276  0.00  0.00    +0.157 HD
ENDROOT
BRANCH  14   2
ATOM      2  O   UNL     1      10.168   3.953  -0.980  0.00  0.00    -0.391 OA
ATOM     37  H   UNL     1      10.704   3.608  -1.714  0.00  0.00    +0.210 HD
ENDBRANCH  14   2
BRANCH  11  19
ATOM     19  C   UNL     1      12.012   5.917  -1.873  0.00  0.00    +0.165 C 
BRANCH  19   3
ATOM      3  O   UNL     1      11.923   5.094  -3.014  0.00  0.00    -0.394 OA
ATOM     38  H   UNL     1      11.013   5.161  -3.350  0.00  0.00    +0.209 HD
ENDBRANCH  19   3
ENDBRANCH  11  19
BRANCH  12  22
ATOM     22  C   UNL     1      13.016   7.988   3.687  0.00  0.00    +0.106 C 
BRANCH  22  23
ATOM      4  O   UNL     1      13.485   6.964   5.815  0.00  0.00    -0.275 OA
ATOM      7  N   UNL     1      11.263   7.384   5.181  0.00  0.00    -0.285 N 
ATOM     23  C   UNL     1      12.646   7.381   5.024  0.00  0.00    +0.218 C 
ATOM     39  H   UNL     1      10.699   7.762   4.423  0.00  0.00    +0.155 HD
BRANCH   7  25
ATOM     25  C   UNL     1      10.519   6.907   6.286  0.00  0.00    +0.033 A 
ATOM     29  C   UNL     1       9.776   7.795   7.064  0.00  0.00    +0.023 A 
ATOM     30  C   UNL     1      10.526   5.547   6.596  0.00  0.00    +0.023 A 
ATOM     34  C   UNL     1       9.043   7.324   8.152  0.00  0.00    +0.002 A 
ATOM     35  C   UNL     1       9.793   5.075   7.686  0.00  0.00    +0.002 A 
ATOM     36  C   UNL     1       9.051   5.965   8.464  0.00  0.00    +0.000 A 
ENDBRANCH   7  25
ENDBRANCH  22  23
ENDBRANCH  12  22
BRANCH  26  27
ATOM     27  C   UNL     1      19.869   9.301   4.427  0.00  0.00    +0.102 C 
BRANCH  27  28
ATOM     28  C   UNL     1      20.749   8.373   5.299  0.00  0.00    -0.029 C 
ATOM     31  C   UNL     1      22.220   8.818   5.290  0.00  0.00    +0.011 C 
ATOM     32  C   UNL     1      20.667   6.950   4.714  0.00  0.00    +0.011 C 
ATOM     33  C   UNL     1      20.240   8.332   6.750  0.00  0.00    +0.011 C 
ENDBRANCH  27  28
ENDBRANCH  26  27
TORSDOF 8
ENDMDL
