MODEL 1
REMARK VINA RESULT:      -6.5      0.000      0.000
REMARK  Name = 40777339
REMARK  10 active torsions:
REMARK  status: ('A' for Active; 'I' for Inactive)
REMARK    1  A    between atoms: N_4  and  C_24
REMARK    2  A    between atoms: N_4  and  C_25
REMARK    3  A    between atoms: C_6  and  C_10
REMARK    4  A    between atoms: C_7  and  C_12
REMARK    5  A    between atoms: C_10  and  C_20
REMARK    6  A    between atoms: C_11  and  C_16
REMARK    7  A    between atoms: C_12  and  C_22
REMARK    8  A    between atoms: C_16  and  C_21
REMARK    9  A    between atoms: C_24  and  C_26
REMARK   10  A    between atoms: C_25  and  C_27
REMARK                            x       y       z     vdW  Elec       q    Type
REMARK                         _______ _______ _______ _____ _____    ______ ____
ROOT
ATOM      3  N   UNL     1      16.037   3.944   0.920  0.00  0.00    -0.316 NA
ATOM      6  C   UNL     1      13.601   4.261   1.286  0.00  0.00    +0.012 C 
ATOM      7  C   UNL     1      13.368   4.455  -0.231  0.00  0.00    +0.004 C 
ATOM      8  C   UNL     1      14.674   4.944  -0.881  0.00  0.00    +0.019 C 
ATOM      9  C   UNL     1      14.843   3.396   1.565  0.00  0.00    +0.085 C 
ATOM     13  C   UNL     1      15.869   4.059  -0.527  0.00  0.00    +0.081 C 
ATOM     28  H   UNL     1      16.835   3.340   1.120  0.00  0.00    +0.122 HD
ENDROOT
BRANCH   6  10
ATOM     10  C   UNL     1      12.380   3.697   2.012  0.00  0.00    +0.064 C 
BRANCH  10  20
ATOM      1  O   UNL     1      11.286   6.674   3.716  0.00  0.00    -0.359 OA
ATOM      5  N   UNL     1      12.249   5.914   3.062  0.00  0.00    -0.083 NA
ATOM     20  C   UNL     1      11.631   4.774   2.742  0.00  0.00    +0.084 A 
ATOM     21  C   UNL     1      10.124   5.974   3.771  0.00  0.00    +0.138 A 
ATOM     23  C   UNL     1      10.290   4.757   3.164  0.00  0.00    +0.071 A 
BRANCH  21  16
ATOM     16  C   UNL     1       8.993   6.634   4.432  0.00  0.00    +0.080 C 
BRANCH  16  11
ATOM     11  C   UNL     1       8.834   6.232   5.897  0.00  0.00    -0.004 C 
ATOM     14  C   UNL     1       9.806   5.101   6.258  0.00  0.00    +0.004 C 
ATOM     15  C   UNL     1       9.041   7.445   6.816  0.00  0.00    +0.004 C 
ATOM     17  C   UNL     1       9.704   4.718   7.732  0.00  0.00    +0.000 C 
ATOM     18  C   UNL     1       8.941   7.058   8.289  0.00  0.00    +0.000 C 
ATOM     19  C   UNL     1       9.902   5.926   8.643  0.00  0.00    +0.000 C 
ENDBRANCH  16  11
ENDBRANCH  21  16
ENDBRANCH  10  20
ENDBRANCH   6  10
BRANCH   7  12
ATOM     12  C   UNL     1      12.839   3.206  -0.946  0.00  0.00    +0.100 C 
BRANCH  12  22
ATOM      2  O   UNL     1      10.513   3.782  -0.912  0.00  0.00    -0.276 OA
ATOM      4  N   UNL     1      11.423   3.237  -2.975  0.00  0.00    -0.302 N 
ATOM     22  C   UNL     1      11.483   3.438  -1.592  0.00  0.00    +0.216 C 
BRANCH   4  24
ATOM     24  C   UNL     1      10.193   3.421  -3.738  0.00  0.00    +0.104 C 
ATOM     26  C   UNL     1       9.429   2.121  -3.876  0.00  0.00    +0.024 C 
ENDBRANCH   4  24
BRANCH   4  25
ATOM     25  C   UNL     1      12.586   2.830  -3.759  0.00  0.00    +0.104 C 
ATOM     27  C   UNL     1      13.254   4.019  -4.418  0.00  0.00    +0.024 C 
ENDBRANCH   4  25
ENDBRANCH  12  22
ENDBRANCH   7  12
TORSDOF 8
ENDMDL
MODEL 2
REMARK VINA RESULT:      -6.3     18.534     21.559
REMARK  Name = 40777339
REMARK  10 active torsions:
REMARK  status: ('A' for Active; 'I' for Inactive)
REMARK    1  A    between atoms: N_4  and  C_24
REMARK    2  A    between atoms: N_4  and  C_25
REMARK    3  A    between atoms: C_6  and  C_10
REMARK    4  A    between atoms: C_7  and  C_12
REMARK    5  A    between atoms: C_10  and  C_20
REMARK    6  A    between atoms: C_11  and  C_16
REMARK    7  A    between atoms: C_12  and  C_22
REMARK    8  A    between atoms: C_16  and  C_21
REMARK    9  A    between atoms: C_24  and  C_26
REMARK   10  A    between atoms: C_25  and  C_27
REMARK                            x       y       z     vdW  Elec       q    Type
REMARK                         _______ _______ _______ _____ _____    ______ ____
ROOT
ATOM      3  N   UNL     1      16.826   9.436  22.067  0.00  0.00    -0.316 NA
ATOM      6  C   UNL     1      17.119   7.236  20.953  0.00  0.00    +0.012 C 
ATOM      7  C   UNL     1      15.589   7.005  20.941  0.00  0.00    +0.004 C 
ATOM      8  C   UNL     1      14.948   7.831  22.069  0.00  0.00    +0.019 C 
ATOM      9  C   UNL     1      17.468   8.735  20.955  0.00  0.00    +0.085 C 
ATOM     13  C   UNL     1      15.371   9.299  22.029  0.00  0.00    +0.081 C 
ATOM     28  H   UNL     1      17.073  10.425  22.029  0.00  0.00    +0.122 HD
ENDROOT
BRANCH   6  10
ATOM     10  C   UNL     1      17.843   6.518  19.814  0.00  0.00    +0.064 C 
BRANCH  10  20
ATOM      1  O   UNL     1      20.523   4.204  20.465  0.00  0.00    -0.359 OA
ATOM      5  N   UNL     1      19.369   4.593  19.794  0.00  0.00    -0.083 NA
ATOM     20  C   UNL     1      19.054   5.785  20.310  0.00  0.00    +0.084 A 
ATOM     21  C   UNL     1      20.868   5.166  21.359  0.00  0.00    +0.138 A 
ATOM     23  C   UNL     1      19.965   6.195  21.300  0.00  0.00    +0.071 A 
BRANCH  21  16
ATOM     16  C   UNL     1      22.072   4.916  22.158  0.00  0.00    +0.080 C 
BRANCH  16  11
ATOM     11  C   UNL     1      22.462   3.440  22.214  0.00  0.00    -0.004 C 
ATOM     14  C   UNL     1      23.563   3.130  21.192  0.00  0.00    +0.004 C 
ATOM     15  C   UNL     1      22.905   3.050  23.631  0.00  0.00    +0.004 C 
ATOM     17  C   UNL     1      24.008   1.671  21.266  0.00  0.00    +0.000 C 
ATOM     18  C   UNL     1      23.351   1.592  23.701  0.00  0.00    +0.000 C 
ATOM     19  C   UNL     1      24.439   1.285  22.677  0.00  0.00    +0.000 C 
ENDBRANCH  16  11
ENDBRANCH  21  16
ENDBRANCH  10  20
ENDBRANCH   6  10
BRANCH   7  12
ATOM     12  C   UNL     1      14.922   7.310  19.595  0.00  0.00    +0.100 C 
BRANCH  12  22
ATOM      2  O   UNL     1      12.812   6.274  20.054  0.00  0.00    -0.276 OA
ATOM      4  N   UNL     1      12.755   8.471  19.313  0.00  0.00    -0.302 N 
ATOM     22  C   UNL     1      13.406   7.288  19.680  0.00  0.00    +0.216 C 
BRANCH   4  24
ATOM     24  C   UNL     1      11.303   8.605  19.342  0.00  0.00    +0.104 C 
ATOM     26  C   UNL     1      10.762   8.462  20.749  0.00  0.00    +0.024 C 
ENDBRANCH   4  24
BRANCH   4  25
ATOM     25  C   UNL     1      13.480   9.660  18.872  0.00  0.00    +0.104 C 
ATOM     27  C   UNL     1      13.061  10.886  19.656  0.00  0.00    +0.024 C 
ENDBRANCH   4  25
ENDBRANCH  12  22
ENDBRANCH   7  12
TORSDOF 8
ENDMDL
MODEL 3
REMARK VINA RESULT:      -6.3     24.325     28.007
REMARK  Name = 40777339
REMARK  10 active torsions:
REMARK  status: ('A' for Active; 'I' for Inactive)
REMARK    1  A    between atoms: N_4  and  C_24
REMARK    2  A    between atoms: N_4  and  C_25
REMARK    3  A    between atoms: C_6  and  C_10
REMARK    4  A    between atoms: C_7  and  C_12
REMARK    5  A    between atoms: C_10  and  C_20
REMARK    6  A    between atoms: C_11  and  C_16
REMARK    7  A    between atoms: C_12  and  C_22
REMARK    8  A    between atoms: C_16  and  C_21
REMARK    9  A    between atoms: C_24  and  C_26
REMARK   10  A    between atoms: C_25  and  C_27
REMARK                            x       y       z     vdW  Elec       q    Type
REMARK                         _______ _______ _______ _____ _____    ______ ____
ROOT
ATOM      3  N   UNL     1      -5.814 -14.229  17.467  0.00  0.00    -0.316 NA
ATOM      6  C   UNL     1      -4.887 -12.052  16.711  0.00  0.00    +0.012 C 
ATOM      7  C   UNL     1      -6.310 -11.455  16.593  0.00  0.00    +0.004 C 
ATOM      8  C   UNL     1      -7.319 -12.597  16.383  0.00  0.00    +0.019 C 
ATOM      9  C   UNL     1      -4.831 -13.183  17.753  0.00  0.00    +0.085 C 
ATOM     13  C   UNL     1      -7.176 -13.700  17.431  0.00  0.00    +0.081 C 
ATOM     28  H   UNL     1      -5.752 -14.954  18.182  0.00  0.00    +0.122 HD
ENDROOT
BRANCH   6  10
ATOM     10  C   UNL     1      -3.818 -11.000  17.003  0.00  0.00    +0.064 C 
BRANCH  10  20
ATOM      1  O   UNL     1      -1.220 -10.211  14.638  0.00  0.00    -0.359 OA
ATOM      5  N   UNL     1      -1.689 -10.397  15.933  0.00  0.00    -0.083 NA
ATOM     20  C   UNL     1      -2.978 -10.722  15.790  0.00  0.00    +0.084 A 
ATOM     21  C   UNL     1      -2.231 -10.429  13.759  0.00  0.00    +0.138 A 
ATOM     23  C   UNL     1      -3.373 -10.757  14.441  0.00  0.00    +0.071 A 
BRANCH  21  16
ATOM     16  C   UNL     1      -1.907 -10.275  12.336  0.00  0.00    +0.080 C 
BRANCH  16  11
ATOM     11  C   UNL     1      -3.142 -10.240  11.438  0.00  0.00    -0.004 C 
ATOM     14  C   UNL     1      -2.989  -9.173  10.346  0.00  0.00    +0.004 C 
ATOM     15  C   UNL     1      -3.400 -11.622  10.820  0.00  0.00    +0.004 C 
ATOM     17  C   UNL     1      -4.188  -9.156   9.402  0.00  0.00    +0.000 C 
ATOM     18  C   UNL     1      -4.599 -11.601   9.875  0.00  0.00    +0.000 C 
ATOM     19  C   UNL     1      -4.448 -10.532   8.796  0.00  0.00    +0.000 C 
ENDBRANCH  16  11
ENDBRANCH  21  16
ENDBRANCH  10  20
ENDBRANCH   6  10
BRANCH   7  12
ATOM     12  C   UNL     1      -6.719 -10.577  17.781  0.00  0.00    +0.100 C 
BRANCH  12  22
ATOM      2  O   UNL     1      -8.023  -8.951  16.599  0.00  0.00    -0.276 OA
ATOM      4  N   UNL     1      -9.073 -10.064  18.342  0.00  0.00    -0.302 N 
ATOM     22  C   UNL     1      -7.986  -9.784  17.508  0.00  0.00    +0.216 C 
BRANCH   4  24
ATOM     24  C   UNL     1     -10.357  -9.386  18.205  0.00  0.00    +0.104 C 
ATOM     26  C   UNL     1     -11.079  -9.817  16.946  0.00  0.00    +0.024 C 
ENDBRANCH   4  24
BRANCH   4  25
ATOM     25  C   UNL     1      -9.006 -11.055  19.413  0.00  0.00    +0.104 C 
ATOM     27  C   UNL     1      -9.991 -12.184  19.186  0.00  0.00    +0.024 C 
ENDBRANCH   4  25
ENDBRANCH  12  22
ENDBRANCH   7  12
TORSDOF 8
ENDMDL
MODEL 4
REMARK VINA RESULT:      -6.3     18.071     21.153
REMARK  Name = 40777339
REMARK  10 active torsions:
REMARK  status: ('A' for Active; 'I' for Inactive)
REMARK    1  A    between atoms: N_4  and  C_24
REMARK    2  A    between atoms: N_4  and  C_25
REMARK    3  A    between atoms: C_6  and  C_10
REMARK    4  A    between atoms: C_7  and  C_12
REMARK    5  A    between atoms: C_10  and  C_20
REMARK    6  A    between atoms: C_11  and  C_16
REMARK    7  A    between atoms: C_12  and  C_22
REMARK    8  A    between atoms: C_16  and  C_21
REMARK    9  A    between atoms: C_24  and  C_26
REMARK   10  A    between atoms: C_25  and  C_27
REMARK                            x       y       z     vdW  Elec       q    Type
REMARK                         _______ _______ _______ _____ _____    ______ ____
ROOT
ATOM      3  N   UNL     1      20.922   9.202  21.500  0.00  0.00    -0.316 NA
ATOM      6  C   UNL     1      19.884   7.075  20.745  0.00  0.00    +0.012 C 
ATOM      7  C   UNL     1      21.272   6.398  20.648  0.00  0.00    +0.004 C 
ATOM      8  C   UNL     1      22.346   7.481  20.444  0.00  0.00    +0.019 C 
ATOM      9  C   UNL     1      19.879   8.214  21.779  0.00  0.00    +0.085 C 
ATOM     13  C   UNL     1      22.252   8.597  21.484  0.00  0.00    +0.081 C 
ATOM     28  H   UNL     1      20.892   9.933  22.210  0.00  0.00    +0.122 HD
ENDROOT
BRANCH   6  10
ATOM     10  C   UNL     1      18.754   6.086  21.029  0.00  0.00    +0.064 C 
BRANCH  10  20
ATOM      1  O   UNL     1      16.337   6.024  18.361  0.00  0.00    -0.359 OA
ATOM      5  N   UNL     1      17.507   5.587  18.971  0.00  0.00    -0.083 NA
ATOM     20  C   UNL     1      17.595   6.298  20.099  0.00  0.00    +0.084 A 
ATOM     21  C   UNL     1      15.758   6.978  19.133  0.00  0.00    +0.138 A 
ATOM     23  C   UNL     1      16.519   7.190  20.252  0.00  0.00    +0.071 A 
BRANCH  21  16
ATOM     16  C   UNL     1      14.504   7.553  18.633  0.00  0.00    +0.080 C 
BRANCH  16  11
ATOM     11  C   UNL     1      13.514   7.897  19.745  0.00  0.00    -0.004 C 
ATOM     14  C   UNL     1      12.655   9.105  19.352  0.00  0.00    +0.004 C 
ATOM     15  C   UNL     1      12.634   6.685  20.081  0.00  0.00    +0.004 C 
ATOM     17  C   UNL     1      11.621   9.436  20.426  0.00  0.00    +0.000 C 
ATOM     18  C   UNL     1      11.600   7.020  21.154  0.00  0.00    +0.000 C 
ATOM     19  C   UNL     1      10.753   8.227  20.764  0.00  0.00    +0.000 C 
ENDBRANCH  16  11
ENDBRANCH  21  16
ENDBRANCH  10  20
ENDBRANCH   6  10
BRANCH   7  12
ATOM     12  C   UNL     1      21.617   5.507  21.847  0.00  0.00    +0.100 C 
BRANCH  12  22
ATOM      2  O   UNL     1      21.127   3.333  20.965  0.00  0.00    -0.276 OA
ATOM      4  N   UNL     1      23.319   3.726  21.614  0.00  0.00    -0.302 N 
ATOM     22  C   UNL     1      21.981   4.091  21.431  0.00  0.00    +0.216 C 
BRANCH   4  24
ATOM     24  C   UNL     1      23.822   2.402  21.264  0.00  0.00    +0.104 C 
ATOM     26  C   UNL     1      24.828   2.473  20.135  0.00  0.00    +0.024 C 
ENDBRANCH   4  24
BRANCH   4  25
ATOM     25  C   UNL     1      24.313   4.641  22.168  0.00  0.00    +0.104 C 
ATOM     27  C   UNL     1      24.765   4.201  23.545  0.00  0.00    +0.024 C 
ENDBRANCH   4  25
ENDBRANCH  12  22
ENDBRANCH   7  12
TORSDOF 8
ENDMDL
MODEL 5
REMARK VINA RESULT:      -6.2     24.294     27.973
REMARK  Name = 40777339
REMARK  10 active torsions:
REMARK  status: ('A' for Active; 'I' for Inactive)
REMARK    1  A    between atoms: N_4  and  C_24
REMARK    2  A    between atoms: N_4  and  C_25
REMARK    3  A    between atoms: C_6  and  C_10
REMARK    4  A    between atoms: C_7  and  C_12
REMARK    5  A    between atoms: C_10  and  C_20
REMARK    6  A    between atoms: C_11  and  C_16
REMARK    7  A    between atoms: C_12  and  C_22
REMARK    8  A    between atoms: C_16  and  C_21
REMARK    9  A    between atoms: C_24  and  C_26
REMARK   10  A    between atoms: C_25  and  C_27
REMARK                            x       y       z     vdW  Elec       q    Type
REMARK                         _______ _______ _______ _____ _____    ______ ____
ROOT
ATOM      3  N   UNL     1      -6.632 -11.439  19.847  0.00  0.00    -0.316 NA
ATOM      6  C   UNL     1      -5.687 -10.864  17.624  0.00  0.00    +0.012 C 
ATOM      7  C   UNL     1      -7.102 -10.833  16.997  0.00  0.00    +0.004 C 
ATOM      8  C   UNL     1      -8.042 -11.714  17.837  0.00  0.00    +0.019 C 
ATOM      9  C   UNL     1      -5.724 -10.545  19.128  0.00  0.00    +0.085 C 
ATOM     13  C   UNL     1      -7.995 -11.365  19.324  0.00  0.00    +0.081 C 
ATOM     28  H   UNL     1      -6.636 -11.191  20.836  0.00  0.00    +0.122 HD
ENDROOT
BRANCH   6  10
ATOM     10  C   UNL     1      -4.693  -9.952  16.905  0.00  0.00    +0.064 C 
BRANCH  10  20
ATOM      1  O   UNL     1      -2.083 -11.702  15.148  0.00  0.00    -0.359 OA
ATOM      5  N   UNL     1      -2.567 -10.987  16.238  0.00  0.00    -0.083 NA
ATOM     20  C   UNL     1      -3.842 -10.722  15.938  0.00  0.00    +0.084 A 
ATOM     21  C   UNL     1      -3.072 -11.845  14.230  0.00  0.00    +0.138 A 
ATOM     23  C   UNL     1      -4.214 -11.240  14.685  0.00  0.00    +0.071 A 
BRANCH  21  16
ATOM     16  C   UNL     1      -2.730 -12.581  13.008  0.00  0.00    +0.080 C 
BRANCH  16  11
ATOM     11  C   UNL     1      -2.613 -11.683  11.778  0.00  0.00    -0.004 C 
ATOM     14  C   UNL     1      -3.982 -11.492  11.113  0.00  0.00    +0.004 C 
ATOM     15  C   UNL     1      -1.993 -10.329  12.152  0.00  0.00    +0.004 C 
ATOM     17  C   UNL     1      -3.900 -10.554   9.911  0.00  0.00    +0.000 C 
ATOM     18  C   UNL     1      -1.914  -9.394  10.949  0.00  0.00    +0.000 C 
ATOM     19  C   UNL     1      -3.276  -9.213  10.285  0.00  0.00    +0.000 C 
ENDBRANCH  16  11
ENDBRANCH  21  16
ENDBRANCH  10  20
ENDBRANCH   6  10
BRANCH   7  12
ATOM     12  C   UNL     1      -7.680  -9.423  16.832  0.00  0.00    +0.100 C 
BRANCH  12  22
ATOM      2  O   UNL     1      -8.552  -9.673  14.614  0.00  0.00    -0.276 OA
ATOM      4  N   UNL     1     -10.036  -8.951  16.244  0.00  0.00    -0.302 N 
ATOM     22  C   UNL     1      -8.781  -9.366  15.787  0.00  0.00    +0.216 C 
BRANCH   4  24
ATOM     24  C   UNL     1     -11.193  -8.846  15.362  0.00  0.00    +0.104 C 
ATOM     26  C   UNL     1     -11.459  -7.408  14.967  0.00  0.00    +0.024 C 
ENDBRANCH   4  24
BRANCH   4  25
ATOM     25  C   UNL     1     -10.283  -8.592  17.638  0.00  0.00    +0.104 C 
ATOM     27  C   UNL     1     -11.277  -9.534  18.285  0.00  0.00    +0.024 C 
ENDBRANCH   4  25
ENDBRANCH  12  22
ENDBRANCH   7  12
TORSDOF 8
ENDMDL
MODEL 6
REMARK VINA RESULT:      -6.0     39.018     41.039
REMARK  Name = 40777339
REMARK  10 active torsions:
REMARK  status: ('A' for Active; 'I' for Inactive)
REMARK    1  A    between atoms: N_4  and  C_24
REMARK    2  A    between atoms: N_4  and  C_25
REMARK    3  A    between atoms: C_6  and  C_10
REMARK    4  A    between atoms: C_7  and  C_12
REMARK    5  A    between atoms: C_10  and  C_20
REMARK    6  A    between atoms: C_11  and  C_16
REMARK    7  A    between atoms: C_12  and  C_22
REMARK    8  A    between atoms: C_16  and  C_21
REMARK    9  A    between atoms: C_24  and  C_26
REMARK   10  A    between atoms: C_25  and  C_27
REMARK                            x       y       z     vdW  Elec       q    Type
REMARK                         _______ _______ _______ _____ _____    ______ ____
ROOT
ATOM      3  N   UNL     1     -13.366  10.255  31.517  0.00  0.00    -0.316 NA
ATOM      6  C   UNL     1     -13.731   8.160  32.800  0.00  0.00    +0.012 C 
ATOM      7  C   UNL     1     -12.412   8.372  33.580  0.00  0.00    +0.004 C 
ATOM      8  C   UNL     1     -11.468   9.251  32.741  0.00  0.00    +0.019 C 
ATOM      9  C   UNL     1     -14.327   9.494  32.316  0.00  0.00    +0.085 C 
ATOM     13  C   UNL     1     -12.141  10.538  32.264  0.00  0.00    +0.081 C 
ATOM     28  H   UNL     1     -13.792  11.133  31.223  0.00  0.00    +0.122 HD
ENDROOT
BRANCH   6  10
ATOM     10  C   UNL     1     -14.771   7.362  33.587  0.00  0.00    +0.064 C 
BRANCH  10  20
ATOM      1  O   UNL     1     -14.506   3.808  34.100  0.00  0.00    -0.359 OA
ATOM      5  N   UNL     1     -14.892   5.083  34.498  0.00  0.00    -0.083 NA
ATOM     20  C   UNL     1     -14.510   5.887  33.500  0.00  0.00    +0.084 A 
ATOM     21  C   UNL     1     -13.907   3.880  32.884  0.00  0.00    +0.138 A 
ATOM     23  C   UNL     1     -13.884   5.182  32.457  0.00  0.00    +0.071 A 
BRANCH  21  16
ATOM     16  C   UNL     1     -13.435   2.615  32.310  0.00  0.00    +0.080 C 
BRANCH  16  11
ATOM     11  C   UNL     1     -14.136   2.247  31.004  0.00  0.00    -0.004 C 
ATOM     14  C   UNL     1     -13.955   0.757  30.691  0.00  0.00    +0.004 C 
ATOM     15  C   UNL     1     -15.625   2.617  31.065  0.00  0.00    +0.004 C 
ATOM     17  C   UNL     1     -14.692   0.353  29.417  0.00  0.00    +0.000 C 
ATOM     18  C   UNL     1     -16.359   2.211  29.790  0.00  0.00    +0.000 C 
ATOM     19  C   UNL     1     -16.170   0.730  29.477  0.00  0.00    +0.000 C 
ENDBRANCH  16  11
ENDBRANCH  21  16
ENDBRANCH  10  20
ENDBRANCH   6  10
BRANCH   7  12
ATOM     12  C   UNL     1     -12.604   8.963  34.982  0.00  0.00    +0.100 C 
BRANCH  12  22
ATOM      2  O   UNL     1     -12.614   7.048  36.422  0.00  0.00    -0.276 OA
ATOM      4  N   UNL     1     -10.813   8.496  36.624  0.00  0.00    -0.302 N 
ATOM     22  C   UNL     1     -12.026   8.073  36.070  0.00  0.00    +0.216 C 
BRANCH   4  24
ATOM     24  C   UNL     1     -10.134   7.750  37.677  0.00  0.00    +0.104 C 
ATOM     26  C   UNL     1     -10.281   8.430  39.022  0.00  0.00    +0.024 C 
ENDBRANCH   4  24
BRANCH   4  25
ATOM     25  C   UNL     1     -10.136   9.715  36.191  0.00  0.00    +0.104 C 
ATOM     27  C   UNL     1      -8.724   9.428  35.723  0.00  0.00    +0.024 C 
ENDBRANCH   4  25
ENDBRANCH  12  22
ENDBRANCH   7  12
TORSDOF 8
ENDMDL
MODEL 7
REMARK VINA RESULT:      -6.0     38.238     40.666
REMARK  Name = 40777339
REMARK  10 active torsions:
REMARK  status: ('A' for Active; 'I' for Inactive)
REMARK    1  A    between atoms: N_4  and  C_24
REMARK    2  A    between atoms: N_4  and  C_25
REMARK    3  A    between atoms: C_6  and  C_10
REMARK    4  A    between atoms: C_7  and  C_12
REMARK    5  A    between atoms: C_10  and  C_20
REMARK    6  A    between atoms: C_11  and  C_16
REMARK    7  A    between atoms: C_12  and  C_22
REMARK    8  A    between atoms: C_16  and  C_21
REMARK    9  A    between atoms: C_24  and  C_26
REMARK   10  A    between atoms: C_25  and  C_27
REMARK                            x       y       z     vdW  Elec       q    Type
REMARK                         _______ _______ _______ _____ _____    ______ ____
ROOT
ATOM      3  N   UNL     1     -13.921   9.602  30.828  0.00  0.00    -0.316 NA
ATOM      6  C   UNL     1     -13.218   8.228  32.774  0.00  0.00    +0.012 C 
ATOM      7  C   UNL     1     -11.775   8.777  32.679  0.00  0.00    +0.004 C 
ATOM      8  C   UNL     1     -11.510   9.247  31.237  0.00  0.00    +0.019 C 
ATOM      9  C   UNL     1     -14.244   9.223  32.204  0.00  0.00    +0.085 C 
ATOM     13  C   UNL     1     -12.591  10.200  30.727  0.00  0.00    +0.081 C 
ATOM     28  H   UNL     1     -14.616  10.267  30.489  0.00  0.00    +0.122 HD
ENDROOT
BRANCH   6  10
ATOM     10  C   UNL     1     -13.607   7.808  34.191  0.00  0.00    +0.064 C 
BRANCH  10  20
ATOM      1  O   UNL     1     -14.254   4.388  35.113  0.00  0.00    -0.359 OA
ATOM      5  N   UNL     1     -13.846   5.685  35.405  0.00  0.00    -0.083 NA
ATOM     20  C   UNL     1     -13.966   6.352  34.253  0.00  0.00    +0.084 A 
ATOM     21  C   UNL     1     -14.605   4.312  33.804  0.00  0.00    +0.138 A 
ATOM     23  C   UNL     1     -14.440   5.536  33.211  0.00  0.00    +0.071 A 
BRANCH  21  16
ATOM     16  C   UNL     1     -15.065   3.004  33.324  0.00  0.00    +0.080 C 
BRANCH  16  11
ATOM     11  C   UNL     1     -14.786   2.776  31.839  0.00  0.00    -0.004 C 
ATOM     14  C   UNL     1     -14.301   1.342  31.592  0.00  0.00    +0.004 C 
ATOM     15  C   UNL     1     -16.036   3.084  31.001  0.00  0.00    +0.004 C 
ATOM     17  C   UNL     1     -14.068   1.074  30.107  0.00  0.00    +0.000 C 
ATOM     18  C   UNL     1     -15.799   2.812  29.518  0.00  0.00    +0.000 C 
ATOM     19  C   UNL     1     -15.308   1.388  29.276  0.00  0.00    +0.000 C 
ENDBRANCH  16  11
ENDBRANCH  21  16
ENDBRANCH  10  20
ENDBRANCH   6  10
BRANCH   7  12
ATOM     12  C   UNL     1     -11.466   9.895  33.681  0.00  0.00    +0.100 C 
BRANCH  12  22
ATOM      2  O   UNL     1      -9.076   9.984  33.531  0.00  0.00    -0.276 OA
ATOM      4  N   UNL     1      -9.972   9.474  35.608  0.00  0.00    -0.302 N 
ATOM     22  C   UNL     1     -10.060   9.793  34.249  0.00  0.00    +0.216 C 
BRANCH   4  24
ATOM     24  C   UNL     1      -8.694   9.340  36.298  0.00  0.00    +0.104 C 
ATOM     26  C   UNL     1      -8.364  10.581  37.100  0.00  0.00    +0.024 C 
ENDBRANCH   4  24
BRANCH   4  25
ATOM     25  C   UNL     1     -11.153   9.252  36.440  0.00  0.00    +0.104 C 
ATOM     27  C   UNL     1     -11.191   7.837  36.980  0.00  0.00    +0.024 C 
ENDBRANCH   4  25
ENDBRANCH  12  22
ENDBRANCH   7  12
TORSDOF 8
ENDMDL
MODEL 8
REMARK VINA RESULT:      -5.9     26.847     29.234
REMARK  Name = 40777339
REMARK  10 active torsions:
REMARK  status: ('A' for Active; 'I' for Inactive)
REMARK    1  A    between atoms: N_4  and  C_24
REMARK    2  A    between atoms: N_4  and  C_25
REMARK    3  A    between atoms: C_6  and  C_10
REMARK    4  A    between atoms: C_7  and  C_12
REMARK    5  A    between atoms: C_10  and  C_20
REMARK    6  A    between atoms: C_11  and  C_16
REMARK    7  A    between atoms: C_12  and  C_22
REMARK    8  A    between atoms: C_16  and  C_21
REMARK    9  A    between atoms: C_24  and  C_26
REMARK   10  A    between atoms: C_25  and  C_27
REMARK                            x       y       z     vdW  Elec       q    Type
REMARK                         _______ _______ _______ _____ _____    ______ ____
ROOT
ATOM      3  N   UNL     1      -9.573 -10.773  14.716  0.00  0.00    -0.316 NA
ATOM      6  C   UNL     1     -10.065  -9.273  16.634  0.00  0.00    +0.012 C 
ATOM      7  C   UNL     1      -9.099 -10.070  17.543  0.00  0.00    +0.004 C 
ATOM      8  C   UNL     1      -8.961 -11.502  16.996  0.00  0.00    +0.019 C 
ATOM      9  C   UNL     1      -9.667  -9.379  15.151  0.00  0.00    +0.085 C 
ATOM     13  C   UNL     1      -8.605 -11.526  15.510  0.00  0.00    +0.081 C 
ATOM     28  H   UNL     1      -9.300 -10.802  13.734  0.00  0.00    +0.122 HD
ENDROOT
BRANCH   6  10
ATOM     10  C   UNL     1     -10.207  -7.809  17.048  0.00  0.00    +0.064 C 
BRANCH  10  20
ATOM      1  O   UNL     1     -13.205  -6.651  15.425  0.00  0.00    -0.359 OA
ATOM      5  N   UNL     1     -12.524  -7.499  16.291  0.00  0.00    -0.083 NA
ATOM     20  C   UNL     1     -11.248  -7.105  16.227  0.00  0.00    +0.084 A 
ATOM     21  C   UNL     1     -12.327  -5.778  14.869  0.00  0.00    +0.138 A 
ATOM     23  C   UNL     1     -11.066  -6.024  15.347  0.00  0.00    +0.071 A 
BRANCH  21  16
ATOM     16  C   UNL     1     -12.882  -4.804  13.923  0.00  0.00    +0.080 C 
BRANCH  16  11
ATOM     11  C   UNL     1     -12.168  -4.801  12.573  0.00  0.00    -0.004 C 
ATOM     14  C   UNL     1     -12.614  -5.997  11.721  0.00  0.00    +0.004 C 
ATOM     15  C   UNL     1     -12.415  -3.479  11.832  0.00  0.00    +0.004 C 
ATOM     17  C   UNL     1     -11.954  -5.987  10.344  0.00  0.00    +0.000 C 
ATOM     18  C   UNL     1     -11.755  -3.474  10.455  0.00  0.00    +0.000 C 
ATOM     19  C   UNL     1     -12.193  -4.669   9.614  0.00  0.00    +0.000 C 
ENDBRANCH  16  11
ENDBRANCH  21  16
ENDBRANCH  10  20
ENDBRANCH   6  10
BRANCH   7  12
ATOM     12  C   UNL     1      -7.723  -9.417  17.715  0.00  0.00    +0.100 C 
BRANCH  12  22
ATOM      2  O   UNL     1      -7.101 -10.581  19.715  0.00  0.00    -0.276 OA
ATOM      4  N   UNL     1      -5.574 -10.618  17.970  0.00  0.00    -0.302 N 
ATOM     22  C   UNL     1      -6.786 -10.255  18.568  0.00  0.00    +0.216 C 
BRANCH   4  24
ATOM     24  C   UNL     1      -4.572 -11.421  18.661  0.00  0.00    +0.104 C 
ATOM     26  C   UNL     1      -4.826 -12.902  18.478  0.00  0.00    +0.024 C 
ENDBRANCH   4  24
BRANCH   4  25
ATOM     25  C   UNL     1      -5.222 -10.220  16.609  0.00  0.00    +0.104 C 
ATOM     27  C   UNL     1      -3.739 -10.389  16.349  0.00  0.00    +0.024 C 
ENDBRANCH   4  25
ENDBRANCH  12  22
ENDBRANCH   7  12
TORSDOF 8
ENDMDL
MODEL 9
REMARK VINA RESULT:      -5.8     24.079     27.556
REMARK  Name = 40777339
REMARK  10 active torsions:
REMARK  status: ('A' for Active; 'I' for Inactive)
REMARK    1  A    between atoms: N_4  and  C_24
REMARK    2  A    between atoms: N_4  and  C_25
REMARK    3  A    between atoms: C_6  and  C_10
REMARK    4  A    between atoms: C_7  and  C_12
REMARK    5  A    between atoms: C_10  and  C_20
REMARK    6  A    between atoms: C_11  and  C_16
REMARK    7  A    between atoms: C_12  and  C_22
REMARK    8  A    between atoms: C_16  and  C_21
REMARK    9  A    between atoms: C_24  and  C_26
REMARK   10  A    between atoms: C_25  and  C_27
REMARK                            x       y       z     vdW  Elec       q    Type
REMARK                         _______ _______ _______ _____ _____    ______ ____
ROOT
ATOM      3  N   UNL     1      -6.433 -11.260  20.140  0.00  0.00    -0.316 NA
ATOM      6  C   UNL     1      -5.545 -11.123  17.824  0.00  0.00    +0.012 C 
ATOM      7  C   UNL     1      -6.598 -12.143  17.329  0.00  0.00    +0.004 C 
ATOM      8  C   UNL     1      -7.049 -13.015  18.513  0.00  0.00    +0.019 C 
ATOM      9  C   UNL     1      -6.038 -10.353  19.062  0.00  0.00    +0.085 C 
ATOM     13  C   UNL     1      -7.486 -12.181  19.717  0.00  0.00    +0.081 C 
ATOM     28  H   UNL     1      -6.761 -10.714  20.936  0.00  0.00    +0.122 HD
ENDROOT
BRANCH   6  10
ATOM     10  C   UNL     1      -5.090 -10.153  16.734  0.00  0.00    +0.064 C 
BRANCH  10  20
ATOM      1  O   UNL     1      -1.958 -11.247  15.335  0.00  0.00    -0.359 OA
ATOM      5  N   UNL     1      -2.712 -10.601  16.308  0.00  0.00    -0.083 NA
ATOM     20  C   UNL     1      -3.980 -10.737  15.909  0.00  0.00    +0.084 A 
ATOM     21  C   UNL     1      -2.787 -11.750  14.385  0.00  0.00    +0.138 A 
ATOM     23  C   UNL     1      -4.086 -11.453  14.704  0.00  0.00    +0.071 A 
BRANCH  21  16
ATOM     16  C   UNL     1      -2.152 -12.469  13.275  0.00  0.00    +0.080 C 
BRANCH  16  11
ATOM     11  C   UNL     1      -2.304 -11.757  11.932  0.00  0.00    -0.004 C 
ATOM     14  C   UNL     1      -3.626 -12.147  11.257  0.00  0.00    +0.004 C 
ATOM     15  C   UNL     1      -2.209 -10.235  12.112  0.00  0.00    +0.004 C 
ATOM     17  C   UNL     1      -3.825 -11.407   9.937  0.00  0.00    +0.000 C 
ATOM     18  C   UNL     1      -2.411  -9.499  10.790  0.00  0.00    +0.000 C 
ATOM     19  C   UNL     1      -3.722  -9.895  10.117  0.00  0.00    +0.000 C 
ENDBRANCH  16  11
ENDBRANCH  21  16
ENDBRANCH  10  20
ENDBRANCH   6  10
BRANCH   7  12
ATOM     12  C   UNL     1      -7.804 -11.505  16.631  0.00  0.00    +0.100 C 
BRANCH  12  22
ATOM      2  O   UNL     1      -7.335 -12.641  14.574  0.00  0.00    -0.276 OA
ATOM      4  N   UNL     1      -8.092 -10.455  14.409  0.00  0.00    -0.302 N 
ATOM     22  C   UNL     1      -7.717 -11.602  15.117  0.00  0.00    +0.216 C 
BRANCH   4  24
ATOM     24  C   UNL     1      -8.062 -10.393  12.952  0.00  0.00    +0.104 C 
ATOM     26  C   UNL     1      -6.731  -9.879  12.447  0.00  0.00    +0.024 C 
ENDBRANCH   4  24
BRANCH   4  25
ATOM     25  C   UNL     1      -8.541  -9.235  15.074  0.00  0.00    +0.104 C 
ATOM     27  C   UNL     1     -10.024  -9.004  14.866  0.00  0.00    +0.024 C 
ENDBRANCH   4  25
ENDBRANCH  12  22
ENDBRANCH   7  12
TORSDOF 8
ENDMDL
MODEL 10
REMARK VINA RESULT:      -5.8      3.094      8.360
REMARK  Name = 40777339
REMARK  10 active torsions:
REMARK  status: ('A' for Active; 'I' for Inactive)
REMARK    1  A    between atoms: N_4  and  C_24
REMARK    2  A    between atoms: N_4  and  C_25
REMARK    3  A    between atoms: C_6  and  C_10
REMARK    4  A    between atoms: C_7  and  C_12
REMARK    5  A    between atoms: C_10  and  C_20
REMARK    6  A    between atoms: C_11  and  C_16
REMARK    7  A    between atoms: C_12  and  C_22
REMARK    8  A    between atoms: C_16  and  C_21
REMARK    9  A    between atoms: C_24  and  C_26
REMARK   10  A    between atoms: C_25  and  C_27
REMARK                            x       y       z     vdW  Elec       q    Type
REMARK                         _______ _______ _______ _____ _____    ______ ____
ROOT
ATOM      3  N   UNL     1      15.176   9.876   4.799  0.00  0.00    -0.316 NA
ATOM      6  C   UNL     1      13.638   8.031   4.165  0.00  0.00    +0.012 C 
ATOM      7  C   UNL     1      13.698   7.449   5.597  0.00  0.00    +0.004 C 
ATOM      8  C   UNL     1      15.010   7.895   6.266  0.00  0.00    +0.019 C 
ATOM      9  C   UNL     1      13.903   9.547   4.155  0.00  0.00    +0.085 C 
ATOM     13  C   UNL     1      15.222   9.406   6.182  0.00  0.00    +0.081 C 
ATOM     28  H   UNL     1      15.311  10.886   4.781  0.00  0.00    +0.122 HD
ENDROOT
BRANCH   6  10
ATOM     10  C   UNL     1      12.330   7.710   3.442  0.00  0.00    +0.064 C 
BRANCH  10  20
ATOM      1  O   UNL     1      11.588   4.250   2.779  0.00  0.00    -0.359 OA
ATOM      5  N   UNL     1      11.321   5.470   3.388  0.00  0.00    -0.083 NA
ATOM     20  C   UNL     1      12.298   6.284   2.975  0.00  0.00    +0.084 A 
ATOM     21  C   UNL     1      12.710   4.362   2.022  0.00  0.00    +0.138 A 
ATOM     23  C   UNL     1      13.201   5.638   2.112  0.00  0.00    +0.071 A 
BRANCH  21  16
ATOM     16  C   UNL     1      13.138   3.158   1.302  0.00  0.00    +0.080 C 
BRANCH  16  11
ATOM     11  C   UNL     1      12.832   3.209  -0.193  0.00  0.00    -0.004 C 
ATOM     14  C   UNL     1      11.495   3.914  -0.450  0.00  0.00    +0.004 C 
ATOM     15  C   UNL     1      13.972   3.901  -0.955  0.00  0.00    +0.004 C 
ATOM     17  C   UNL     1      11.193   4.026  -1.943  0.00  0.00    +0.000 C 
ATOM     18  C   UNL     1      13.665   4.013  -2.447  0.00  0.00    +0.000 C 
ATOM     19  C   UNL     1      12.330   4.707  -2.698  0.00  0.00    +0.000 C 
ENDBRANCH  16  11
ENDBRANCH  21  16
ENDBRANCH  10  20
ENDBRANCH   6  10
BRANCH   7  12
ATOM     12  C   UNL     1      12.490   7.813   6.469  0.00  0.00    +0.100 C 
BRANCH  12  22
ATOM      2  O   UNL     1      12.564   5.862   7.858  0.00  0.00    -0.276 OA
ATOM      4  N   UNL     1      10.515   6.390   6.908  0.00  0.00    -0.302 N 
ATOM     22  C   UNL     1      11.877   6.600   7.147  0.00  0.00    +0.216 C 
BRANCH   4  24
ATOM     24  C   UNL     1       9.784   5.269   7.488  0.00  0.00    +0.104 C 
ATOM     26  C   UNL     1       9.383   5.551   8.921  0.00  0.00    +0.024 C 
ENDBRANCH   4  24
BRANCH   4  25
ATOM     25  C   UNL     1       9.721   7.277   6.062  0.00  0.00    +0.104 C 
ATOM     27  C   UNL     1       8.535   6.554   5.458  0.00  0.00    +0.024 C 
ENDBRANCH   4  25
ENDBRANCH  12  22
ENDBRANCH   7  12
TORSDOF 8
ENDMDL
