MODEL 1
REMARK VINA RESULT:      -6.5      0.000      0.000
REMARK  Name = 11913299
REMARK  8 active torsions:
REMARK  status: ('A' for Active; 'I' for Inactive)
REMARK    1  A    between atoms: O_5  and  C_26
REMARK    2  A    between atoms: N_7  and  C_13
REMARK    3  A    between atoms: N_8  and  C_14
REMARK    4  A    between atoms: C_17  and  C_19
REMARK    5  A    between atoms: C_19  and  C_20
REMARK    6  A    between atoms: C_20  and  C_21
REMARK    7  A    between atoms: C_21  and  C_26
REMARK    8  A    between atoms: C_22  and  C_25
REMARK                            x       y       z     vdW  Elec       q    Type
REMARK                         _______ _______ _______ _____ _____    ______ ____
ROOT
ATOM      1  O   UNL     1      13.424   8.940  21.189  0.00  0.00    -0.370 OA
ATOM      2  O   UNL     1      10.426   8.080  21.282  0.00  0.00    -0.370 OA
ATOM     11  C   UNL     1      11.179   8.931  20.401  0.00  0.00    +0.171 C 
ATOM     12  C   UNL     1      12.191   9.676  21.250  0.00  0.00    +0.171 C 
ATOM     13  C   UNL     1      12.026   8.099  19.465  0.00  0.00    +0.130 C 
ATOM     14  C   UNL     1      11.615   9.620  22.645  0.00  0.00    +0.130 C 
ATOM     15  C   UNL     1      13.261   7.822  20.304  0.00  0.00    +0.185 C 
ATOM     16  C   UNL     1      10.845   8.312  22.635  0.00  0.00    +0.185 C 
ENDROOT
BRANCH  14   8
ATOM      8  N   UNL     1      10.713  10.730  22.854  0.00  0.00    -0.306 N 
ATOM      9  N   UNL     1      12.076  11.653  24.492  0.00  0.00    -0.211 NA
ATOM     10  N   UNL     1      10.006  12.707  23.847  0.00  0.00    -0.223 NA
ATOM     18  C   UNL     1      10.942  11.740  23.771  0.00  0.00    +0.216 A 
ATOM     22  C   UNL     1      12.268  12.655  25.374  0.00  0.00    +0.111 A 
ATOM     23  C   UNL     1      10.262  13.676  24.750  0.00  0.00    +0.116 A 
ATOM     24  C   UNL     1      11.388  13.704  25.549  0.00  0.00    +0.051 A 
ATOM     31  H   UNL     1       9.886  10.817  22.273  0.00  0.00    +0.149 HD
BRANCH  22  25
ATOM      4  O   UNL     1      14.152  11.382  26.024  0.00  0.00    -0.461 OA
ATOM     25  C   UNL     1      13.482  12.557  26.142  0.00  0.00    +0.153 A 
ATOM     27  C   UNL     1      14.142  13.407  26.999  0.00  0.00    +0.051 A 
ATOM     28  C   UNL     1      15.293  12.708  27.435  0.00  0.00    +0.042 A 
ATOM     29  C   UNL     1      15.254  11.481  26.814  0.00  0.00    +0.196 A 
ENDBRANCH  22  25
ENDBRANCH  14   8
BRANCH  13   7
ATOM      3  O   UNL     1      10.799   7.820  16.884  0.00  0.00    -0.276 OA
ATOM      7  N   UNL     1      12.360   8.836  18.270  0.00  0.00    -0.308 N 
ATOM     17  C   UNL     1      11.706   8.629  17.063  0.00  0.00    +0.213 C 
ATOM     30  H   UNL     1      13.138   9.488  18.304  0.00  0.00    +0.149 HD
BRANCH  17  19
ATOM     19  C   UNL     1      12.268   9.510  15.960  0.00  0.00    +0.096 C 
BRANCH  19  20
ATOM     20  C   UNL     1      13.790   9.446  15.837  0.00  0.00    +0.020 C 
BRANCH  20  21
ATOM     21  C   UNL     1      14.438  10.831  15.879  0.00  0.00    +0.121 C 
BRANCH  21  26
ATOM      6  O   UNL     1      14.433  11.050  18.303  0.00  0.00    -0.251 OA
ATOM     26  C   UNL     1      14.199  11.524  17.200  0.00  0.00    +0.305 C 
BRANCH  26   5
ATOM      5  O   UNL     1      13.682  12.769  17.021  0.00  0.00    -0.481 OA
ATOM     32  H   UNL     1      14.219  13.300  16.395  0.00  0.00    +0.295 HD
ENDBRANCH  26   5
ENDBRANCH  21  26
ENDBRANCH  20  21
ENDBRANCH  19  20
ENDBRANCH  17  19
ENDBRANCH  13   7
TORSDOF 8
ENDMDL
MODEL 2
REMARK VINA RESULT:      -6.3      6.433      8.570
REMARK  Name = 11913299
REMARK  8 active torsions:
REMARK  status: ('A' for Active; 'I' for Inactive)
REMARK    1  A    between atoms: O_5  and  C_26
REMARK    2  A    between atoms: N_7  and  C_13
REMARK    3  A    between atoms: N_8  and  C_14
REMARK    4  A    between atoms: C_17  and  C_19
REMARK    5  A    between atoms: C_19  and  C_20
REMARK    6  A    between atoms: C_20  and  C_21
REMARK    7  A    between atoms: C_21  and  C_26
REMARK    8  A    between atoms: C_22  and  C_25
REMARK                            x       y       z     vdW  Elec       q    Type
REMARK                         _______ _______ _______ _____ _____    ______ ____
ROOT
ATOM      1  O   UNL     1      15.945   8.627  20.511  0.00  0.00    -0.370 OA
ATOM      2  O   UNL     1      17.018   5.764  19.885  0.00  0.00    -0.370 OA
ATOM     11  C   UNL     1      16.009   6.264  20.780  0.00  0.00    +0.171 C 
ATOM     12  C   UNL     1      16.508   7.587  21.328  0.00  0.00    +0.171 C 
ATOM     13  C   UNL     1      14.761   6.632  20.010  0.00  0.00    +0.130 C 
ATOM     14  C   UNL     1      18.005   7.525  21.139  0.00  0.00    +0.130 C 
ATOM     15  C   UNL     1      15.076   8.038  19.531  0.00  0.00    +0.185 C 
ATOM     16  C   UNL     1      18.149   6.648  19.909  0.00  0.00    +0.185 C 
ENDROOT
BRANCH  14   8
ATOM      8  N   UNL     1      18.622   6.888  22.281  0.00  0.00    -0.306 N 
ATOM      9  N   UNL     1      20.740   7.610  21.658  0.00  0.00    -0.211 NA
ATOM     10  N   UNL     1      20.403   6.290  23.647  0.00  0.00    -0.223 NA
ATOM     18  C   UNL     1      19.981   6.931  22.539  0.00  0.00    +0.216 A 
ATOM     22  C   UNL     1      22.059   7.632  21.941  0.00  0.00    +0.111 A 
ATOM     23  C   UNL     1      21.733   6.352  23.868  0.00  0.00    +0.116 A 
ATOM     24  C   UNL     1      22.618   7.016  23.043  0.00  0.00    +0.051 A 
ATOM     31  H   UNL     1      18.040   6.423  22.968  0.00  0.00    +0.149 HD
BRANCH  22  25
ATOM      4  O   UNL     1      24.142   8.606  21.390  0.00  0.00    -0.461 OA
ATOM     25  C   UNL     1      22.866   8.358  20.996  0.00  0.00    +0.153 A 
ATOM     27  C   UNL     1      22.636   8.879  19.745  0.00  0.00    +0.051 A 
ATOM     28  C   UNL     1      23.850   9.485  19.343  0.00  0.00    +0.042 A 
ATOM     29  C   UNL     1      24.735   9.293  20.378  0.00  0.00    +0.196 A 
ENDBRANCH  22  25
ENDBRANCH  14   8
BRANCH  13   7
ATOM      3  O   UNL     1      12.019   6.508  19.169  0.00  0.00    -0.276 OA
ATOM      7  N   UNL     1      13.599   6.620  20.866  0.00  0.00    -0.308 N 
ATOM     17  C   UNL     1      12.307   6.558  20.361  0.00  0.00    +0.213 C 
ATOM     30  H   UNL     1      13.733   6.717  21.868  0.00  0.00    +0.149 HD
BRANCH  17  19
ATOM     19  C   UNL     1      11.268   6.588  21.470  0.00  0.00    +0.096 C 
BRANCH  19  20
ATOM     20  C   UNL     1      10.537   7.924  21.592  0.00  0.00    +0.020 C 
BRANCH  20  21
ATOM     21  C   UNL     1      11.147   8.828  22.665  0.00  0.00    +0.121 C 
BRANCH  21  26
ATOM      6  O   UNL     1      12.141  10.681  21.440  0.00  0.00    -0.251 OA
ATOM     26  C   UNL     1      12.274   9.672  22.117  0.00  0.00    +0.305 C 
BRANCH  26   5
ATOM      5  O   UNL     1      13.487   9.170  22.472  0.00  0.00    -0.481 OA
ATOM     32  H   UNL     1      14.119   9.180  21.722  0.00  0.00    +0.295 HD
ENDBRANCH  26   5
ENDBRANCH  21  26
ENDBRANCH  20  21
ENDBRANCH  19  20
ENDBRANCH  17  19
ENDBRANCH  13   7
TORSDOF 8
ENDMDL
MODEL 3
REMARK VINA RESULT:      -6.2      7.615     10.292
REMARK  Name = 11913299
REMARK  8 active torsions:
REMARK  status: ('A' for Active; 'I' for Inactive)
REMARK    1  A    between atoms: O_5  and  C_26
REMARK    2  A    between atoms: N_7  and  C_13
REMARK    3  A    between atoms: N_8  and  C_14
REMARK    4  A    between atoms: C_17  and  C_19
REMARK    5  A    between atoms: C_19  and  C_20
REMARK    6  A    between atoms: C_20  and  C_21
REMARK    7  A    between atoms: C_21  and  C_26
REMARK    8  A    between atoms: C_22  and  C_25
REMARK                            x       y       z     vdW  Elec       q    Type
REMARK                         _______ _______ _______ _____ _____    ______ ____
ROOT
ATOM      1  O   UNL     1      19.952   6.781  20.130  0.00  0.00    -0.370 OA
ATOM      2  O   UNL     1      19.681   8.222  22.884  0.00  0.00    -0.370 OA
ATOM     11  C   UNL     1      19.739   6.838  22.499  0.00  0.00    +0.171 C 
ATOM     12  C   UNL     1      18.985   6.702  21.190  0.00  0.00    +0.171 C 
ATOM     13  C   UNL     1      21.157   6.450  22.147  0.00  0.00    +0.130 C 
ATOM     14  C   UNL     1      18.076   7.909  21.161  0.00  0.00    +0.130 C 
ATOM     15  C   UNL     1      21.266   6.890  20.698  0.00  0.00    +0.185 C 
ATOM     16  C   UNL     1      18.866   8.939  21.945  0.00  0.00    +0.185 C 
ENDROOT
BRANCH  14   8
ATOM      8  N   UNL     1      16.834   7.610  21.837  0.00  0.00    -0.306 N 
ATOM      9  N   UNL     1      15.567   8.299  20.016  0.00  0.00    -0.211 NA
ATOM     10  N   UNL     1      14.523   7.474  22.027  0.00  0.00    -0.223 NA
ATOM     18  C   UNL     1      15.587   7.803  21.268  0.00  0.00    +0.216 A 
ATOM     22  C   UNL     1      14.336   8.473  19.493  0.00  0.00    +0.111 A 
ATOM     23  C   UNL     1      13.324   7.675  21.441  0.00  0.00    +0.116 A 
ATOM     24  C   UNL     1      13.167   8.175  20.165  0.00  0.00    +0.051 A 
ATOM     31  H   UNL     1      16.857   7.189  22.759  0.00  0.00    +0.149 HD
BRANCH  22  25
ATOM      4  O   UNL     1      13.941   8.129  17.187  0.00  0.00    -0.461 OA
ATOM     25  C   UNL     1      14.320   9.004  18.155  0.00  0.00    +0.153 A 
ATOM     27  C   UNL     1      14.610  10.233  17.611  0.00  0.00    +0.051 A 
ATOM     28  C   UNL     1      14.396  10.106  16.218  0.00  0.00    +0.042 A 
ATOM     29  C   UNL     1      13.990   8.807  16.010  0.00  0.00    +0.196 A 
ENDBRANCH  22  25
ENDBRANCH  14   8
BRANCH  13   7
ATOM      3  O   UNL     1      23.428   5.139  23.317  0.00  0.00    -0.276 OA
ATOM      7  N   UNL     1      21.355   5.026  22.278  0.00  0.00    -0.308 N 
ATOM     17  C   UNL     1      22.493   4.485  22.861  0.00  0.00    +0.213 C 
ATOM     30  H   UNL     1      20.662   4.401  21.877  0.00  0.00    +0.149 HD
BRANCH  17  19
ATOM     19  C   UNL     1      22.465   2.966  22.846  0.00  0.00    +0.096 C 
BRANCH  19  20
ATOM     20  C   UNL     1      23.779   2.331  22.393  0.00  0.00    +0.020 C 
BRANCH  20  21
ATOM     21  C   UNL     1      23.793   2.029  20.893  0.00  0.00    +0.121 C 
BRANCH  21  26
ATOM      6  O   UNL     1      25.202   3.993  20.607  0.00  0.00    -0.251 OA
ATOM     26  C   UNL     1      24.580   3.061  20.118  0.00  0.00    +0.305 C 
BRANCH  26   5
ATOM      5  O   UNL     1      24.518   2.830  18.780  0.00  0.00    -0.481 OA
ATOM     32  H   UNL     1      25.317   2.365  18.453  0.00  0.00    +0.295 HD
ENDBRANCH  26   5
ENDBRANCH  21  26
ENDBRANCH  20  21
ENDBRANCH  19  20
ENDBRANCH  17  19
ENDBRANCH  13   7
TORSDOF 8
ENDMDL
MODEL 4
REMARK VINA RESULT:      -6.1     26.994     29.823
REMARK  Name = 11913299
REMARK  8 active torsions:
REMARK  status: ('A' for Active; 'I' for Inactive)
REMARK    1  A    between atoms: O_5  and  C_26
REMARK    2  A    between atoms: N_7  and  C_13
REMARK    3  A    between atoms: N_8  and  C_14
REMARK    4  A    between atoms: C_17  and  C_19
REMARK    5  A    between atoms: C_19  and  C_20
REMARK    6  A    between atoms: C_20  and  C_21
REMARK    7  A    between atoms: C_21  and  C_26
REMARK    8  A    between atoms: C_22  and  C_25
REMARK                            x       y       z     vdW  Elec       q    Type
REMARK                         _______ _______ _______ _____ _____    ______ ____
ROOT
ATOM      1  O   UNL     1     -17.389   4.672  25.466  0.00  0.00    -0.370 OA
ATOM      2  O   UNL     1     -16.569   1.952  24.176  0.00  0.00    -0.370 OA
ATOM     11  C   UNL     1     -16.093   2.683  25.319  0.00  0.00    +0.171 C 
ATOM     12  C   UNL     1     -16.144   4.157  24.965  0.00  0.00    +0.171 C 
ATOM     13  C   UNL     1     -17.063   2.547  26.470  0.00  0.00    +0.130 C 
ATOM     14  C   UNL     1     -16.139   4.174  23.455  0.00  0.00    +0.130 C 
ATOM     15  C   UNL     1     -18.084   3.629  26.165  0.00  0.00    +0.185 C 
ATOM     16  C   UNL     1     -16.831   2.870  23.104  0.00  0.00    +0.185 C 
ENDROOT
BRANCH  14   8
ATOM      8  N   UNL     1     -14.779   4.166  22.964  0.00  0.00    -0.306 N 
ATOM      9  N   UNL     1     -14.921   6.373  22.255  0.00  0.00    -0.211 NA
ATOM     10  N   UNL     1     -12.899   5.094  21.965  0.00  0.00    -0.223 NA
ATOM     18  C   UNL     1     -14.174   5.259  22.368  0.00  0.00    +0.216 A 
ATOM     22  C   UNL     1     -14.300   7.419  21.671  0.00  0.00    +0.111 A 
ATOM     23  C   UNL     1     -12.340   6.179  21.389  0.00  0.00    +0.116 A 
ATOM     24  C   UNL     1     -12.998   7.380  21.215  0.00  0.00    +0.051 A 
ATOM     31  H   UNL     1     -14.205   3.341  23.099  0.00  0.00    +0.149 HD
BRANCH  22  25
ATOM      4  O   UNL     1     -14.525   9.636  20.880  0.00  0.00    -0.461 OA
ATOM     25  C   UNL     1     -15.103   8.607  21.552  0.00  0.00    +0.153 A 
ATOM     27  C   UNL     1     -16.364   8.955  21.977  0.00  0.00    +0.051 A 
ATOM     28  C   UNL     1     -16.574  10.283  21.538  0.00  0.00    +0.042 A 
ATOM     29  C   UNL     1     -15.426  10.653  20.875  0.00  0.00    +0.196 A 
ENDBRANCH  22  25
ENDBRANCH  14   8
BRANCH  13   7
ATOM      3  O   UNL     1     -16.737   0.664  28.613  0.00  0.00    -0.276 OA
ATOM      7  N   UNL     1     -16.409   2.787  27.734  0.00  0.00    -0.308 N 
ATOM     17  C   UNL     1     -16.301   1.808  28.712  0.00  0.00    +0.213 C 
ATOM     30  H   UNL     1     -16.067   3.723  27.933  0.00  0.00    +0.149 HD
BRANCH  17  19
ATOM     19  C   UNL     1     -15.596   2.328  29.954  0.00  0.00    +0.096 C 
BRANCH  19  20
ATOM     20  C   UNL     1     -14.971   1.229  30.811  0.00  0.00    +0.020 C 
BRANCH  20  21
ATOM     21  C   UNL     1     -13.664   0.699  30.218  0.00  0.00    +0.121 C 
BRANCH  21  26
ATOM      6  O   UNL     1     -12.976  -1.346  29.090  0.00  0.00    -0.251 OA
ATOM     26  C   UNL     1     -13.793  -0.738  29.768  0.00  0.00    +0.305 C 
BRANCH  26   5
ATOM      5  O   UNL     1     -14.950  -1.296  30.213  0.00  0.00    -0.481 OA
ATOM     32  H   UNL     1     -15.206  -0.951  31.094  0.00  0.00    +0.295 HD
ENDBRANCH  26   5
ENDBRANCH  21  26
ENDBRANCH  20  21
ENDBRANCH  19  20
ENDBRANCH  17  19
ENDBRANCH  13   7
TORSDOF 8
ENDMDL
MODEL 5
REMARK VINA RESULT:      -6.1     26.609     29.604
REMARK  Name = 11913299
REMARK  8 active torsions:
REMARK  status: ('A' for Active; 'I' for Inactive)
REMARK    1  A    between atoms: O_5  and  C_26
REMARK    2  A    between atoms: N_7  and  C_13
REMARK    3  A    between atoms: N_8  and  C_14
REMARK    4  A    between atoms: C_17  and  C_19
REMARK    5  A    between atoms: C_19  and  C_20
REMARK    6  A    between atoms: C_20  and  C_21
REMARK    7  A    between atoms: C_21  and  C_26
REMARK    8  A    between atoms: C_22  and  C_25
REMARK                            x       y       z     vdW  Elec       q    Type
REMARK                         _______ _______ _______ _____ _____    ______ ____
ROOT
ATOM      1  O   UNL     1      -7.185 -11.864  15.632  0.00  0.00    -0.370 OA
ATOM      2  O   UNL     1      -6.299 -12.458  18.565  0.00  0.00    -0.370 OA
ATOM     11  C   UNL     1      -6.619 -11.247  17.859  0.00  0.00    +0.171 C 
ATOM     12  C   UNL     1      -6.095 -11.397  16.444  0.00  0.00    +0.171 C 
ATOM     13  C   UNL     1      -8.116 -11.121  17.685  0.00  0.00    +0.130 C 
ATOM     14  C   UNL     1      -5.031 -12.463  16.556  0.00  0.00    +0.130 C 
ATOM     15  C   UNL     1      -8.370 -11.950  16.439  0.00  0.00    +0.185 C 
ATOM     16  C   UNL     1      -5.533 -13.316  17.706  0.00  0.00    +0.185 C 
ENDROOT
BRANCH  14   8
ATOM      8  N   UNL     1      -3.761 -11.861  16.898  0.00  0.00    -0.306 N 
ATOM      9  N   UNL     1      -3.402 -11.152  14.715  0.00  0.00    -0.211 NA
ATOM     10  N   UNL     1      -1.799 -10.700  16.457  0.00  0.00    -0.223 NA
ATOM     18  C   UNL     1      -2.952 -11.210  15.983  0.00  0.00    +0.216 A 
ATOM     22  C   UNL     1      -2.590 -10.509  13.852  0.00  0.00    +0.111 A 
ATOM     23  C   UNL     1      -1.035 -10.071  15.539  0.00  0.00    +0.116 A 
ATOM     24  C   UNL     1      -1.383  -9.942  14.210  0.00  0.00    +0.051 A 
ATOM     31  H   UNL     1      -3.452 -11.863  17.863  0.00  0.00    +0.149 HD
BRANCH  22  25
ATOM      4  O   UNL     1      -4.400 -10.703  12.343  0.00  0.00    -0.461 OA
ATOM     25  C   UNL     1      -3.075 -10.450  12.498  0.00  0.00    +0.153 A 
ATOM     27  C   UNL     1      -2.487 -10.190  11.282  0.00  0.00    +0.051 A 
ATOM     28  C   UNL     1      -3.518 -10.289  10.318  0.00  0.00    +0.042 A 
ATOM     29  C   UNL     1      -4.663 -10.604  11.013  0.00  0.00    +0.196 A 
ENDBRANCH  22  25
ENDBRANCH  14   8
BRANCH  13   7
ATOM      3  O   UNL     1     -10.760 -10.033  17.949  0.00  0.00    -0.276 OA
ATOM      7  N   UNL     1      -8.504  -9.745  17.486  0.00  0.00    -0.308 N 
ATOM     17  C   UNL     1      -9.814  -9.314  17.638  0.00  0.00    +0.213 C 
ATOM     30  H   UNL     1      -7.801  -9.084  17.169  0.00  0.00    +0.149 HD
BRANCH  17  19
ATOM     19  C   UNL     1      -9.956  -7.830  17.341  0.00  0.00    +0.096 C 
BRANCH  19  20
ATOM     20  C   UNL     1     -10.990  -7.515  16.262  0.00  0.00    +0.020 C 
BRANCH  20  21
ATOM     21  C   UNL     1     -11.045  -6.023  15.925  0.00  0.00    +0.121 C 
BRANCH  21  26
ATOM      6  O   UNL     1     -13.320  -6.098  15.063  0.00  0.00    -0.251 OA
ATOM     26  C   UNL     1     -12.167  -5.704  14.964  0.00  0.00    +0.305 C 
BRANCH  26   5
ATOM      5  O   UNL     1     -11.739  -4.907  13.949  0.00  0.00    -0.481 OA
ATOM     32  H   UNL     1     -12.244  -4.068  13.907  0.00  0.00    +0.295 HD
ENDBRANCH  26   5
ENDBRANCH  21  26
ENDBRANCH  20  21
ENDBRANCH  19  20
ENDBRANCH  17  19
ENDBRANCH  13   7
TORSDOF 8
ENDMDL
MODEL 6
REMARK VINA RESULT:      -5.9      5.242      9.561
REMARK  Name = 11913299
REMARK  8 active torsions:
REMARK  status: ('A' for Active; 'I' for Inactive)
REMARK    1  A    between atoms: O_5  and  C_26
REMARK    2  A    between atoms: N_7  and  C_13
REMARK    3  A    between atoms: N_8  and  C_14
REMARK    4  A    between atoms: C_17  and  C_19
REMARK    5  A    between atoms: C_19  and  C_20
REMARK    6  A    between atoms: C_20  and  C_21
REMARK    7  A    between atoms: C_21  and  C_26
REMARK    8  A    between atoms: C_22  and  C_25
REMARK                            x       y       z     vdW  Elec       q    Type
REMARK                         _______ _______ _______ _____ _____    ______ ____
ROOT
ATOM      1  O   UNL     1      13.038   9.648  19.035  0.00  0.00    -0.370 OA
ATOM      2  O   UNL     1      13.587   7.692  16.666  0.00  0.00    -0.370 OA
ATOM     11  C   UNL     1      14.343   8.064  17.831  0.00  0.00    +0.171 C 
ATOM     12  C   UNL     1      14.101   9.542  18.073  0.00  0.00    +0.171 C 
ATOM     13  C   UNL     1      13.776   7.393  19.061  0.00  0.00    +0.130 C 
ATOM     14  C   UNL     1      13.648  10.066  16.731  0.00  0.00    +0.130 C 
ATOM     15  C   UNL     1      12.650   8.331  19.455  0.00  0.00    +0.185 C 
ATOM     16  C   UNL     1      12.960   8.861  16.118  0.00  0.00    +0.185 C 
ENDROOT
BRANCH  14   8
ATOM      8  N   UNL     1      14.794  10.447  15.935  0.00  0.00    -0.306 N 
ATOM      9  N   UNL     1      13.469  11.563  14.389  0.00  0.00    -0.211 NA
ATOM     10  N   UNL     1      15.865  11.466  14.144  0.00  0.00    -0.223 NA
ATOM     18  C   UNL     1      14.705  11.190  14.772  0.00  0.00    +0.216 A 
ATOM     22  C   UNL     1      13.420  12.287  13.252  0.00  0.00    +0.111 A 
ATOM     23  C   UNL     1      15.741  12.193  13.015  0.00  0.00    +0.116 A 
ATOM     24  C   UNL     1      14.534  12.637  12.516  0.00  0.00    +0.051 A 
ATOM     31  H   UNL     1      15.726  10.208  16.257  0.00  0.00    +0.149 HD
BRANCH  22  25
ATOM      4  O   UNL     1      11.128  11.748  13.031  0.00  0.00    -0.461 OA
ATOM     25  C   UNL     1      12.097  12.682  12.846  0.00  0.00    +0.153 A 
ATOM     27  C   UNL     1      11.568  13.826  12.295  0.00  0.00    +0.051 A 
ATOM     28  C   UNL     1      10.184  13.578  12.130  0.00  0.00    +0.042 A 
ATOM     29  C   UNL     1       9.966  12.301  12.592  0.00  0.00    +0.196 A 
ENDBRANCH  22  25
ENDBRANCH  14   8
BRANCH  13   7
ATOM      3  O   UNL     1      16.198   5.852  18.989  0.00  0.00    -0.276 OA
ATOM      7  N   UNL     1      14.767   7.298  20.107  0.00  0.00    -0.308 N 
ATOM     17  C   UNL     1      15.911   6.522  19.977  0.00  0.00    +0.213 C 
ATOM     30  H   UNL     1      14.590   7.771  20.987  0.00  0.00    +0.149 HD
BRANCH  17  19
ATOM     19  C   UNL     1      16.770   6.574  21.229  0.00  0.00    +0.096 C 
BRANCH  19  20
ATOM     20  C   UNL     1      18.032   7.422  21.075  0.00  0.00    +0.020 C 
BRANCH  20  21
ATOM     21  C   UNL     1      19.311   6.597  21.228  0.00  0.00    +0.121 C 
BRANCH  21  26
ATOM      6  O   UNL     1      20.614   5.864  23.149  0.00  0.00    -0.251 OA
ATOM     26  C   UNL     1      19.876   6.688  22.627  0.00  0.00    +0.305 C 
BRANCH  26   5
ATOM      5  O   UNL     1      19.460   7.818  23.257  0.00  0.00    -0.481 OA
ATOM     32  H   UNL     1      19.070   8.463  22.630  0.00  0.00    +0.295 HD
ENDBRANCH  26   5
ENDBRANCH  21  26
ENDBRANCH  20  21
ENDBRANCH  19  20
ENDBRANCH  17  19
ENDBRANCH  13   7
TORSDOF 8
ENDMDL
MODEL 7
REMARK VINA RESULT:      -5.8      4.102      5.665
REMARK  Name = 11913299
REMARK  8 active torsions:
REMARK  status: ('A' for Active; 'I' for Inactive)
REMARK    1  A    between atoms: O_5  and  C_26
REMARK    2  A    between atoms: N_7  and  C_13
REMARK    3  A    between atoms: N_8  and  C_14
REMARK    4  A    between atoms: C_17  and  C_19
REMARK    5  A    between atoms: C_19  and  C_20
REMARK    6  A    between atoms: C_20  and  C_21
REMARK    7  A    between atoms: C_21  and  C_26
REMARK    8  A    between atoms: C_22  and  C_25
REMARK                            x       y       z     vdW  Elec       q    Type
REMARK                         _______ _______ _______ _____ _____    ______ ____
ROOT
ATOM      1  O   UNL     1      13.486   7.961  21.082  0.00  0.00    -0.370 OA
ATOM      2  O   UNL     1      13.326   8.308  17.985  0.00  0.00    -0.370 OA
ATOM     11  C   UNL     1      14.409   8.376  18.929  0.00  0.00    +0.171 C 
ATOM     12  C   UNL     1      13.868   9.022  20.190  0.00  0.00    +0.171 C 
ATOM     13  C   UNL     1      14.808   6.987  19.370  0.00  0.00    +0.130 C 
ATOM     14  C   UNL     1      12.647   9.779  19.723  0.00  0.00    +0.130 C 
ATOM     15  C   UNL     1      13.816   6.700  20.482  0.00  0.00    +0.185 C 
ATOM     16  C   UNL     1      12.170   8.948  18.546  0.00  0.00    +0.185 C 
ENDROOT
BRANCH  14   8
ATOM      8  N   UNL     1      13.025  11.103  19.280  0.00  0.00    -0.306 N 
ATOM      9  N   UNL     1      12.321  12.072  21.270  0.00  0.00    -0.211 NA
ATOM     10  N   UNL     1      13.266  13.403  19.496  0.00  0.00    -0.223 NA
ATOM     18  C   UNL     1      12.863  12.242  20.049  0.00  0.00    +0.216 A 
ATOM     22  C   UNL     1      12.180  13.203  21.993  0.00  0.00    +0.111 A 
ATOM     23  C   UNL     1      13.095  14.492  20.273  0.00  0.00    +0.116 A 
ATOM     24  C   UNL     1      12.553  14.453  21.542  0.00  0.00    +0.051 A 
ATOM     31  H   UNL     1      13.479  11.218  18.381  0.00  0.00    +0.149 HD
BRANCH  22  25
ATOM      4  O   UNL     1      12.018  11.911  23.967  0.00  0.00    -0.461 OA
ATOM     25  C   UNL     1      11.600  13.016  23.296  0.00  0.00    +0.153 A 
ATOM     27  C   UNL     1      10.688  13.721  24.046  0.00  0.00    +0.051 A 
ATOM     28  C   UNL     1      10.536  13.002  25.256  0.00  0.00    +0.042 A 
ATOM     29  C   UNL     1      11.366  11.909  25.159  0.00  0.00    +0.196 A 
ENDBRANCH  22  25
ENDBRANCH  14   8
BRANCH  13   7
ATOM      3  O   UNL     1      16.964   5.372  18.376  0.00  0.00    -0.276 OA
ATOM      7  N   UNL     1      16.165   6.966  19.862  0.00  0.00    -0.308 N 
ATOM     17  C   UNL     1      17.142   6.147  19.312  0.00  0.00    +0.213 C 
ATOM     30  H   UNL     1      16.396   7.531  20.674  0.00  0.00    +0.149 HD
BRANCH  17  19
ATOM     19  C   UNL     1      18.472   6.296  20.032  0.00  0.00    +0.096 C 
BRANCH  19  20
ATOM     20  C   UNL     1      18.335   6.681  21.504  0.00  0.00    +0.020 C 
BRANCH  20  21
ATOM     21  C   UNL     1      19.594   7.359  22.048  0.00  0.00    +0.121 C 
BRANCH  21  26
ATOM      6  O   UNL     1      20.287   6.789  24.311  0.00  0.00    -0.251 OA
ATOM     26  C   UNL     1      20.264   6.527  23.117  0.00  0.00    +0.305 C 
BRANCH  26   5
ATOM      5  O   UNL     1      20.854   5.422  22.588  0.00  0.00    -0.481 OA
ATOM     32  H   UNL     1      20.641   4.614  23.101  0.00  0.00    +0.295 HD
ENDBRANCH  26   5
ENDBRANCH  21  26
ENDBRANCH  20  21
ENDBRANCH  19  20
ENDBRANCH  17  19
ENDBRANCH  13   7
TORSDOF 8
ENDMDL
MODEL 8
REMARK VINA RESULT:      -5.8      4.950      6.624
REMARK  Name = 11913299
REMARK  8 active torsions:
REMARK  status: ('A' for Active; 'I' for Inactive)
REMARK    1  A    between atoms: O_5  and  C_26
REMARK    2  A    between atoms: N_7  and  C_13
REMARK    3  A    between atoms: N_8  and  C_14
REMARK    4  A    between atoms: C_17  and  C_19
REMARK    5  A    between atoms: C_19  and  C_20
REMARK    6  A    between atoms: C_20  and  C_21
REMARK    7  A    between atoms: C_21  and  C_26
REMARK    8  A    between atoms: C_22  and  C_25
REMARK                            x       y       z     vdW  Elec       q    Type
REMARK                         _______ _______ _______ _____ _____    ______ ____
ROOT
ATOM      1  O   UNL     1      14.748   7.496  21.509  0.00  0.00    -0.370 OA
ATOM      2  O   UNL     1      14.486   7.295  18.406  0.00  0.00    -0.370 OA
ATOM     11  C   UNL     1      15.518   7.789  19.277  0.00  0.00    +0.171 C 
ATOM     12  C   UNL     1      14.833   8.464  20.450  0.00  0.00    +0.171 C 
ATOM     13  C   UNL     1      16.271   6.639  19.904  0.00  0.00    +0.130 C 
ATOM     14  C   UNL     1      13.454   8.795  19.931  0.00  0.00    +0.130 C 
ATOM     15  C   UNL     1      15.395   6.285  21.093  0.00  0.00    +0.185 C 
ATOM     16  C   UNL     1      13.206   7.694  18.917  0.00  0.00    +0.185 C 
ENDROOT
BRANCH  14   8
ATOM      8  N   UNL     1      13.467  10.085  19.276  0.00  0.00    -0.306 N 
ATOM      9  N   UNL     1      12.596  11.151  21.147  0.00  0.00    -0.211 NA
ATOM     10  N   UNL     1      13.118  12.377  19.138  0.00  0.00    -0.223 NA
ATOM     18  C   UNL     1      13.042  11.254  19.880  0.00  0.00    +0.216 A 
ATOM     22  C   UNL     1      12.191  12.310  21.705  0.00  0.00    +0.111 A 
ATOM     23  C   UNL     1      12.696  13.498  19.758  0.00  0.00    +0.116 A 
ATOM     24  C   UNL     1      12.219  13.526  21.053  0.00  0.00    +0.051 A 
ATOM     31  H   UNL     1      13.852  10.165  18.341  0.00  0.00    +0.149 HD
BRANCH  22  25
ATOM      4  O   UNL     1      11.663  13.356  23.759  0.00  0.00    -0.461 OA
ATOM     25  C   UNL     1      11.716  12.194  23.058  0.00  0.00    +0.153 A 
ATOM     27  C   UNL     1      11.290  11.141  23.834  0.00  0.00    +0.051 A 
ATOM     28  C   UNL     1      10.952  11.693  25.093  0.00  0.00    +0.042 A 
ATOM     29  C   UNL     1      11.197  13.043  24.996  0.00  0.00    +0.196 A 
ENDBRANCH  22  25
ENDBRANCH  14   8
BRANCH  13   7
ATOM      3  O   UNL     1      18.679   5.081  19.755  0.00  0.00    -0.276 OA
ATOM      7  N   UNL     1      17.589   7.048  20.329  0.00  0.00    -0.308 N 
ATOM     17  C   UNL     1      18.696   6.220  20.215  0.00  0.00    +0.213 C 
ATOM     30  H   UNL     1      17.694   7.953  20.778  0.00  0.00    +0.149 HD
BRANCH  17  19
ATOM     19  C   UNL     1      19.951   6.880  20.762  0.00  0.00    +0.096 C 
BRANCH  19  20
ATOM     20  C   UNL     1      20.524   6.185  21.996  0.00  0.00    +0.020 C 
BRANCH  20  21
ATOM     21  C   UNL     1      21.860   5.495  21.709  0.00  0.00    +0.121 C 
BRANCH  21  26
ATOM      6  O   UNL     1      22.104   3.272  22.671  0.00  0.00    -0.251 OA
ATOM     26  C   UNL     1      21.736   3.989  21.751  0.00  0.00    +0.305 C 
BRANCH  26   5
ATOM      5  O   UNL     1      21.152   3.508  20.622  0.00  0.00    -0.481 OA
ATOM     32  H   UNL     1      20.173   3.563  20.665  0.00  0.00    +0.295 HD
ENDBRANCH  26   5
ENDBRANCH  21  26
ENDBRANCH  20  21
ENDBRANCH  19  20
ENDBRANCH  17  19
ENDBRANCH  13   7
TORSDOF 8
ENDMDL
MODEL 9
REMARK VINA RESULT:      -5.8     27.485     30.223
REMARK  Name = 11913299
REMARK  8 active torsions:
REMARK  status: ('A' for Active; 'I' for Inactive)
REMARK    1  A    between atoms: O_5  and  C_26
REMARK    2  A    between atoms: N_7  and  C_13
REMARK    3  A    between atoms: N_8  and  C_14
REMARK    4  A    between atoms: C_17  and  C_19
REMARK    5  A    between atoms: C_19  and  C_20
REMARK    6  A    between atoms: C_20  and  C_21
REMARK    7  A    between atoms: C_21  and  C_26
REMARK    8  A    between atoms: C_22  and  C_25
REMARK                            x       y       z     vdW  Elec       q    Type
REMARK                         _______ _______ _______ _____ _____    ______ ____
ROOT
ATOM      1  O   UNL     1      -2.719 -12.879  12.558  0.00  0.00    -0.370 OA
ATOM      2  O   UNL     1      -1.848  -9.937  13.128  0.00  0.00    -0.370 OA
ATOM     11  C   UNL     1      -2.848 -10.797  13.702  0.00  0.00    +0.171 C 
ATOM     12  C   UNL     1      -3.428 -11.629  12.574  0.00  0.00    +0.171 C 
ATOM     13  C   UNL     1      -2.203 -11.814  14.615  0.00  0.00    +0.130 C 
ATOM     14  C   UNL     1      -3.116 -10.832  11.329  0.00  0.00    +0.130 C 
ATOM     15  C   UNL     1      -1.780 -12.902  13.643  0.00  0.00    +0.185 C 
ATOM     16  C   UNL     1      -1.831 -10.118  11.704  0.00  0.00    +0.185 C 
ENDROOT
BRANCH  14   8
ATOM      8  N   UNL     1      -4.168  -9.871  11.080  0.00  0.00    -0.306 N 
ATOM      9  N   UNL     1      -4.472 -10.627   8.905  0.00  0.00    -0.211 NA
ATOM     10  N   UNL     1      -5.798  -8.824   9.800  0.00  0.00    -0.223 NA
ATOM     18  C   UNL     1      -4.842  -9.770   9.876  0.00  0.00    +0.216 A 
ATOM     22  C   UNL     1      -5.151 -10.501   7.746  0.00  0.00    +0.111 A 
ATOM     23  C   UNL     1      -6.435  -8.753   8.613  0.00  0.00    +0.116 A 
ATOM     24  C   UNL     1      -6.153  -9.574   7.540  0.00  0.00    +0.051 A 
ATOM     31  H   UNL     1      -4.476  -9.263  11.831  0.00  0.00    +0.149 HD
BRANCH  22  25
ATOM      4  O   UNL     1      -5.151 -11.090   5.456  0.00  0.00    -0.461 OA
ATOM     25  C   UNL     1      -4.752 -11.419   6.712  0.00  0.00    +0.153 A 
ATOM     27  C   UNL     1      -4.038 -12.594   6.701  0.00  0.00    +0.051 A 
ATOM     28  C   UNL     1      -3.994 -13.014   5.350  0.00  0.00    +0.042 A 
ATOM     29  C   UNL     1      -4.686 -12.066   4.632  0.00  0.00    +0.196 A 
ENDBRANCH  22  25
ENDBRANCH  14   8
BRANCH  13   7
ATOM      3  O   UNL     1      -3.463 -10.314  16.714  0.00  0.00    -0.276 OA
ATOM      7  N   UNL     1      -3.147 -12.317  15.584  0.00  0.00    -0.308 N 
ATOM     17  C   UNL     1      -3.704 -11.509  16.566  0.00  0.00    +0.213 C 
ATOM     30  H   UNL     1      -3.365 -13.309  15.580  0.00  0.00    +0.149 HD
BRANCH  17  19
ATOM     19  C   UNL     1      -4.641 -12.290  17.472  0.00  0.00    +0.096 C 
BRANCH  19  20
ATOM     20  C   UNL     1      -5.738 -11.436  18.105  0.00  0.00    +0.020 C 
BRANCH  20  21
ATOM     21  C   UNL     1      -6.888 -11.152  17.136  0.00  0.00    +0.121 C 
BRANCH  21  26
ATOM      6  O   UNL     1      -7.921  -8.970  17.443  0.00  0.00    -0.251 OA
ATOM     26  C   UNL     1      -7.076  -9.671  16.904  0.00  0.00    +0.305 C 
BRANCH  26   5
ATOM      5  O   UNL     1      -6.177  -9.191  16.005  0.00  0.00    -0.481 OA
ATOM     32  H   UNL     1      -5.817  -9.902  15.433  0.00  0.00    +0.295 HD
ENDBRANCH  26   5
ENDBRANCH  21  26
ENDBRANCH  20  21
ENDBRANCH  19  20
ENDBRANCH  17  19
ENDBRANCH  13   7
TORSDOF 8
ENDMDL
MODEL 10
REMARK VINA RESULT:      -5.8     26.850     29.765
REMARK  Name = 11913299
REMARK  8 active torsions:
REMARK  status: ('A' for Active; 'I' for Inactive)
REMARK    1  A    between atoms: O_5  and  C_26
REMARK    2  A    between atoms: N_7  and  C_13
REMARK    3  A    between atoms: N_8  and  C_14
REMARK    4  A    between atoms: C_17  and  C_19
REMARK    5  A    between atoms: C_19  and  C_20
REMARK    6  A    between atoms: C_20  and  C_21
REMARK    7  A    between atoms: C_21  and  C_26
REMARK    8  A    between atoms: C_22  and  C_25
REMARK                            x       y       z     vdW  Elec       q    Type
REMARK                         _______ _______ _______ _____ _____    ______ ____
ROOT
ATOM      1  O   UNL     1      -5.962 -11.806  10.307  0.00  0.00    -0.370 OA
ATOM      2  O   UNL     1      -4.816  -8.904  10.350  0.00  0.00    -0.370 OA
ATOM     11  C   UNL     1      -4.449 -10.097   9.636  0.00  0.00    +0.171 C 
ATOM     12  C   UNL     1      -4.657 -11.267  10.578  0.00  0.00    +0.171 C 
ATOM     13  C   UNL     1      -5.422 -10.354   8.509  0.00  0.00    +0.130 C 
ATOM     14  C   UNL     1      -4.622 -10.646  11.954  0.00  0.00    +0.130 C 
ATOM     15  C   UNL     1      -6.550 -11.086   9.213  0.00  0.00    +0.185 C 
ATOM     16  C   UNL     1      -5.156  -9.248  11.701  0.00  0.00    +0.185 C 
ENDROOT
BRANCH  14   8
ATOM      8  N   UNL     1      -3.260 -10.581  12.434  0.00  0.00    -0.306 N 
ATOM      9  N   UNL     1      -3.939 -10.624  14.654  0.00  0.00    -0.211 NA
ATOM     10  N   UNL     1      -1.605 -10.510  14.062  0.00  0.00    -0.223 NA
ATOM     18  C   UNL     1      -2.921 -10.571  13.775  0.00  0.00    +0.216 A 
ATOM     22  C   UNL     1      -3.572 -10.614  15.952  0.00  0.00    +0.111 A 
ATOM     23  C   UNL     1      -1.311 -10.502  15.379  0.00  0.00    +0.116 A 
ATOM     24  C   UNL     1      -2.261 -10.554  16.379  0.00  0.00    +0.051 A 
ATOM     31  H   UNL     1      -2.495 -10.593  11.768  0.00  0.00    +0.149 HD
BRANCH  22  25
ATOM      4  O   UNL     1      -5.810 -10.061  16.483  0.00  0.00    -0.461 OA
ATOM     25  C   UNL     1      -4.665 -10.670  16.888  0.00  0.00    +0.153 A 
ATOM     27  C   UNL     1      -4.823 -11.216  18.140  0.00  0.00    +0.051 A 
ATOM     28  C   UNL     1      -6.152 -10.923  18.530  0.00  0.00    +0.042 A 
ATOM     29  C   UNL     1      -6.710 -10.219  17.489  0.00  0.00    +0.196 A 
ENDBRANCH  22  25
ENDBRANCH  14   8
BRANCH  13   7
ATOM      3  O   UNL     1      -5.955 -10.230   5.690  0.00  0.00    -0.276 OA
ATOM      7  N   UNL     1      -4.826 -11.176   7.483  0.00  0.00    -0.308 N 
ATOM     17  C   UNL     1      -5.150 -11.040   6.140  0.00  0.00    +0.213 C 
ATOM     30  H   UNL     1      -4.189 -11.917   7.764  0.00  0.00    +0.149 HD
BRANCH  17  19
ATOM     19  C   UNL     1      -4.405 -12.044   5.277  0.00  0.00    +0.096 C 
BRANCH  19  20
ATOM     20  C   UNL     1      -5.015 -12.234   3.889  0.00  0.00    +0.020 C 
BRANCH  20  21
ATOM     21  C   UNL     1      -4.326 -13.347   3.097  0.00  0.00    +0.121 C 
BRANCH  21  26
ATOM      6  O   UNL     1      -2.080 -12.571   2.570  0.00  0.00    -0.251 OA
ATOM     26  C   UNL     1      -3.225 -12.810   2.212  0.00  0.00    +0.305 C 
BRANCH  26   5
ATOM      5  O   UNL     1      -3.660 -12.616   0.939  0.00  0.00    -0.481 OA
ATOM     32  H   UNL     1      -3.381 -11.744   0.587  0.00  0.00    +0.295 HD
ENDBRANCH  26   5
ENDBRANCH  21  26
ENDBRANCH  20  21
ENDBRANCH  19  20
ENDBRANCH  17  19
ENDBRANCH  13   7
TORSDOF 8
ENDMDL
