MODEL 1
REMARK VINA RESULT:      -6.3      0.000      0.000
REMARK  Name = 75536828
REMARK  8 active torsions:
REMARK  status: ('A' for Active; 'I' for Inactive)
REMARK    1  A    between atoms: S_1  and  N_7
REMARK    2  A    between atoms: S_1  and  C_16
REMARK    3  A    between atoms: O_3  and  C_10
REMARK    4  A    between atoms: N_6  and  C_9
REMARK    5  A    between atoms: N_6  and  C_14
REMARK    6  A    between atoms: N_7  and  C_13
REMARK    7  A    between atoms: C_11  and  C_13
REMARK    8  A    between atoms: C_14  and  C_15
REMARK                            x       y       z     vdW  Elec       q    Type
REMARK                         _______ _______ _______ _____ _____    ______ ____
ROOT
ATOM      2  O   UNL     1      10.595   8.507  19.866  0.00  0.00    -0.371 OA
ATOM      9  C   UNL     1      12.499   7.219  19.263  0.00  0.00    +0.111 C 
ATOM     10  C   UNL     1      12.420   7.309  20.776  0.00  0.00    +0.164 C 
ATOM     11  C   UNL     1      10.953   7.664  20.973  0.00  0.00    +0.164 C 
ATOM     12  C   UNL     1      11.603   8.375  18.847  0.00  0.00    +0.181 C 
ENDROOT
BRANCH  10   3
ATOM      3  O   UNL     1      12.759   6.092  21.413  0.00  0.00    -0.388 OA
ATOM     22  H   UNL     1      12.478   5.358  20.840  0.00  0.00    +0.210 HD
ENDBRANCH  10   3
BRANCH   9   6
ATOM      6  N   UNL     1      13.851   7.335  18.741  0.00  0.00    -0.305 NA
ATOM     21  H   UNL     1      13.815   7.775  17.821  0.00  0.00    +0.123 HD
BRANCH   6  14
ATOM     14  C   UNL     1      14.685   8.147  19.619  0.00  0.00    +0.116 C 
BRANCH  14  15
ATOM      8  N   UNL     1      18.504   6.310  20.350  0.00  0.00    -0.263 NA
ATOM     15  C   UNL     1      16.021   7.504  19.875  0.00  0.00    -0.031 A 
ATOM     17  C   UNL     1      16.434   6.421  19.106  0.00  0.00    +0.024 A 
ATOM     18  C   UNL     1      16.849   7.990  20.880  0.00  0.00    +0.024 A 
ATOM     19  C   UNL     1      17.673   5.864  19.381  0.00  0.00    +0.111 A 
ATOM     20  C   UNL     1      18.070   7.363  21.076  0.00  0.00    +0.111 A 
ENDBRANCH  14  15
ENDBRANCH   6  14
ENDBRANCH   9   6
BRANCH  11  13
ATOM     13  C   UNL     1      10.680   8.388  22.279  0.00  0.00    +0.139 C 
BRANCH  13   7
ATOM      7  N   UNL     1      11.925   9.014  22.767  0.00  0.00    -0.192 NA
ATOM     23  H   UNL     1      12.774   8.498  22.498  0.00  0.00    +0.148 HD
BRANCH   7   1
ATOM      1  S   UNL     1      12.049  10.717  22.778  0.00  0.00    +0.027 S 
ATOM      4  O   UNL     1      11.458  11.260  21.572  0.00  0.00    -0.158 OA
ATOM      5  O   UNL     1      13.399  11.075  23.169  0.00  0.00    -0.158 OA
ATOM     16  C   UNL     1      10.977  11.114  24.140  0.00  0.00    +0.214 C 
ENDBRANCH   7   1
ENDBRANCH  13   7
ENDBRANCH  11  13
TORSDOF 7
ENDMDL
MODEL 2
REMARK VINA RESULT:      -6.1      2.724      4.656
REMARK  Name = 75536828
REMARK  8 active torsions:
REMARK  status: ('A' for Active; 'I' for Inactive)
REMARK    1  A    between atoms: S_1  and  N_7
REMARK    2  A    between atoms: S_1  and  C_16
REMARK    3  A    between atoms: O_3  and  C_10
REMARK    4  A    between atoms: N_6  and  C_9
REMARK    5  A    between atoms: N_6  and  C_14
REMARK    6  A    between atoms: N_7  and  C_13
REMARK    7  A    between atoms: C_11  and  C_13
REMARK    8  A    between atoms: C_14  and  C_15
REMARK                            x       y       z     vdW  Elec       q    Type
REMARK                         _______ _______ _______ _____ _____    ______ ____
ROOT
ATOM      2  O   UNL     1      15.805   6.202  19.031  0.00  0.00    -0.371 OA
ATOM      9  C   UNL     1      16.911   6.409  21.123  0.00  0.00    +0.111 C 
ATOM     10  C   UNL     1      15.644   7.244  21.148  0.00  0.00    +0.164 C 
ATOM     11  C   UNL     1      14.845   6.598  20.024  0.00  0.00    +0.164 C 
ATOM     12  C   UNL     1      17.114   6.214  19.629  0.00  0.00    +0.181 C 
ENDROOT
BRANCH  10   3
ATOM      3  O   UNL     1      14.966   7.170  22.387  0.00  0.00    -0.388 OA
ATOM     22  H   UNL     1      15.432   6.531  22.953  0.00  0.00    +0.210 HD
ENDBRANCH  10   3
BRANCH   9   6
ATOM      6  N   UNL     1      18.045   7.049  21.770  0.00  0.00    -0.305 NA
ATOM     21  H   UNL     1      18.266   6.545  22.629  0.00  0.00    +0.123 HD
BRANCH   6  14
ATOM     14  C   UNL     1      19.217   7.040  20.903  0.00  0.00    +0.116 C 
BRANCH  14  15
ATOM      8  N   UNL     1      22.179   4.224  22.243  0.00  0.00    -0.263 NA
ATOM     15  C   UNL     1      20.253   6.054  21.372  0.00  0.00    -0.031 A 
ATOM     17  C   UNL     1      20.892   6.241  22.594  0.00  0.00    +0.024 A 
ATOM     18  C   UNL     1      20.577   4.954  20.587  0.00  0.00    +0.024 A 
ATOM     19  C   UNL     1      21.839   5.306  22.980  0.00  0.00    +0.111 A 
ATOM     20  C   UNL     1      21.538   4.076  21.063  0.00  0.00    +0.111 A 
ENDBRANCH  14  15
ENDBRANCH   6  14
ENDBRANCH   9   6
BRANCH  11  13
ATOM     13  C   UNL     1      13.820   7.531  19.403  0.00  0.00    +0.139 C 
BRANCH  13   7
ATOM      7  N   UNL     1      13.024   8.170  20.468  0.00  0.00    -0.192 NA
ATOM     23  H   UNL     1      13.202   9.179  20.562  0.00  0.00    +0.148 HD
BRANCH   7   1
ATOM      1  S   UNL     1      11.412   7.663  20.717  0.00  0.00    +0.027 S 
ATOM      4  O   UNL     1      11.356   6.216  20.780  0.00  0.00    -0.158 OA
ATOM      5  O   UNL     1      10.555   8.400  19.809  0.00  0.00    -0.158 OA
ATOM     16  C   UNL     1      11.121   8.294  22.354  0.00  0.00    +0.214 C 
ENDBRANCH   7   1
ENDBRANCH  13   7
ENDBRANCH  11  13
TORSDOF 7
ENDMDL
MODEL 3
REMARK VINA RESULT:      -5.8      3.444      6.920
REMARK  Name = 75536828
REMARK  8 active torsions:
REMARK  status: ('A' for Active; 'I' for Inactive)
REMARK    1  A    between atoms: S_1  and  N_7
REMARK    2  A    between atoms: S_1  and  C_16
REMARK    3  A    between atoms: O_3  and  C_10
REMARK    4  A    between atoms: N_6  and  C_9
REMARK    5  A    between atoms: N_6  and  C_14
REMARK    6  A    between atoms: N_7  and  C_13
REMARK    7  A    between atoms: C_11  and  C_13
REMARK    8  A    between atoms: C_14  and  C_15
REMARK                            x       y       z     vdW  Elec       q    Type
REMARK                         _______ _______ _______ _____ _____    ______ ____
ROOT
ATOM      2  O   UNL     1      13.236   8.048  21.529  0.00  0.00    -0.371 OA
ATOM      9  C   UNL     1      11.301   8.950  22.574  0.00  0.00    +0.111 C 
ATOM     10  C   UNL     1      10.873   7.951  21.515  0.00  0.00    +0.164 C 
ATOM     11  C   UNL     1      12.145   7.130  21.353  0.00  0.00    +0.164 C 
ATOM     12  C   UNL     1      12.730   9.246  22.146  0.00  0.00    +0.181 C 
ENDROOT
BRANCH  10   3
ATOM      3  O   UNL     1       9.779   7.154  21.928  0.00  0.00    -0.388 OA
ATOM     22  H   UNL     1      10.125   6.402  22.439  0.00  0.00    +0.210 HD
ENDBRANCH  10   3
BRANCH   9   6
ATOM      6  N   UNL     1      10.468  10.139  22.626  0.00  0.00    -0.305 NA
ATOM     21  H   UNL     1      10.155  10.285  23.587  0.00  0.00    +0.123 HD
BRANCH   6  14
ATOM     14  C   UNL     1      11.207  11.318  22.189  0.00  0.00    +0.116 C 
BRANCH  14  15
ATOM      8  N   UNL     1      10.258  14.777  24.562  0.00  0.00    -0.263 NA
ATOM     15  C   UNL     1      10.874  12.528  23.019  0.00  0.00    -0.031 A 
ATOM     17  C   UNL     1      10.734  13.773  22.414  0.00  0.00    +0.024 A 
ATOM     18  C   UNL     1      10.706  12.408  24.394  0.00  0.00    +0.024 A 
ATOM     19  C   UNL     1      10.429  14.856  23.222  0.00  0.00    +0.111 A 
ATOM     20  C   UNL     1      10.402  13.552  25.114  0.00  0.00    +0.111 A 
ENDBRANCH  14  15
ENDBRANCH   6  14
ENDBRANCH   9   6
BRANCH  11  13
ATOM     13  C   UNL     1      12.255   6.455  19.998  0.00  0.00    +0.139 C 
BRANCH  13   7
ATOM      7  N   UNL     1      13.282   7.138  19.187  0.00  0.00    -0.192 NA
ATOM     23  H   UNL     1      14.203   6.682  19.226  0.00  0.00    +0.148 HD
BRANCH   7   1
ATOM      1  S   UNL     1      12.838   7.814  17.683  0.00  0.00    +0.027 S 
ATOM      4  O   UNL     1      11.487   7.414  17.344  0.00  0.00    -0.158 OA
ATOM      5  O   UNL     1      13.929   7.609  16.750  0.00  0.00    -0.158 OA
ATOM     16  C   UNL     1      12.809   9.543  18.096  0.00  0.00    +0.214 C 
ENDBRANCH   7   1
ENDBRANCH  13   7
ENDBRANCH  11  13
TORSDOF 7
ENDMDL
MODEL 4
REMARK VINA RESULT:      -5.6      3.148      6.571
REMARK  Name = 75536828
REMARK  8 active torsions:
REMARK  status: ('A' for Active; 'I' for Inactive)
REMARK    1  A    between atoms: S_1  and  N_7
REMARK    2  A    between atoms: S_1  and  C_16
REMARK    3  A    between atoms: O_3  and  C_10
REMARK    4  A    between atoms: N_6  and  C_9
REMARK    5  A    between atoms: N_6  and  C_14
REMARK    6  A    between atoms: N_7  and  C_13
REMARK    7  A    between atoms: C_11  and  C_13
REMARK    8  A    between atoms: C_14  and  C_15
REMARK                            x       y       z     vdW  Elec       q    Type
REMARK                         _______ _______ _______ _____ _____    ______ ____
ROOT
ATOM      2  O   UNL     1      15.107   7.762  20.515  0.00  0.00    -0.371 OA
ATOM      9  C   UNL     1      13.088   7.979  21.749  0.00  0.00    +0.111 C 
ATOM     10  C   UNL     1      12.756   7.838  20.275  0.00  0.00    +0.164 C 
ATOM     11  C   UNL     1      14.032   7.199  19.746  0.00  0.00    +0.164 C 
ATOM     12  C   UNL     1      14.553   8.383  21.689  0.00  0.00    +0.181 C 
ENDROOT
BRANCH  10   3
ATOM      3  O   UNL     1      11.624   7.021  20.047  0.00  0.00    -0.388 OA
ATOM     22  H   UNL     1      11.892   6.278  19.480  0.00  0.00    +0.210 HD
ENDBRANCH  10   3
BRANCH   9   6
ATOM      6  N   UNL     1      12.261   8.951  22.444  0.00  0.00    -0.305 NA
ATOM     21  H   UNL     1      12.703   9.190  23.333  0.00  0.00    +0.123 HD
BRANCH   6  14
ATOM     14  C   UNL     1      12.103  10.166  21.655  0.00  0.00    +0.116 C 
BRANCH  14  15
ATOM      8  N   UNL     1      10.310  13.339  23.939  0.00  0.00    -0.263 NA
ATOM     15  C   UNL     1      11.476  11.276  22.454  0.00  0.00    -0.031 A 
ATOM     17  C   UNL     1      11.239  11.110  23.815  0.00  0.00    +0.024 A 
ATOM     18  C   UNL     1      11.130  12.473  21.837  0.00  0.00    +0.024 A 
ATOM     19  C   UNL     1      10.659  12.161  24.506  0.00  0.00    +0.111 A 
ATOM     20  C   UNL     1      10.555  13.464  22.616  0.00  0.00    +0.111 A 
ENDBRANCH  14  15
ENDBRANCH   6  14
ENDBRANCH   9   6
BRANCH  11  13
ATOM     13  C   UNL     1      14.267   7.461  18.269  0.00  0.00    +0.139 C 
BRANCH  13   7
ATOM      7  N   UNL     1      12.970   7.578  17.575  0.00  0.00    -0.192 NA
ATOM     23  H   UNL     1      12.162   7.404  18.188  0.00  0.00    +0.148 HD
BRANCH   7   1
ATOM      1  S   UNL     1      12.769   8.788  16.388  0.00  0.00    +0.027 S 
ATOM      4  O   UNL     1      11.358   8.973  16.109  0.00  0.00    -0.158 OA
ATOM      5  O   UNL     1      13.711   8.539  15.315  0.00  0.00    -0.158 OA
ATOM     16  C   UNL     1      13.342  10.217  17.278  0.00  0.00    +0.214 C 
ENDBRANCH   7   1
ENDBRANCH  13   7
ENDBRANCH  11  13
TORSDOF 7
ENDMDL
MODEL 5
REMARK VINA RESULT:      -5.6      4.707      7.965
REMARK  Name = 75536828
REMARK  8 active torsions:
REMARK  status: ('A' for Active; 'I' for Inactive)
REMARK    1  A    between atoms: S_1  and  N_7
REMARK    2  A    between atoms: S_1  and  C_16
REMARK    3  A    between atoms: O_3  and  C_10
REMARK    4  A    between atoms: N_6  and  C_9
REMARK    5  A    between atoms: N_6  and  C_14
REMARK    6  A    between atoms: N_7  and  C_13
REMARK    7  A    between atoms: C_11  and  C_13
REMARK    8  A    between atoms: C_14  and  C_15
REMARK                            x       y       z     vdW  Elec       q    Type
REMARK                         _______ _______ _______ _____ _____    ______ ____
ROOT
ATOM      2  O   UNL     1      18.265   7.086  21.639  0.00  0.00    -0.371 OA
ATOM      9  C   UNL     1      16.560   6.539  20.077  0.00  0.00    +0.111 C 
ATOM     10  C   UNL     1      17.913   6.225  19.464  0.00  0.00    +0.164 C 
ATOM     11  C   UNL     1      18.782   6.119  20.710  0.00  0.00    +0.164 C 
ATOM     12  C   UNL     1      16.952   7.483  21.203  0.00  0.00    +0.181 C 
ENDROOT
BRANCH  10   3
ATOM      3  O   UNL     1      17.908   5.023  18.720  0.00  0.00    -0.388 OA
ATOM     22  H   UNL     1      17.934   5.248  17.775  0.00  0.00    +0.210 HD
ENDBRANCH  10   3
BRANCH   9   6
ATOM      6  N   UNL     1      15.620   7.134  19.142  0.00  0.00    -0.305 NA
ATOM     21  H   UNL     1      14.903   6.446  18.907  0.00  0.00    +0.123 HD
BRANCH   6  14
ATOM     14  C   UNL     1      14.974   8.306  19.720  0.00  0.00    +0.116 C 
BRANCH  14  15
ATOM      8  N   UNL     1      10.830   7.579  20.610  0.00  0.00    -0.263 NA
ATOM     15  C   UNL     1      13.524   8.052  20.032  0.00  0.00    -0.031 A 
ATOM     17  C   UNL     1      13.161   6.976  20.835  0.00  0.00    +0.024 A 
ATOM     18  C   UNL     1      12.542   8.891  19.518  0.00  0.00    +0.024 A 
ATOM     19  C   UNL     1      11.813   6.784  21.091  0.00  0.00    +0.111 A 
ATOM     20  C   UNL     1      11.221   8.614  19.834  0.00  0.00    +0.111 A 
ENDBRANCH  14  15
ENDBRANCH   6  14
ENDBRANCH   9   6
BRANCH  11  13
ATOM     13  C   UNL     1      20.250   6.398  20.443  0.00  0.00    +0.139 C 
BRANCH  13   7
ATOM      7  N   UNL     1      20.931   5.145  20.065  0.00  0.00    -0.192 NA
ATOM     23  H   UNL     1      21.363   5.180  19.132  0.00  0.00    +0.148 HD
BRANCH   7   1
ATOM      1  S   UNL     1      21.785   4.271  21.258  0.00  0.00    +0.027 S 
ATOM      4  O   UNL     1      21.747   2.855  20.951  0.00  0.00    -0.158 OA
ATOM      5  O   UNL     1      21.379   4.759  22.562  0.00  0.00    -0.158 OA
ATOM     16  C   UNL     1      23.441   4.850  20.965  0.00  0.00    +0.214 C 
ENDBRANCH   7   1
ENDBRANCH  13   7
ENDBRANCH  11  13
TORSDOF 7
ENDMDL
MODEL 6
REMARK VINA RESULT:      -5.4      2.716      3.470
REMARK  Name = 75536828
REMARK  8 active torsions:
REMARK  status: ('A' for Active; 'I' for Inactive)
REMARK    1  A    between atoms: S_1  and  N_7
REMARK    2  A    between atoms: S_1  and  C_16
REMARK    3  A    between atoms: O_3  and  C_10
REMARK    4  A    between atoms: N_6  and  C_9
REMARK    5  A    between atoms: N_6  and  C_14
REMARK    6  A    between atoms: N_7  and  C_13
REMARK    7  A    between atoms: C_11  and  C_13
REMARK    8  A    between atoms: C_14  and  C_15
REMARK                            x       y       z     vdW  Elec       q    Type
REMARK                         _______ _______ _______ _____ _____    ______ ____
ROOT
ATOM      2  O   UNL     1      10.442   8.396  19.998  0.00  0.00    -0.371 OA
ATOM      9  C   UNL     1      12.552   7.491  19.387  0.00  0.00    +0.111 C 
ATOM     10  C   UNL     1      12.510   7.679  20.892  0.00  0.00    +0.164 C 
ATOM     11  C   UNL     1      11.009   7.734  21.140  0.00  0.00    +0.164 C 
ATOM     12  C   UNL     1      11.417   8.399  18.940  0.00  0.00    +0.181 C 
ENDROOT
BRANCH  10   3
ATOM      3  O   UNL     1      13.122   6.612  21.592  0.00  0.00    -0.388 OA
ATOM     22  H   UNL     1      13.602   6.981  22.353  0.00  0.00    +0.210 HD
ENDBRANCH  10   3
BRANCH   9   6
ATOM      6  N   UNL     1      13.829   7.846  18.790  0.00  0.00    -0.305 NA
ATOM     21  H   UNL     1      14.491   7.084  18.941  0.00  0.00    +0.123 HD
BRANCH   6  14
ATOM     14  C   UNL     1      13.694   8.074  17.357  0.00  0.00    +0.116 C 
BRANCH  14  15
ATOM      8  N   UNL     1      15.300  11.887  16.182  0.00  0.00    -0.263 NA
ATOM     15  C   UNL     1      14.255   9.408  16.945  0.00  0.00    -0.031 A 
ATOM     17  C   UNL     1      14.431   9.707  15.598  0.00  0.00    +0.024 A 
ATOM     18  C   UNL     1      14.601  10.348  17.910  0.00  0.00    +0.024 A 
ATOM     19  C   UNL     1      14.953  10.949  15.271  0.00  0.00    +0.111 A 
ATOM     20  C   UNL     1      15.114  11.561  17.480  0.00  0.00    +0.111 A 
ENDBRANCH  14  15
ENDBRANCH   6  14
ENDBRANCH   9   6
BRANCH  11  13
ATOM     13  C   UNL     1      10.636   8.484  22.406  0.00  0.00    +0.139 C 
BRANCH  13   7
ATOM      7  N   UNL     1      11.819   9.196  22.926  0.00  0.00    -0.192 NA
ATOM     23  H   UNL     1      12.705   8.868  22.517  0.00  0.00    +0.148 HD
BRANCH   7   1
ATOM      1  S   UNL     1      11.710  10.870  23.243  0.00  0.00    +0.027 S 
ATOM      4  O   UNL     1      12.975  11.357  23.756  0.00  0.00    -0.158 OA
ATOM      5  O   UNL     1      10.473  11.120  23.957  0.00  0.00    -0.158 OA
ATOM     16  C   UNL     1      11.509  11.502  21.593  0.00  0.00    +0.214 C 
ENDBRANCH   7   1
ENDBRANCH  13   7
ENDBRANCH  11  13
TORSDOF 7
ENDMDL
MODEL 7
REMARK VINA RESULT:      -5.4     25.945     27.689
REMARK  Name = 75536828
REMARK  8 active torsions:
REMARK  status: ('A' for Active; 'I' for Inactive)
REMARK    1  A    between atoms: S_1  and  N_7
REMARK    2  A    between atoms: S_1  and  C_16
REMARK    3  A    between atoms: O_3  and  C_10
REMARK    4  A    between atoms: N_6  and  C_9
REMARK    5  A    between atoms: N_6  and  C_14
REMARK    6  A    between atoms: N_7  and  C_13
REMARK    7  A    between atoms: C_11  and  C_13
REMARK    8  A    between atoms: C_14  and  C_15
REMARK                            x       y       z     vdW  Elec       q    Type
REMARK                         _______ _______ _______ _____ _____    ______ ____
ROOT
ATOM      2  O   UNL     1      -7.445 -13.099  17.934  0.00  0.00    -0.371 OA
ATOM      9  C   UNL     1      -5.256 -12.535  18.666  0.00  0.00    +0.111 C 
ATOM     10  C   UNL     1      -6.245 -11.544  19.252  0.00  0.00    +0.164 C 
ATOM     11  C   UNL     1      -7.546 -12.327  19.143  0.00  0.00    +0.164 C 
ATOM     12  C   UNL     1      -6.067 -13.128  17.524  0.00  0.00    +0.181 C 
ENDROOT
BRANCH  10   3
ATOM      3  O   UNL     1      -5.946 -11.202  20.591  0.00  0.00    -0.388 OA
ATOM     22  H   UNL     1      -6.773 -11.217  21.103  0.00  0.00    +0.210 HD
ENDBRANCH  10   3
BRANCH   9   6
ATOM      6  N   UNL     1      -4.013 -11.926  18.221  0.00  0.00    -0.305 NA
ATOM     21  H   UNL     1      -3.507 -12.593  17.637  0.00  0.00    +0.123 HD
BRANCH   6  14
ATOM     14  C   UNL     1      -4.268 -10.719  17.445  0.00  0.00    +0.116 C 
BRANCH  14  15
ATOM      8  N   UNL     1      -1.992 -10.648  13.797  0.00  0.00    -0.263 NA
ATOM     15  C   UNL     1      -3.471 -10.694  16.169  0.00  0.00    -0.031 A 
ATOM     17  C   UNL     1      -2.081 -10.685  16.213  0.00  0.00    +0.024 A 
ATOM     18  C   UNL     1      -4.121 -10.680  14.940  0.00  0.00    +0.024 A 
ATOM     19  C   UNL     1      -1.394 -10.662  15.010  0.00  0.00    +0.111 A 
ATOM     20  C   UNL     1      -3.343 -10.657  13.794  0.00  0.00    +0.111 A 
ENDBRANCH  14  15
ENDBRANCH   6  14
ENDBRANCH   9   6
BRANCH  11  13
ATOM     13  C   UNL     1      -8.777 -11.441  19.085  0.00  0.00    +0.139 C 
BRANCH  13   7
ATOM      7  N   UNL     1      -8.370 -10.042  18.853  0.00  0.00    -0.192 NA
ATOM     23  H   UNL     1      -7.501  -9.784  19.340  0.00  0.00    +0.148 HD
BRANCH   7   1
ATOM      1  S   UNL     1      -8.601  -9.355  17.307  0.00  0.00    +0.027 S 
ATOM      4  O   UNL     1      -7.336  -9.295  16.603  0.00  0.00    -0.158 OA
ATOM      5  O   UNL     1      -9.428  -8.173  17.450  0.00  0.00    -0.158 OA
ATOM     16  C   UNL     1      -9.596 -10.612  16.537  0.00  0.00    +0.214 C 
ENDBRANCH   7   1
ENDBRANCH  13   7
ENDBRANCH  11  13
TORSDOF 7
ENDMDL
MODEL 8
REMARK VINA RESULT:      -5.2     25.932     27.991
REMARK  Name = 75536828
REMARK  8 active torsions:
REMARK  status: ('A' for Active; 'I' for Inactive)
REMARK    1  A    between atoms: S_1  and  N_7
REMARK    2  A    between atoms: S_1  and  C_16
REMARK    3  A    between atoms: O_3  and  C_10
REMARK    4  A    between atoms: N_6  and  C_9
REMARK    5  A    between atoms: N_6  and  C_14
REMARK    6  A    between atoms: N_7  and  C_13
REMARK    7  A    between atoms: C_11  and  C_13
REMARK    8  A    between atoms: C_14  and  C_15
REMARK                            x       y       z     vdW  Elec       q    Type
REMARK                         _______ _______ _______ _____ _____    ______ ____
ROOT
ATOM      2  O   UNL     1      -3.687 -10.494  13.729  0.00  0.00    -0.371 OA
ATOM      9  C   UNL     1      -3.062 -10.739  16.008  0.00  0.00    +0.111 C 
ATOM     10  C   UNL     1      -1.971 -11.323  15.130  0.00  0.00    +0.164 C 
ATOM     11  C   UNL     1      -2.259 -10.631  13.804  0.00  0.00    +0.164 C 
ATOM     12  C   UNL     1      -4.236 -10.700  15.043  0.00  0.00    +0.181 C 
ENDROOT
BRANCH  10   3
ATOM      3  O   UNL     1      -0.672 -11.031  15.606  0.00  0.00    -0.388 OA
ATOM     22  H   UNL     1      -0.567 -11.442  16.481  0.00  0.00    +0.210 HD
ENDBRANCH  10   3
BRANCH   9   6
ATOM      6  N   UNL     1      -3.335 -11.524  17.200  0.00  0.00    -0.305 NA
ATOM     21  H   UNL     1      -3.431 -10.895  17.999  0.00  0.00    +0.123 HD
BRANCH   6  14
ATOM     14  C   UNL     1      -4.566 -12.291  17.054  0.00  0.00    +0.116 C 
BRANCH  14  15
ATOM      8  N   UNL     1      -7.494 -11.201  20.010  0.00  0.00    -0.263 NA
ATOM     15  C   UNL     1      -5.590 -11.910  18.088  0.00  0.00    -0.031 A 
ATOM     17  C   UNL     1      -6.675 -12.744  18.337  0.00  0.00    +0.024 A 
ATOM     18  C   UNL     1      -5.457 -10.723  18.799  0.00  0.00    +0.024 A 
ATOM     19  C   UNL     1      -7.591 -12.347  19.299  0.00  0.00    +0.111 A 
ATOM     20  C   UNL     1      -6.426 -10.416  19.740  0.00  0.00    +0.111 A 
ENDBRANCH  14  15
ENDBRANCH   6  14
ENDBRANCH   9   6
BRANCH  11  13
ATOM     13  C   UNL     1      -1.753 -11.405  12.600  0.00  0.00    +0.139 C 
BRANCH  13   7
ATOM      7  N   UNL     1      -1.555 -12.820  12.969  0.00  0.00    -0.192 NA
ATOM     23  H   UNL     1      -1.268 -12.950  13.948  0.00  0.00    +0.148 HD
BRANCH   7   1
ATOM      1  S   UNL     1      -2.610 -14.000  12.329  0.00  0.00    +0.027 S 
ATOM      4  O   UNL     1      -1.901 -15.252  12.157  0.00  0.00    -0.158 OA
ATOM      5  O   UNL     1      -3.347 -13.408  11.230  0.00  0.00    -0.158 OA
ATOM     16  C   UNL     1      -3.743 -14.195  13.685  0.00  0.00    +0.214 C 
ENDBRANCH   7   1
ENDBRANCH  13   7
ENDBRANCH  11  13
TORSDOF 7
ENDMDL
MODEL 9
REMARK VINA RESULT:      -5.1     25.522     28.066
REMARK  Name = 75536828
REMARK  8 active torsions:
REMARK  status: ('A' for Active; 'I' for Inactive)
REMARK    1  A    between atoms: S_1  and  N_7
REMARK    2  A    between atoms: S_1  and  C_16
REMARK    3  A    between atoms: O_3  and  C_10
REMARK    4  A    between atoms: N_6  and  C_9
REMARK    5  A    between atoms: N_6  and  C_14
REMARK    6  A    between atoms: N_7  and  C_13
REMARK    7  A    between atoms: C_11  and  C_13
REMARK    8  A    between atoms: C_14  and  C_15
REMARK                            x       y       z     vdW  Elec       q    Type
REMARK                         _______ _______ _______ _____ _____    ______ ____
ROOT
ATOM      2  O   UNL     1     -15.829   6.743  23.207  0.00  0.00    -0.371 OA
ATOM      9  C   UNL     1     -13.997   6.659  21.696  0.00  0.00    +0.111 C 
ATOM     10  C   UNL     1     -14.009   5.392  22.531  0.00  0.00    +0.164 C 
ATOM     11  C   UNL     1     -15.454   5.370  23.010  0.00  0.00    +0.164 C 
ATOM     12  C   UNL     1     -14.871   7.579  22.535  0.00  0.00    +0.181 C 
ENDROOT
BRANCH  10   3
ATOM      3  O   UNL     1     -13.685   4.240  21.778  0.00  0.00    -0.388 OA
ATOM     22  H   UNL     1     -14.404   4.077  21.144  0.00  0.00    +0.210 HD
ENDBRANCH  10   3
BRANCH   9   6
ATOM      6  N   UNL     1     -12.665   7.196  21.469  0.00  0.00    -0.305 NA
ATOM     21  H   UNL     1     -12.067   6.948  22.258  0.00  0.00    +0.123 HD
BRANCH   6  14
ATOM     14  C   UNL     1     -12.082   6.654  20.247  0.00  0.00    +0.116 C 
BRANCH  14  15
ATOM      8  N   UNL     1     -10.111   9.691  17.927  0.00  0.00    -0.263 NA
ATOM     15  C   UNL     1     -11.392   7.717  19.436  0.00  0.00    -0.031 A 
ATOM     17  C   UNL     1     -11.059   8.934  20.019  0.00  0.00    +0.024 A 
ATOM     18  C   UNL     1     -11.085   7.486  18.100  0.00  0.00    +0.024 A 
ATOM     19  C   UNL     1     -10.425   9.880  19.229  0.00  0.00    +0.111 A 
ATOM     20  C   UNL     1     -10.450   8.496  17.395  0.00  0.00    +0.111 A 
ENDBRANCH  14  15
ENDBRANCH   6  14
ENDBRANCH   9   6
BRANCH  11  13
ATOM     13  C   UNL     1     -15.647   4.595  24.302  0.00  0.00    +0.139 C 
BRANCH  13   7
ATOM      7  N   UNL     1     -15.684   3.149  24.011  0.00  0.00    -0.192 NA
ATOM     23  H   UNL     1     -15.011   2.604  24.568  0.00  0.00    +0.148 HD
BRANCH   7   1
ATOM      1  S   UNL     1     -17.187   2.402  23.702  0.00  0.00    +0.027 S 
ATOM      4  O   UNL     1     -17.103   1.612  22.489  0.00  0.00    -0.158 OA
ATOM      5  O   UNL     1     -18.234   3.391  23.872  0.00  0.00    -0.158 OA
ATOM     16  C   UNL     1     -17.285   1.281  25.079  0.00  0.00    +0.214 C 
ENDBRANCH   7   1
ENDBRANCH  13   7
ENDBRANCH  11  13
TORSDOF 7
ENDMDL
MODEL 10
REMARK VINA RESULT:      -5.1     25.813     27.652
REMARK  Name = 75536828
REMARK  8 active torsions:
REMARK  status: ('A' for Active; 'I' for Inactive)
REMARK    1  A    between atoms: S_1  and  N_7
REMARK    2  A    between atoms: S_1  and  C_16
REMARK    3  A    between atoms: O_3  and  C_10
REMARK    4  A    between atoms: N_6  and  C_9
REMARK    5  A    between atoms: N_6  and  C_14
REMARK    6  A    between atoms: N_7  and  C_13
REMARK    7  A    between atoms: C_11  and  C_13
REMARK    8  A    between atoms: C_14  and  C_15
REMARK                            x       y       z     vdW  Elec       q    Type
REMARK                         _______ _______ _______ _____ _____    ______ ____
ROOT
ATOM      2  O   UNL     1      -1.783 -10.466  12.664  0.00  0.00    -0.371 OA
ATOM      9  C   UNL     1      -3.380 -10.849  14.381  0.00  0.00    +0.111 C 
ATOM     10  C   UNL     1      -4.107 -10.481  13.101  0.00  0.00    +0.164 C 
ATOM     11  C   UNL     1      -3.044 -10.795  12.058  0.00  0.00    +0.164 C 
ATOM     12  C   UNL     1      -1.977 -10.345  14.084  0.00  0.00    +0.181 C 
ENDROOT
BRANCH  10   3
ATOM      3  O   UNL     1      -5.282 -11.242  12.902  0.00  0.00    -0.388 OA
ATOM     22  H   UNL     1      -5.330 -11.919  13.600  0.00  0.00    +0.210 HD
ENDBRANCH  10   3
BRANCH   9   6
ATOM      6  N   UNL     1      -3.957 -10.250  15.573  0.00  0.00    -0.305 NA
ATOM     21  H   UNL     1      -4.966 -10.162  15.447  0.00  0.00    +0.123 HD
BRANCH   6  14
ATOM     14  C   UNL     1      -3.700 -11.072  16.750  0.00  0.00    +0.116 C 
BRANCH  14  15
ATOM      8  N   UNL     1      -6.871 -10.765  19.640  0.00  0.00    -0.263 NA
ATOM     15  C   UNL     1      -4.810 -10.965  17.761  0.00  0.00    -0.031 A 
ATOM     17  C   UNL     1      -5.971 -10.263  17.452  0.00  0.00    +0.024 A 
ATOM     18  C   UNL     1      -4.679 -11.566  19.007  0.00  0.00    +0.024 A 
ATOM     19  C   UNL     1      -6.962 -10.193  18.418  0.00  0.00    +0.111 A 
ATOM     20  C   UNL     1      -5.729 -11.438  19.903  0.00  0.00    +0.111 A 
ENDBRANCH  14  15
ENDBRANCH   6  14
ENDBRANCH   9   6
BRANCH  11  13
ATOM     13  C   UNL     1      -3.215 -10.009  10.770  0.00  0.00    +0.139 C 
BRANCH  13   7
ATOM      7  N   UNL     1      -4.428  -9.172  10.858  0.00  0.00    -0.192 NA
ATOM     23  H   UNL     1      -4.227  -8.182  11.054  0.00  0.00    +0.148 HD
BRANCH   7   1
ATOM      1  S   UNL     1      -5.729  -9.482   9.797  0.00  0.00    +0.027 S 
ATOM      4  O   UNL     1      -6.476  -8.262   9.567  0.00  0.00    -0.158 OA
ATOM      5  O   UNL     1      -6.399 -10.691  10.235  0.00  0.00    -0.158 OA
ATOM     16  C   UNL     1      -4.847  -9.874   8.303  0.00  0.00    +0.214 C 
ENDBRANCH   7   1
ENDBRANCH  13   7
ENDBRANCH  11  13
TORSDOF 7
ENDMDL
