MODEL 1
REMARK VINA RESULT:      -6.0      0.000      0.000
REMARK  Name = 56775617
REMARK  12 active torsions:
REMARK  status: ('A' for Active; 'I' for Inactive)
REMARK    1  A    between atoms: O_6  and  C_25
REMARK    2  A    between atoms: O_6  and  C_33
REMARK    3  A    between atoms: N_7  and  C_10
REMARK    4  A    between atoms: N_7  and  C_15
REMARK    5  A    between atoms: N_9  and  C_19
REMARK    6  A    between atoms: N_9  and  C_22
REMARK    7  A    between atoms: N_9  and  C_26
REMARK    8  A    between atoms: C_10  and  C_13
REMARK    9  A    between atoms: C_13  and  C_14
REMARK   10  A    between atoms: C_15  and  C_17
REMARK   11  A    between atoms: C_18  and  C_19
REMARK   12  A    between atoms: C_22  and  C_27
REMARK                            x       y       z     vdW  Elec       q    Type
REMARK                         _______ _______ _______ _____ _____    ______ ____
ROOT
ATOM      4  O   UNL     1      14.480  12.534  13.494  0.00  0.00    -0.376 OA
ATOM     10  C   UNL     1      14.990  12.226  15.543  0.00  0.00    +0.072 C 
ATOM     11  C   UNL     1      14.338  13.317  14.701  0.00  0.00    +0.184 C 
ATOM     12  C   UNL     1      15.190  11.503  14.217  0.00  0.00    +0.184 C 
ENDROOT
BRANCH  10   7
ATOM      7  N   UNL     1      13.955  11.539  16.303  0.00  0.00    -0.302 NA
ATOM     34  H   UNL     1      13.019  11.588  15.900  0.00  0.00    +0.123 HD
BRANCH   7  15
ATOM     15  C   UNL     1      14.332  10.142  16.503  0.00  0.00    +0.117 C 
BRANCH  15  17
ATOM     17  C   UNL     1      13.449   9.463  17.515  0.00  0.00    -0.033 A 
ATOM     20  C   UNL     1      12.986   8.168  17.280  0.00  0.00    +0.008 A 
ATOM     21  C   UNL     1      13.095  10.127  18.689  0.00  0.00    +0.008 A 
ATOM     23  C   UNL     1      12.169   7.538  18.219  0.00  0.00    +0.046 A 
ATOM     24  C   UNL     1      12.280   9.496  19.629  0.00  0.00    +0.046 A 
ATOM     25  C   UNL     1      11.816   8.202  19.394  0.00  0.00    +0.130 A 
BRANCH  25   6
ATOM      6  O   UNL     1      11.020   7.586  20.310  0.00  0.00    -0.406 OA
BRANCH   6  33
ATOM      1  F   UNL     1      11.588   7.666  22.493  0.00  0.00    -0.133 F 
ATOM      2  F   UNL     1      11.004   5.735  21.654  0.00  0.00    -0.133 F 
ATOM      3  F   UNL     1      12.945   6.646  21.116  0.00  0.00    -0.133 F 
ATOM     33  C   UNL     1      11.644   6.893  21.385  0.00  0.00    +0.575 C 
ENDBRANCH   6  33
ENDBRANCH  25   6
ENDBRANCH  15  17
ENDBRANCH   7  15
ENDBRANCH  10   7
BRANCH  10  13
ATOM     13  C   UNL     1      16.220  12.578  16.392  0.00  0.00    +0.085 C 
BRANCH  13  14
ATOM      5  O   UNL     1      14.911  13.078  19.677  0.00  0.00    -0.358 OA
ATOM      8  N   UNL     1      14.961  13.362  18.318  0.00  0.00    -0.083 NA
ATOM     14  C   UNL     1      15.900  12.548  17.828  0.00  0.00    +0.086 A 
ATOM     16  C   UNL     1      16.473  11.735  18.821  0.00  0.00    +0.072 A 
ATOM     18  C   UNL     1      15.817  12.108  19.965  0.00  0.00    +0.151 A 
BRANCH  18  19
ATOM     19  C   UNL     1      15.900  11.672  21.403  0.00  0.00    +0.161 C 
BRANCH  19   9
ATOM      9  N   UNL     1      15.524  10.268  21.570  0.00  0.00    -0.294 NA
ATOM     26  C   UNL     1      14.559  10.124  22.659  0.00  0.00    +0.105 C 
BRANCH   9  22
ATOM     22  C   UNL     1      16.708   9.449  21.824  0.00  0.00    +0.119 C 
BRANCH  22  27
ATOM     27  C   UNL     1      16.778   8.264  20.899  0.00  0.00    -0.033 A 
ATOM     28  C   UNL     1      17.920   7.462  20.877  0.00  0.00    +0.005 A 
ATOM     29  C   UNL     1      15.702   7.967  20.063  0.00  0.00    +0.005 A 
ATOM     30  C   UNL     1      17.984   6.364  20.019  0.00  0.00    +0.000 A 
ATOM     31  C   UNL     1      15.766   6.870  19.205  0.00  0.00    +0.000 A 
ATOM     32  C   UNL     1      16.908   6.067  19.184  0.00  0.00    +0.000 A 
ENDBRANCH  22  27
ENDBRANCH   9  22
ENDBRANCH  19   9
ENDBRANCH  18  19
ENDBRANCH  13  14
ENDBRANCH  10  13
TORSDOF 11
ENDMDL
MODEL 2
REMARK VINA RESULT:      -5.9      2.985      6.019
REMARK  Name = 56775617
REMARK  12 active torsions:
REMARK  status: ('A' for Active; 'I' for Inactive)
REMARK    1  A    between atoms: O_6  and  C_25
REMARK    2  A    between atoms: O_6  and  C_33
REMARK    3  A    between atoms: N_7  and  C_10
REMARK    4  A    between atoms: N_7  and  C_15
REMARK    5  A    between atoms: N_9  and  C_19
REMARK    6  A    between atoms: N_9  and  C_22
REMARK    7  A    between atoms: N_9  and  C_26
REMARK    8  A    between atoms: C_10  and  C_13
REMARK    9  A    between atoms: C_13  and  C_14
REMARK   10  A    between atoms: C_15  and  C_17
REMARK   11  A    between atoms: C_18  and  C_19
REMARK   12  A    between atoms: C_22  and  C_27
REMARK                            x       y       z     vdW  Elec       q    Type
REMARK                         _______ _______ _______ _____ _____    ______ ____
ROOT
ATOM      4  O   UNL     1      12.267  12.192  25.712  0.00  0.00    -0.376 OA
ATOM     10  C   UNL     1      11.420  11.461  23.895  0.00  0.00    +0.072 C 
ATOM     11  C   UNL     1      12.805  11.817  24.424  0.00  0.00    +0.184 C 
ATOM     12  C   UNL     1      10.919  11.964  25.243  0.00  0.00    +0.184 C 
ENDROOT
BRANCH  10   7
ATOM      7  N   UNL     1      11.293  10.011  23.856  0.00  0.00    -0.302 NA
ATOM     34  H   UNL     1      10.652   9.615  24.543  0.00  0.00    +0.123 HD
BRANCH   7  15
ATOM     15  C   UNL     1      10.903   9.584  22.515  0.00  0.00    +0.117 C 
BRANCH  15  17
ATOM     17  C   UNL     1      11.940   8.692  21.886  0.00  0.00    -0.033 A 
ATOM     20  C   UNL     1      11.551   7.670  21.021  0.00  0.00    +0.008 A 
ATOM     21  C   UNL     1      13.292   8.891  22.167  0.00  0.00    +0.008 A 
ATOM     23  C   UNL     1      12.512   6.845  20.438  0.00  0.00    +0.046 A 
ATOM     24  C   UNL     1      14.254   8.067  21.583  0.00  0.00    +0.046 A 
ATOM     25  C   UNL     1      13.864   7.045  20.718  0.00  0.00    +0.130 A 
BRANCH  25   6
ATOM      6  O   UNL     1      14.803   6.240  20.147  0.00  0.00    -0.406 OA
BRANCH   6  33
ATOM      1  F   UNL     1      16.540   5.874  18.754  0.00  0.00    -0.133 F 
ATOM      2  F   UNL     1      14.807   6.952  17.973  0.00  0.00    -0.133 F 
ATOM      3  F   UNL     1      16.170   7.923  19.418  0.00  0.00    -0.133 F 
ATOM     33  C   UNL     1      15.572   6.764  19.070  0.00  0.00    +0.575 C 
ENDBRANCH   6  33
ENDBRANCH  25   6
ENDBRANCH  15  17
ENDBRANCH   7  15
ENDBRANCH  10   7
BRANCH  10  13
ATOM     13  C   UNL     1      10.918  12.141  22.613  0.00  0.00    +0.085 C 
BRANCH  13  14
ATOM      5  O   UNL     1      13.417  14.304  21.261  0.00  0.00    -0.358 OA
ATOM      8  N   UNL     1      12.347  14.041  22.108  0.00  0.00    -0.083 NA
ATOM     14  C   UNL     1      12.027  12.765  21.874  0.00  0.00    +0.086 A 
ATOM     16  C   UNL     1      12.851  12.178  20.899  0.00  0.00    +0.072 A 
ATOM     18  C   UNL     1      13.707  13.188  20.546  0.00  0.00    +0.151 A 
BRANCH  18  19
ATOM     19  C   UNL     1      14.848  13.293  19.570  0.00  0.00    +0.161 C 
BRANCH  19   9
ATOM      9  N   UNL     1      15.408  11.981  19.242  0.00  0.00    -0.294 NA
ATOM     26  C   UNL     1      16.758  11.851  19.786  0.00  0.00    +0.105 C 
BRANCH   9  22
ATOM     22  C   UNL     1      15.418  11.779  17.794  0.00  0.00    +0.119 C 
BRANCH  22  27
ATOM     27  C   UNL     1      14.308  10.864  17.349  0.00  0.00    -0.033 A 
ATOM     28  C   UNL     1      13.973  10.779  15.996  0.00  0.00    +0.005 A 
ATOM     29  C   UNL     1      13.613  10.102  18.287  0.00  0.00    +0.005 A 
ATOM     30  C   UNL     1      12.944   9.932  15.585  0.00  0.00    +0.000 A 
ATOM     31  C   UNL     1      12.584   9.256  17.876  0.00  0.00    +0.000 A 
ATOM     32  C   UNL     1      12.251   9.170  16.523  0.00  0.00    +0.000 A 
ENDBRANCH  22  27
ENDBRANCH   9  22
ENDBRANCH  19   9
ENDBRANCH  18  19
ENDBRANCH  13  14
ENDBRANCH  10  13
TORSDOF 11
ENDMDL
MODEL 3
REMARK VINA RESULT:      -5.6      3.180      6.813
REMARK  Name = 56775617
REMARK  12 active torsions:
REMARK  status: ('A' for Active; 'I' for Inactive)
REMARK    1  A    between atoms: O_6  and  C_25
REMARK    2  A    between atoms: O_6  and  C_33
REMARK    3  A    between atoms: N_7  and  C_10
REMARK    4  A    between atoms: N_7  and  C_15
REMARK    5  A    between atoms: N_9  and  C_19
REMARK    6  A    between atoms: N_9  and  C_22
REMARK    7  A    between atoms: N_9  and  C_26
REMARK    8  A    between atoms: C_10  and  C_13
REMARK    9  A    between atoms: C_13  and  C_14
REMARK   10  A    between atoms: C_15  and  C_17
REMARK   11  A    between atoms: C_18  and  C_19
REMARK   12  A    between atoms: C_22  and  C_27
REMARK                            x       y       z     vdW  Elec       q    Type
REMARK                         _______ _______ _______ _____ _____    ______ ____
ROOT
ATOM      4  O   UNL     1      10.913   8.132  22.727  0.00  0.00    -0.376 OA
ATOM     10  C   UNL     1      11.543   8.049  20.689  0.00  0.00    +0.072 C 
ATOM     11  C   UNL     1      11.579   9.055  21.835  0.00  0.00    +0.184 C 
ATOM     12  C   UNL     1      10.762   7.170  21.658  0.00  0.00    +0.184 C 
ENDROOT
BRANCH  10   7
ATOM      7  N   UNL     1      12.877   7.490  20.517  0.00  0.00    -0.302 NA
ATOM     34  H   UNL     1      13.067   7.102  19.593  0.00  0.00    +0.123 HD
BRANCH   7  15
ATOM     15  C   UNL     1      13.882   8.496  20.846  0.00  0.00    +0.117 C 
BRANCH  15  17
ATOM     17  C   UNL     1      15.282   7.964  20.687  0.00  0.00    -0.033 A 
ATOM     20  C   UNL     1      15.497   6.748  20.038  0.00  0.00    +0.008 A 
ATOM     21  C   UNL     1      16.364   8.689  21.186  0.00  0.00    +0.008 A 
ATOM     23  C   UNL     1      16.793   6.256  19.889  0.00  0.00    +0.046 A 
ATOM     24  C   UNL     1      17.661   8.197  21.036  0.00  0.00    +0.046 A 
ATOM     25  C   UNL     1      17.876   6.981  20.388  0.00  0.00    +0.130 A 
BRANCH  25   6
ATOM      6  O   UNL     1      19.141   6.501  20.240  0.00  0.00    -0.406 OA
BRANCH   6  33
ATOM      1  F   UNL     1      19.123   6.253  22.484  0.00  0.00    -0.133 F 
ATOM      2  F   UNL     1      20.664   5.201  21.346  0.00  0.00    -0.133 F 
ATOM      3  F   UNL     1      20.757   7.396  21.591  0.00  0.00    -0.133 F 
ATOM     33  C   UNL     1      19.938   6.338  21.408  0.00  0.00    +0.575 C 
ENDBRANCH   6  33
ENDBRANCH  25   6
ENDBRANCH  15  17
ENDBRANCH   7  15
ENDBRANCH  10   7
BRANCH  10  13
ATOM     13  C   UNL     1      10.890   8.458  19.363  0.00  0.00    +0.085 C 
BRANCH  13  14
ATOM      5  O   UNL     1      13.163   7.693  16.716  0.00  0.00    -0.358 OA
ATOM      8  N   UNL     1      12.244   7.326  17.692  0.00  0.00    -0.083 NA
ATOM     14  C   UNL     1      11.874   8.472  18.268  0.00  0.00    +0.086 A 
ATOM     16  C   UNL     1      12.520   9.586  17.705  0.00  0.00    +0.072 A 
ATOM     18  C   UNL     1      13.320   9.042  16.734  0.00  0.00    +0.151 A 
BRANCH  18  19
ATOM     19  C   UNL     1      14.287   9.619  15.736  0.00  0.00    +0.161 C 
BRANCH  19   9
ATOM      9  N   UNL     1      14.279  11.082  15.752  0.00  0.00    -0.294 NA
ATOM     26  C   UNL     1      14.327  11.609  14.390  0.00  0.00    +0.105 C 
BRANCH   9  22
ATOM     22  C   UNL     1      15.403  11.589  16.537  0.00  0.00    +0.119 C 
BRANCH  22  27
ATOM     27  C   UNL     1      14.963  12.089  17.887  0.00  0.00    -0.033 A 
ATOM     28  C   UNL     1      15.598  11.631  19.042  0.00  0.00    +0.005 A 
ATOM     29  C   UNL     1      13.920  13.011  17.984  0.00  0.00    +0.005 A 
ATOM     30  C   UNL     1      15.190  12.094  20.293  0.00  0.00    +0.000 A 
ATOM     31  C   UNL     1      13.512  13.473  19.235  0.00  0.00    +0.000 A 
ATOM     32  C   UNL     1      14.148  13.015  20.389  0.00  0.00    +0.000 A 
ENDBRANCH  22  27
ENDBRANCH   9  22
ENDBRANCH  19   9
ENDBRANCH  18  19
ENDBRANCH  13  14
ENDBRANCH  10  13
TORSDOF 11
ENDMDL
MODEL 4
REMARK VINA RESULT:      -5.4     26.842     29.938
REMARK  Name = 56775617
REMARK  12 active torsions:
REMARK  status: ('A' for Active; 'I' for Inactive)
REMARK    1  A    between atoms: O_6  and  C_25
REMARK    2  A    between atoms: O_6  and  C_33
REMARK    3  A    between atoms: N_7  and  C_10
REMARK    4  A    between atoms: N_7  and  C_15
REMARK    5  A    between atoms: N_9  and  C_19
REMARK    6  A    between atoms: N_9  and  C_22
REMARK    7  A    between atoms: N_9  and  C_26
REMARK    8  A    between atoms: C_10  and  C_13
REMARK    9  A    between atoms: C_13  and  C_14
REMARK   10  A    between atoms: C_15  and  C_17
REMARK   11  A    between atoms: C_18  and  C_19
REMARK   12  A    between atoms: C_22  and  C_27
REMARK                            x       y       z     vdW  Elec       q    Type
REMARK                         _______ _______ _______ _____ _____    ______ ____
ROOT
ATOM      4  O   UNL     1     -10.847  -7.490  17.003  0.00  0.00    -0.376 OA
ATOM     10  C   UNL     1      -9.755  -9.174  16.276  0.00  0.00    +0.072 C 
ATOM     11  C   UNL     1     -10.604  -8.050  15.692  0.00  0.00    +0.184 C 
ATOM     12  C   UNL     1     -10.134  -8.581  17.628  0.00  0.00    +0.184 C 
ENDROOT
BRANCH  10   7
ATOM      7  N   UNL     1      -8.352  -8.885  16.012  0.00  0.00    -0.302 NA
ATOM     34  H   UNL     1      -8.144  -7.910  15.801  0.00  0.00    +0.123 HD
BRANCH   7  15
ATOM     15  C   UNL     1      -7.535  -9.332  17.138  0.00  0.00    +0.117 C 
BRANCH  15  17
ATOM     17  C   UNL     1      -6.228  -9.923  16.682  0.00  0.00    -0.033 A 
ATOM     20  C   UNL     1      -5.391 -10.559  17.600  0.00  0.00    +0.008 A 
ATOM     21  C   UNL     1      -5.855  -9.839  15.341  0.00  0.00    +0.008 A 
ATOM     23  C   UNL     1      -4.182 -11.108  17.177  0.00  0.00    +0.046 A 
ATOM     24  C   UNL     1      -4.645 -10.390  14.918  0.00  0.00    +0.046 A 
ATOM     25  C   UNL     1      -3.809 -11.024  15.835  0.00  0.00    +0.130 A 
BRANCH  25   6
ATOM      6  O   UNL     1      -2.628 -11.562  15.422  0.00  0.00    -0.406 OA
BRANCH   6  33
ATOM      1  F   UNL     1      -0.380 -11.367  15.415  0.00  0.00    -0.133 F 
ATOM      2  F   UNL     1      -1.515 -10.231  13.932  0.00  0.00    -0.133 F 
ATOM      3  F   UNL     1      -1.559  -9.644  16.063  0.00  0.00    -0.133 F 
ATOM     33  C   UNL     1      -1.529 -10.685  15.204  0.00  0.00    +0.575 C 
ENDBRANCH   6  33
ENDBRANCH  25   6
ENDBRANCH  15  17
ENDBRANCH   7  15
ENDBRANCH  10   7
BRANCH  10  13
ATOM     13  C   UNL     1     -10.135 -10.628  15.967  0.00  0.00    +0.085 C 
BRANCH  13  14
ATOM      5  O   UNL     1      -8.253 -11.386  13.028  0.00  0.00    -0.358 OA
ATOM      8  N   UNL     1      -9.150 -10.604  13.745  0.00  0.00    -0.083 NA
ATOM     14  C   UNL     1      -9.254 -11.200  14.936  0.00  0.00    +0.086 A 
ATOM     16  C   UNL     1      -8.455 -12.352  15.028  0.00  0.00    +0.072 A 
ATOM     18  C   UNL     1      -7.847 -12.425  13.803  0.00  0.00    +0.151 A 
BRANCH  18  19
ATOM     19  C   UNL     1      -6.866 -13.383  13.181  0.00  0.00    +0.161 C 
BRANCH  19   9
ATOM      9  N   UNL     1      -6.382 -12.904  11.886  0.00  0.00    -0.294 NA
ATOM     26  C   UNL     1      -6.719 -13.856  10.830  0.00  0.00    +0.105 C 
BRANCH   9  22
ATOM     22  C   UNL     1      -4.938 -12.682  11.933  0.00  0.00    +0.119 C 
BRANCH  22  27
ATOM     27  C   UNL     1      -4.559 -11.336  11.374  0.00  0.00    -0.033 A 
ATOM     28  C   UNL     1      -5.551 -10.401  11.074  0.00  0.00    +0.005 A 
ATOM     29  C   UNL     1      -3.218 -11.024  11.155  0.00  0.00    +0.005 A 
ATOM     30  C   UNL     1      -5.200  -9.154  10.556  0.00  0.00    +0.000 A 
ATOM     31  C   UNL     1      -2.867  -9.778  10.636  0.00  0.00    +0.000 A 
ATOM     32  C   UNL     1      -3.859  -8.842  10.338  0.00  0.00    +0.000 A 
ENDBRANCH  22  27
ENDBRANCH   9  22
ENDBRANCH  19   9
ENDBRANCH  18  19
ENDBRANCH  13  14
ENDBRANCH  10  13
TORSDOF 11
ENDMDL
MODEL 5
REMARK VINA RESULT:      -5.3      3.136      6.175
REMARK  Name = 56775617
REMARK  12 active torsions:
REMARK  status: ('A' for Active; 'I' for Inactive)
REMARK    1  A    between atoms: O_6  and  C_25
REMARK    2  A    between atoms: O_6  and  C_33
REMARK    3  A    between atoms: N_7  and  C_10
REMARK    4  A    between atoms: N_7  and  C_15
REMARK    5  A    between atoms: N_9  and  C_19
REMARK    6  A    between atoms: N_9  and  C_22
REMARK    7  A    between atoms: N_9  and  C_26
REMARK    8  A    between atoms: C_10  and  C_13
REMARK    9  A    between atoms: C_13  and  C_14
REMARK   10  A    between atoms: C_15  and  C_17
REMARK   11  A    between atoms: C_18  and  C_19
REMARK   12  A    between atoms: C_22  and  C_27
REMARK                            x       y       z     vdW  Elec       q    Type
REMARK                         _______ _______ _______ _____ _____    ______ ____
ROOT
ATOM      4  O   UNL     1      20.976   5.774  23.232  0.00  0.00    -0.376 OA
ATOM     10  C   UNL     1      19.820   7.084  22.006  0.00  0.00    +0.072 C 
ATOM     11  C   UNL     1      20.677   5.837  21.819  0.00  0.00    +0.184 C 
ATOM     12  C   UNL     1      20.257   7.006  23.464  0.00  0.00    +0.184 C 
ENDROOT
BRANCH  10   7
ATOM      7  N   UNL     1      18.417   6.705  21.915  0.00  0.00    -0.302 NA
ATOM     34  H   UNL     1      17.790   7.218  22.534  0.00  0.00    +0.123 HD
BRANCH   7  15
ATOM     15  C   UNL     1      17.959   6.831  20.534  0.00  0.00    +0.117 C 
BRANCH  15  17
ATOM     17  C   UNL     1      16.459   6.934  20.447  0.00  0.00    -0.033 A 
ATOM     20  C   UNL     1      15.714   7.250  21.584  0.00  0.00    +0.008 A 
ATOM     21  C   UNL     1      15.815   6.716  19.229  0.00  0.00    +0.008 A 
ATOM     23  C   UNL     1      14.326   7.347  21.503  0.00  0.00    +0.046 A 
ATOM     24  C   UNL     1      14.426   6.815  19.148  0.00  0.00    +0.046 A 
ATOM     25  C   UNL     1      13.681   7.130  20.284  0.00  0.00    +0.130 A 
BRANCH  25   6
ATOM      6  O   UNL     1      12.326   7.226  20.205  0.00  0.00    -0.406 OA
BRANCH   6  33
ATOM      1  F   UNL     1      12.379   9.465  20.482  0.00  0.00    -0.133 F 
ATOM      2  F   UNL     1      11.950   8.687  18.485  0.00  0.00    -0.133 F 
ATOM      3  F   UNL     1      10.445   8.524  20.096  0.00  0.00    -0.133 F 
ATOM     33  C   UNL     1      11.762   8.470  19.805  0.00  0.00    +0.575 C 
ENDBRANCH   6  33
ENDBRANCH  25   6
ENDBRANCH  15  17
ENDBRANCH   7  15
ENDBRANCH  10   7
BRANCH  10  13
ATOM     13  C   UNL     1      20.154   8.343  21.195  0.00  0.00    +0.085 C 
BRANCH  13  14
ATOM      5  O   UNL     1      19.710  11.385  23.011  0.00  0.00    -0.358 OA
ATOM      8  N   UNL     1      20.499  10.357  22.511  0.00  0.00    -0.083 NA
ATOM     14  C   UNL     1      19.651   9.554  21.863  0.00  0.00    +0.086 A 
ATOM     16  C   UNL     1      18.326  10.019  21.920  0.00  0.00    +0.072 A 
ATOM     18  C   UNL     1      18.418  11.172  22.654  0.00  0.00    +0.151 A 
BRANCH  18  19
ATOM     19  C   UNL     1      17.416  12.196  23.115  0.00  0.00    +0.161 C 
BRANCH  19   9
ATOM      9  N   UNL     1      16.678  12.781  21.995  0.00  0.00    -0.294 NA
ATOM     26  C   UNL     1      16.730  14.240  22.055  0.00  0.00    +0.105 C 
BRANCH   9  22
ATOM     22  C   UNL     1      15.292  12.317  22.000  0.00  0.00    +0.119 C 
BRANCH  22  27
ATOM     27  C   UNL     1      14.833  11.907  20.626  0.00  0.00    -0.033 A 
ATOM     28  C   UNL     1      13.814  12.616  19.989  0.00  0.00    +0.005 A 
ATOM     29  C   UNL     1      15.427  10.818  19.989  0.00  0.00    +0.005 A 
ATOM     30  C   UNL     1      13.389  12.235  18.716  0.00  0.00    +0.000 A 
ATOM     31  C   UNL     1      15.002  10.436  18.717  0.00  0.00    +0.000 A 
ATOM     32  C   UNL     1      13.983  11.146  18.080  0.00  0.00    +0.000 A 
ENDBRANCH  22  27
ENDBRANCH   9  22
ENDBRANCH  19   9
ENDBRANCH  18  19
ENDBRANCH  13  14
ENDBRANCH  10  13
TORSDOF 11
ENDMDL
MODEL 6
REMARK VINA RESULT:      -5.3     27.709     30.092
REMARK  Name = 56775617
REMARK  12 active torsions:
REMARK  status: ('A' for Active; 'I' for Inactive)
REMARK    1  A    between atoms: O_6  and  C_25
REMARK    2  A    between atoms: O_6  and  C_33
REMARK    3  A    between atoms: N_7  and  C_10
REMARK    4  A    between atoms: N_7  and  C_15
REMARK    5  A    between atoms: N_9  and  C_19
REMARK    6  A    between atoms: N_9  and  C_22
REMARK    7  A    between atoms: N_9  and  C_26
REMARK    8  A    between atoms: C_10  and  C_13
REMARK    9  A    between atoms: C_13  and  C_14
REMARK   10  A    between atoms: C_15  and  C_17
REMARK   11  A    between atoms: C_18  and  C_19
REMARK   12  A    between atoms: C_22  and  C_27
REMARK                            x       y       z     vdW  Elec       q    Type
REMARK                         _______ _______ _______ _____ _____    ______ ____
ROOT
ATOM      4  O   UNL     1      -6.273 -11.427  20.486  0.00  0.00    -0.376 OA
ATOM     10  C   UNL     1      -7.205 -11.220  18.577  0.00  0.00    +0.072 C 
ATOM     11  C   UNL     1      -7.421 -12.033  19.849  0.00  0.00    +0.184 C 
ATOM     12  C   UNL     1      -5.957 -10.698  19.278  0.00  0.00    +0.184 C 
ENDROOT
BRANCH  10   7
ATOM      7  N   UNL     1      -8.198 -10.156  18.528  0.00  0.00    -0.302 NA
ATOM     34  H   UNL     1      -7.848  -9.253  18.208  0.00  0.00    +0.123 HD
BRANCH   7  15
ATOM     15  C   UNL     1      -9.327 -10.570  17.700  0.00  0.00    +0.117 C 
BRANCH  15  17
ATOM     17  C   UNL     1     -10.145  -9.393  17.238  0.00  0.00    -0.033 A 
ATOM     20  C   UNL     1     -11.538  -9.468  17.235  0.00  0.00    +0.008 A 
ATOM     21  C   UNL     1      -9.509  -8.226  16.816  0.00  0.00    +0.008 A 
ATOM     23  C   UNL     1     -12.294  -8.377  16.809  0.00  0.00    +0.046 A 
ATOM     24  C   UNL     1     -10.265  -7.134  16.391  0.00  0.00    +0.046 A 
ATOM     25  C   UNL     1     -11.658  -7.209  16.387  0.00  0.00    +0.130 A 
BRANCH  25   6
ATOM      6  O   UNL     1     -12.397  -6.144  15.973  0.00  0.00    -0.406 OA
BRANCH   6  33
ATOM      1  F   UNL     1     -11.644  -5.075  14.133  0.00  0.00    -0.133 F 
ATOM      2  F   UNL     1     -12.407  -7.110  13.899  0.00  0.00    -0.133 F 
ATOM      3  F   UNL     1     -13.793  -5.436  14.304  0.00  0.00    -0.133 F 
ATOM     33  C   UNL     1     -12.575  -5.952  14.574  0.00  0.00    +0.575 C 
ENDBRANCH   6  33
ENDBRANCH  25   6
ENDBRANCH  15  17
ENDBRANCH   7  15
ENDBRANCH  10   7
BRANCH  10  13
ATOM     13  C   UNL     1      -7.054 -11.959  17.241  0.00  0.00    +0.085 C 
BRANCH  13  14
ATOM      5  O   UNL     1      -4.903  -9.951  15.218  0.00  0.00    -0.358 OA
ATOM      8  N   UNL     1      -6.099 -10.181  15.888  0.00  0.00    -0.083 NA
ATOM     14  C   UNL     1      -5.959 -11.389  16.440  0.00  0.00    +0.086 A 
ATOM     16  C   UNL     1      -4.709 -11.965  16.155  0.00  0.00    +0.072 A 
ATOM     18  C   UNL     1      -4.084 -11.021  15.383  0.00  0.00    +0.151 A 
BRANCH  18  19
ATOM     19  C   UNL     1      -2.736 -10.945  14.719  0.00  0.00    +0.161 C 
BRANCH  19   9
ATOM      9  N   UNL     1      -2.775 -11.449  13.346  0.00  0.00    -0.294 NA
ATOM     26  C   UNL     1      -1.970 -12.663  13.224  0.00  0.00    +0.105 C 
BRANCH   9  22
ATOM     22  C   UNL     1      -2.302 -10.426  12.414  0.00  0.00    +0.119 C 
BRANCH  22  27
ATOM     27  C   UNL     1      -3.360 -10.053  11.410  0.00  0.00    -0.033 A 
ATOM     28  C   UNL     1      -3.019  -9.302  10.284  0.00  0.00    +0.005 A 
ATOM     29  C   UNL     1      -4.681 -10.456  11.604  0.00  0.00    +0.005 A 
ATOM     30  C   UNL     1      -4.000  -8.955   9.354  0.00  0.00    +0.000 A 
ATOM     31  C   UNL     1      -5.661 -10.110  10.675  0.00  0.00    +0.000 A 
ATOM     32  C   UNL     1      -5.320  -9.360   9.549  0.00  0.00    +0.000 A 
ENDBRANCH  22  27
ENDBRANCH   9  22
ENDBRANCH  19   9
ENDBRANCH  18  19
ENDBRANCH  13  14
ENDBRANCH  10  13
TORSDOF 11
ENDMDL
MODEL 7
REMARK VINA RESULT:      -5.2     14.079     17.284
REMARK  Name = 56775617
REMARK  12 active torsions:
REMARK  status: ('A' for Active; 'I' for Inactive)
REMARK    1  A    between atoms: O_6  and  C_25
REMARK    2  A    between atoms: O_6  and  C_33
REMARK    3  A    between atoms: N_7  and  C_10
REMARK    4  A    between atoms: N_7  and  C_15
REMARK    5  A    between atoms: N_9  and  C_19
REMARK    6  A    between atoms: N_9  and  C_22
REMARK    7  A    between atoms: N_9  and  C_26
REMARK    8  A    between atoms: C_10  and  C_13
REMARK    9  A    between atoms: C_13  and  C_14
REMARK   10  A    between atoms: C_15  and  C_17
REMARK   11  A    between atoms: C_18  and  C_19
REMARK   12  A    between atoms: C_22  and  C_27
REMARK                            x       y       z     vdW  Elec       q    Type
REMARK                         _______ _______ _______ _____ _____    ______ ____
ROOT
ATOM      4  O   UNL     1      17.341   8.541   3.309  0.00  0.00    -0.376 OA
ATOM     10  C   UNL     1      15.393   8.076   4.046  0.00  0.00    +0.072 C 
ATOM     11  C   UNL     1      15.996   8.785   2.838  0.00  0.00    +0.184 C 
ATOM     12  C   UNL     1      16.834   7.941   4.523  0.00  0.00    +0.184 C 
ENDROOT
BRANCH  10   7
ATOM      7  N   UNL     1      14.912   6.767   3.627  0.00  0.00    -0.302 NA
ATOM     34  H   UNL     1      14.755   6.102   4.384  0.00  0.00    +0.123 HD
BRANCH   7  15
ATOM     15  C   UNL     1      13.690   6.917   2.842  0.00  0.00    +0.117 C 
BRANCH  15  17
ATOM     17  C   UNL     1      13.469   5.746   1.920  0.00  0.00    -0.033 A 
ATOM     20  C   UNL     1      12.289   5.006   2.002  0.00  0.00    +0.008 A 
ATOM     21  C   UNL     1      14.443   5.405   0.982  0.00  0.00    +0.008 A 
ATOM     23  C   UNL     1      12.084   3.924   1.147  0.00  0.00    +0.046 A 
ATOM     24  C   UNL     1      14.237   4.323   0.126  0.00  0.00    +0.046 A 
ATOM     25  C   UNL     1      13.059   3.583   0.208  0.00  0.00    +0.130 A 
BRANCH  25   6
ATOM      6  O   UNL     1      12.857   2.527  -0.628  0.00  0.00    -0.406 OA
BRANCH   6  33
ATOM      1  F   UNL     1      13.256   3.165  -2.756  0.00  0.00    -0.133 F 
ATOM      2  F   UNL     1      11.705   1.666  -2.406  0.00  0.00    -0.133 F 
ATOM      3  F   UNL     1      11.369   3.775  -1.837  0.00  0.00    -0.133 F 
ATOM     33  C   UNL     1      12.279   2.780  -1.903  0.00  0.00    +0.575 C 
ENDBRANCH   6  33
ENDBRANCH  25   6
ENDBRANCH  15  17
ENDBRANCH   7  15
ENDBRANCH  10   7
BRANCH  10  13
ATOM     13  C   UNL     1      14.386   8.831   4.923  0.00  0.00    +0.085 C 
BRANCH  13  14
ATOM      5  O   UNL     1      13.432   6.397   7.356  0.00  0.00    -0.358 OA
ATOM      8  N   UNL     1      14.385   7.113   6.643  0.00  0.00    -0.083 NA
ATOM     14  C   UNL     1      13.684   7.914   5.836  0.00  0.00    +0.086 A 
ATOM     16  C   UNL     1      12.297   7.749   5.993  0.00  0.00    +0.072 A 
ATOM     18  C   UNL     1      12.192   6.784   6.960  0.00  0.00    +0.151 A 
BRANCH  18  19
ATOM     19  C   UNL     1      11.029   6.106   7.633  0.00  0.00    +0.161 C 
BRANCH  19   9
ATOM      9  N   UNL     1       9.754   6.733   7.281  0.00  0.00    -0.294 NA
ATOM     26  C   UNL     1       8.903   6.856   8.463  0.00  0.00    +0.105 C 
BRANCH   9  22
ATOM     22  C   UNL     1       9.077   5.962   6.240  0.00  0.00    +0.119 C 
BRANCH  22  27
ATOM     27  C   UNL     1       8.892   6.765   4.980  0.00  0.00    -0.033 A 
ATOM     28  C   UNL     1       8.042   7.872   4.976  0.00  0.00    +0.005 A 
ATOM     29  C   UNL     1       9.569   6.402   3.816  0.00  0.00    +0.005 A 
ATOM     30  C   UNL     1       7.871   8.615   3.808  0.00  0.00    +0.000 A 
ATOM     31  C   UNL     1       9.398   7.144   2.648  0.00  0.00    +0.000 A 
ATOM     32  C   UNL     1       8.549   8.252   2.645  0.00  0.00    +0.000 A 
ENDBRANCH  22  27
ENDBRANCH   9  22
ENDBRANCH  19   9
ENDBRANCH  18  19
ENDBRANCH  13  14
ENDBRANCH  10  13
TORSDOF 11
ENDMDL
MODEL 8
REMARK VINA RESULT:      -5.1     12.440     15.563
REMARK  Name = 56775617
REMARK  12 active torsions:
REMARK  status: ('A' for Active; 'I' for Inactive)
REMARK    1  A    between atoms: O_6  and  C_25
REMARK    2  A    between atoms: O_6  and  C_33
REMARK    3  A    between atoms: N_7  and  C_10
REMARK    4  A    between atoms: N_7  and  C_15
REMARK    5  A    between atoms: N_9  and  C_19
REMARK    6  A    between atoms: N_9  and  C_22
REMARK    7  A    between atoms: N_9  and  C_26
REMARK    8  A    between atoms: C_10  and  C_13
REMARK    9  A    between atoms: C_13  and  C_14
REMARK   10  A    between atoms: C_15  and  C_17
REMARK   11  A    between atoms: C_18  and  C_19
REMARK   12  A    between atoms: C_22  and  C_27
REMARK                            x       y       z     vdW  Elec       q    Type
REMARK                         _______ _______ _______ _____ _____    ______ ____
ROOT
ATOM      4  O   UNL     1       8.153  12.502   2.578  0.00  0.00    -0.376 OA
ATOM     10  C   UNL     1       7.990  10.401   2.915  0.00  0.00    +0.072 C 
ATOM     11  C   UNL     1       9.075  11.390   2.507  0.00  0.00    +0.184 C 
ATOM     12  C   UNL     1       7.058  11.606   2.875  0.00  0.00    +0.184 C 
ENDROOT
BRANCH  10   7
ATOM      7  N   UNL     1       8.204  10.018   4.304  0.00  0.00    -0.302 NA
ATOM     34  H   UNL     1       7.906  10.707   4.993  0.00  0.00    +0.123 HD
BRANCH   7  15
ATOM     15  C   UNL     1       7.550   8.739   4.571  0.00  0.00    +0.117 C 
BRANCH  15  17
ATOM     17  C   UNL     1       8.281   7.945   5.621  0.00  0.00    -0.033 A 
ATOM     20  C   UNL     1       8.527   6.586   5.424  0.00  0.00    +0.008 A 
ATOM     21  C   UNL     1       8.714   8.569   6.791  0.00  0.00    +0.008 A 
ATOM     23  C   UNL     1       9.205   5.851   6.396  0.00  0.00    +0.046 A 
ATOM     24  C   UNL     1       9.394   7.835   7.762  0.00  0.00    +0.046 A 
ATOM     25  C   UNL     1       9.640   6.476   7.566  0.00  0.00    +0.130 A 
BRANCH  25   6
ATOM      6  O   UNL     1      10.303   5.759   8.513  0.00  0.00    -0.406 OA
BRANCH   6  33
ATOM      1  F   UNL     1       8.360   5.505   9.632  0.00  0.00    -0.133 F 
ATOM      2  F   UNL     1       9.290   3.724   8.771  0.00  0.00    -0.133 F 
ATOM      3  F   UNL     1      10.180   4.706  10.541  0.00  0.00    -0.133 F 
ATOM     33  C   UNL     1       9.545   4.909   9.367  0.00  0.00    +0.575 C 
ENDBRANCH   6  33
ENDBRANCH  25   6
ENDBRANCH  15  17
ENDBRANCH   7  15
ENDBRANCH  10   7
BRANCH  10  13
ATOM     13  C   UNL     1       7.696   9.202   2.002  0.00  0.00    +0.085 C 
BRANCH  13  14
ATOM      5  O   UNL     1      10.620   8.213   0.206  0.00  0.00    -0.358 OA
ATOM      8  N   UNL     1       9.470   8.979   0.356  0.00  0.00    -0.083 NA
ATOM     14  C   UNL     1       8.942   8.586   1.518  0.00  0.00    +0.086 A 
ATOM     16  C   UNL     1       9.706   7.584   2.141  0.00  0.00    +0.072 A 
ATOM     18  C   UNL     1      10.749   7.385   1.275  0.00  0.00    +0.151 A 
BRANCH  18  19
ATOM     19  C   UNL     1      11.948   6.476   1.279  0.00  0.00    +0.161 C 
BRANCH  19   9
ATOM      9  N   UNL     1      12.816   6.723   2.431  0.00  0.00    -0.294 NA
ATOM     26  C   UNL     1      14.098   6.041   2.261  0.00  0.00    +0.105 C 
BRANCH   9  22
ATOM     22  C   UNL     1      12.164   6.285   3.664  0.00  0.00    +0.119 C 
BRANCH  22  27
ATOM     27  C   UNL     1      12.345   7.281   4.778  0.00  0.00    -0.033 A 
ATOM     28  C   UNL     1      11.904   8.596   4.618  0.00  0.00    +0.005 A 
ATOM     29  C   UNL     1      12.955   6.892   5.970  0.00  0.00    +0.005 A 
ATOM     30  C   UNL     1      12.072   9.518   5.650  0.00  0.00    +0.000 A 
ATOM     31  C   UNL     1      13.124   7.814   7.002  0.00  0.00    +0.000 A 
ATOM     32  C   UNL     1      12.681   9.128   6.841  0.00  0.00    +0.000 A 
ENDBRANCH  22  27
ENDBRANCH   9  22
ENDBRANCH  19   9
ENDBRANCH  18  19
ENDBRANCH  13  14
ENDBRANCH  10  13
TORSDOF 11
ENDMDL
MODEL 9
REMARK VINA RESULT:      -5.1      6.091      8.690
REMARK  Name = 56775617
REMARK  12 active torsions:
REMARK  status: ('A' for Active; 'I' for Inactive)
REMARK    1  A    between atoms: O_6  and  C_25
REMARK    2  A    between atoms: O_6  and  C_33
REMARK    3  A    between atoms: N_7  and  C_10
REMARK    4  A    between atoms: N_7  and  C_15
REMARK    5  A    between atoms: N_9  and  C_19
REMARK    6  A    between atoms: N_9  and  C_22
REMARK    7  A    between atoms: N_9  and  C_26
REMARK    8  A    between atoms: C_10  and  C_13
REMARK    9  A    between atoms: C_13  and  C_14
REMARK   10  A    between atoms: C_15  and  C_17
REMARK   11  A    between atoms: C_18  and  C_19
REMARK   12  A    between atoms: C_22  and  C_27
REMARK                            x       y       z     vdW  Elec       q    Type
REMARK                         _______ _______ _______ _____ _____    ______ ____
ROOT
ATOM      4  O   UNL     1      20.167   8.226  23.843  0.00  0.00    -0.376 OA
ATOM     10  C   UNL     1      19.760   7.232  21.999  0.00  0.00    +0.072 C 
ATOM     11  C   UNL     1      20.466   6.915  23.313  0.00  0.00    +0.184 C 
ATOM     12  C   UNL     1      19.567   8.623  22.589  0.00  0.00    +0.184 C 
ENDROOT
BRANCH  10   7
ATOM      7  N   UNL     1      18.476   6.546  21.981  0.00  0.00    -0.302 NA
ATOM     34  H   UNL     1      17.764   6.945  22.592  0.00  0.00    +0.123 HD
BRANCH   7  15
ATOM     15  C   UNL     1      17.969   6.480  20.613  0.00  0.00    +0.117 C 
BRANCH  15  17
ATOM     17  C   UNL     1      16.551   6.977  20.515  0.00  0.00    -0.033 A 
ATOM     20  C   UNL     1      15.770   6.645  19.408  0.00  0.00    +0.008 A 
ATOM     21  C   UNL     1      16.018   7.766  21.533  0.00  0.00    +0.008 A 
ATOM     23  C   UNL     1      14.456   7.103  19.319  0.00  0.00    +0.046 A 
ATOM     24  C   UNL     1      14.704   8.224  21.445  0.00  0.00    +0.046 A 
ATOM     25  C   UNL     1      13.923   7.893  20.338  0.00  0.00    +0.130 A 
BRANCH  25   6
ATOM      6  O   UNL     1      12.639   8.339  20.251  0.00  0.00    -0.406 OA
BRANCH   6  33
ATOM      1  F   UNL     1      11.738   7.757  22.237  0.00  0.00    -0.133 F 
ATOM      2  F   UNL     1      10.393   8.014  20.533  0.00  0.00    -0.133 F 
ATOM      3  F   UNL     1      11.746   6.269  20.637  0.00  0.00    -0.133 F 
ATOM     33  C   UNL     1      11.621   7.587  20.900  0.00  0.00    +0.575 C 
ENDBRANCH   6  33
ENDBRANCH  25   6
ENDBRANCH  15  17
ENDBRANCH   7  15
ENDBRANCH  10   7
BRANCH  10  13
ATOM     13  C   UNL     1      20.537   7.082  20.684  0.00  0.00    +0.085 C 
BRANCH  13  14
ATOM      5  O   UNL     1      22.110   3.881  20.869  0.00  0.00    -0.358 OA
ATOM      8  N   UNL     1      20.987   4.699  20.840  0.00  0.00    -0.083 NA
ATOM     14  C   UNL     1      21.466   5.942  20.743  0.00  0.00    +0.086 A 
ATOM     16  C   UNL     1      22.870   5.972  20.708  0.00  0.00    +0.072 A 
ATOM     18  C   UNL     1      23.226   4.651  20.790  0.00  0.00    +0.151 A 
BRANCH  18  19
ATOM     19  C   UNL     1      24.545   3.926  20.809  0.00  0.00    +0.161 C 
BRANCH  19   9
ATOM      9  N   UNL     1      24.980   3.621  22.172  0.00  0.00    -0.294 NA
ATOM     26  C   UNL     1      26.214   4.338  22.487  0.00  0.00    +0.105 C 
BRANCH   9  22
ATOM     22  C   UNL     1      25.169   2.180  22.336  0.00  0.00    +0.119 C 
BRANCH  22  27
ATOM     27  C   UNL     1      24.293   1.621  23.426  0.00  0.00    -0.033 A 
ATOM     28  C   UNL     1      24.561   0.359  23.958  0.00  0.00    +0.005 A 
ATOM     29  C   UNL     1      23.214   2.365  23.904  0.00  0.00    +0.005 A 
ATOM     30  C   UNL     1      23.748  -0.158  24.967  0.00  0.00    +0.000 A 
ATOM     31  C   UNL     1      22.403   1.847  24.913  0.00  0.00    +0.000 A 
ATOM     32  C   UNL     1      22.671   0.585  25.445  0.00  0.00    +0.000 A 
ENDBRANCH  22  27
ENDBRANCH   9  22
ENDBRANCH  19   9
ENDBRANCH  18  19
ENDBRANCH  13  14
ENDBRANCH  10  13
TORSDOF 11
ENDMDL
MODEL 10
REMARK VINA RESULT:      -5.0      5.870      8.581
REMARK  Name = 56775617
REMARK  12 active torsions:
REMARK  status: ('A' for Active; 'I' for Inactive)
REMARK    1  A    between atoms: O_6  and  C_25
REMARK    2  A    between atoms: O_6  and  C_33
REMARK    3  A    between atoms: N_7  and  C_10
REMARK    4  A    between atoms: N_7  and  C_15
REMARK    5  A    between atoms: N_9  and  C_19
REMARK    6  A    between atoms: N_9  and  C_22
REMARK    7  A    between atoms: N_9  and  C_26
REMARK    8  A    between atoms: C_10  and  C_13
REMARK    9  A    between atoms: C_13  and  C_14
REMARK   10  A    between atoms: C_15  and  C_17
REMARK   11  A    between atoms: C_18  and  C_19
REMARK   12  A    between atoms: C_22  and  C_27
REMARK                            x       y       z     vdW  Elec       q    Type
REMARK                         _______ _______ _______ _____ _____    ______ ____
ROOT
ATOM      4  O   UNL     1      19.612   8.939  23.041  0.00  0.00    -0.376 OA
ATOM     10  C   UNL     1      19.622   7.363  21.601  0.00  0.00    +0.072 C 
ATOM     11  C   UNL     1      20.059   7.564  23.049  0.00  0.00    +0.184 C 
ATOM     12  C   UNL     1      19.264   8.844  21.641  0.00  0.00    +0.184 C 
ENDROOT
BRANCH  10   7
ATOM      7  N   UNL     1      18.393   6.583  21.588  0.00  0.00    -0.302 NA
ATOM     34  H   UNL     1      17.684   6.880  22.258  0.00  0.00    +0.123 HD
BRANCH   7  15
ATOM     15  C   UNL     1      17.826   6.575  20.242  0.00  0.00    +0.117 C 
BRANCH  15  17
ATOM     17  C   UNL     1      16.334   6.778  20.260  0.00  0.00    -0.033 A 
ATOM     20  C   UNL     1      15.684   7.067  21.460  0.00  0.00    +0.008 A 
ATOM     21  C   UNL     1      15.603   6.680  19.076  0.00  0.00    +0.008 A 
ATOM     23  C   UNL     1      14.302   7.257  21.476  0.00  0.00    +0.046 A 
ATOM     24  C   UNL     1      14.222   6.871  19.092  0.00  0.00    +0.046 A 
ATOM     25  C   UNL     1      13.571   7.159  20.292  0.00  0.00    +0.130 A 
BRANCH  25   6
ATOM      6  O   UNL     1      12.223   7.346  20.308  0.00  0.00    -0.406 OA
BRANCH   6  33
ATOM      1  F   UNL     1      12.629   9.465  19.645  0.00  0.00    -0.133 F 
ATOM      2  F   UNL     1      10.563   8.753  19.601  0.00  0.00    -0.133 F 
ATOM      3  F   UNL     1      11.563   9.165  21.529  0.00  0.00    -0.133 F 
ATOM     33  C   UNL     1      11.728   8.680  20.280  0.00  0.00    +0.575 C 
ENDBRANCH   6  33
ENDBRANCH  25   6
ENDBRANCH  15  17
ENDBRANCH   7  15
ENDBRANCH  10   7
BRANCH  10  13
ATOM     13  C   UNL     1      20.653   6.874  20.576  0.00  0.00    +0.085 C 
BRANCH  13  14
ATOM      5  O   UNL     1      21.229   3.368  20.935  0.00  0.00    -0.358 OA
ATOM      8  N   UNL     1      20.520   4.452  20.430  0.00  0.00    -0.083 NA
ATOM     14  C   UNL     1      21.143   5.529  20.916  0.00  0.00    +0.086 A 
ATOM     16  C   UNL     1      22.240   5.191  21.727  0.00  0.00    +0.072 A 
ATOM     18  C   UNL     1      22.251   3.821  21.706  0.00  0.00    +0.151 A 
BRANCH  18  19
ATOM     19  C   UNL     1      23.129   2.776  22.339  0.00  0.00    +0.161 C 
BRANCH  19   9
ATOM      9  N   UNL     1      24.236   2.391  21.463  0.00  0.00    -0.294 NA
ATOM     26  C   UNL     1      24.386   0.937  21.438  0.00  0.00    +0.105 C 
BRANCH   9  22
ATOM     22  C   UNL     1      25.478   3.026  21.901  0.00  0.00    +0.119 C 
BRANCH  22  27
ATOM     27  C   UNL     1      25.868   4.170  21.003  0.00  0.00    -0.033 A 
ATOM     28  C   UNL     1      26.068   3.951  19.640  0.00  0.00    +0.005 A 
ATOM     29  C   UNL     1      26.031   5.449  21.535  0.00  0.00    +0.005 A 
ATOM     30  C   UNL     1      26.430   5.012  18.809  0.00  0.00    +0.000 A 
ATOM     31  C   UNL     1      26.393   6.509  20.705  0.00  0.00    +0.000 A 
ATOM     32  C   UNL     1      26.592   6.290  19.341  0.00  0.00    +0.000 A 
ENDBRANCH  22  27
ENDBRANCH   9  22
ENDBRANCH  19   9
ENDBRANCH  18  19
ENDBRANCH  13  14
ENDBRANCH  10  13
TORSDOF 11
ENDMDL
