MODEL 1
REMARK VINA RESULT:      -6.9      0.000      0.000
REMARK  Name = 45784320
REMARK  4 active torsions:
REMARK  status: ('A' for Active; 'I' for Inactive)
REMARK    1  A    between atoms: N_2  and  C_11
REMARK    2  A    between atoms: C_6  and  C_10
REMARK    3  A    between atoms: C_11  and  C_12
REMARK    4  A    between atoms: C_19  and  C_24
REMARK                            x       y       z     vdW  Elec       q    Type
REMARK                         _______ _______ _______ _____ _____    ______ ____
ROOT
ATOM      2  N   UNL     1      -2.173 -11.018  13.685  0.00  0.00    -0.297 NA
ATOM      6  C   UNL     1      -3.246 -10.270  15.631  0.00  0.00    +0.070 C 
ATOM      7  C   UNL     1      -1.845 -10.797  15.986  0.00  0.00    +0.028 C 
ATOM      8  C   UNL     1      -3.520 -10.813  14.223  0.00  0.00    +0.096 C 
ATOM      9  C   UNL     1      -1.418 -11.625  14.780  0.00  0.00    +0.085 C 
ENDROOT
BRANCH   6  10
ATOM      3  N   UNL     1      -5.541 -10.000  16.610  0.00  0.00    -0.342 N 
ATOM      4  N   UNL     1      -4.257 -11.538  17.570  0.00  0.00    -0.232 NA
ATOM     10  C   UNL     1      -4.328 -10.630  16.622  0.00  0.00    +0.113 A 
ATOM     13  C   UNL     1      -6.303 -10.536  17.615  0.00  0.00    +0.067 A 
ATOM     14  C   UNL     1      -5.479 -11.494  18.199  0.00  0.00    +0.089 A 
ATOM     17  C   UNL     1      -7.603 -10.274  18.051  0.00  0.00    +0.046 A 
ATOM     18  C   UNL     1      -5.964 -12.245  19.284  0.00  0.00    +0.031 A 
ATOM     19  C   UNL     1      -8.070 -11.030  19.131  0.00  0.00    +0.054 A 
ATOM     20  C   UNL     1      -7.266 -11.999  19.738  0.00  0.00    +0.021 A 
ATOM     25  H   UNL     1      -5.829  -9.267  15.973  0.00  0.00    +0.167 HD
BRANCH  19  24
ATOM      5  N   UNL     1     -10.469 -10.625  20.019  0.00  0.00    -0.191 NA
ATOM     24  C   UNL     1      -9.394 -10.807  19.622  0.00  0.00    +0.099 C 
ENDBRANCH  19  24
ENDBRANCH   6  10
BRANCH   2  11
ATOM     11  C   UNL     1      -2.174 -11.845  12.487  0.00  0.00    +0.119 C 
BRANCH  11  12
ATOM      1  F   UNL     1      -4.702  -9.272   8.159  0.00  0.00    -0.205 F 
ATOM     12  C   UNL     1      -2.849 -11.158  11.331  0.00  0.00    -0.033 A 
ATOM     15  C   UNL     1      -3.745 -11.863  10.527  0.00  0.00    +0.008 A 
ATOM     16  C   UNL     1      -2.580  -9.815  11.062  0.00  0.00    +0.008 A 
ATOM     21  C   UNL     1      -4.370 -11.226   9.455  0.00  0.00    +0.038 A 
ATOM     22  C   UNL     1      -3.205  -9.178   9.991  0.00  0.00    +0.038 A 
ATOM     23  C   UNL     1      -4.101  -9.884   9.188  0.00  0.00    +0.123 A 
ENDBRANCH  11  12
ENDBRANCH   2  11
TORSDOF 4
ENDMDL
MODEL 2
REMARK VINA RESULT:      -6.9     27.930     30.154
REMARK  Name = 45784320
REMARK  4 active torsions:
REMARK  status: ('A' for Active; 'I' for Inactive)
REMARK    1  A    between atoms: N_2  and  C_11
REMARK    2  A    between atoms: C_6  and  C_10
REMARK    3  A    between atoms: C_11  and  C_12
REMARK    4  A    between atoms: C_19  and  C_24
REMARK                            x       y       z     vdW  Elec       q    Type
REMARK                         _______ _______ _______ _____ _____    ______ ____
ROOT
ATOM      2  N   UNL     1      21.162   5.100  21.258  0.00  0.00    -0.297 NA
ATOM      6  C   UNL     1      19.474   6.611  20.652  0.00  0.00    +0.070 C 
ATOM      7  C   UNL     1      20.106   7.052  21.983  0.00  0.00    +0.028 C 
ATOM      8  C   UNL     1      19.930   5.158  20.469  0.00  0.00    +0.096 C 
ATOM      9  C   UNL     1      20.854   5.826  22.490  0.00  0.00    +0.085 C 
ENDROOT
BRANCH   6  10
ATOM      3  N   UNL     1      17.254   7.224  21.650  0.00  0.00    -0.342 N 
ATOM      4  N   UNL     1      17.204   6.516  19.543  0.00  0.00    -0.232 NA
ATOM     10  C   UNL     1      17.973   6.772  20.578  0.00  0.00    +0.113 A 
ATOM     13  C   UNL     1      15.933   7.262  21.281  0.00  0.00    +0.067 A 
ATOM     14  C   UNL     1      15.929   6.816  19.963  0.00  0.00    +0.089 A 
ATOM     17  C   UNL     1      14.778   7.638  21.968  0.00  0.00    +0.046 A 
ATOM     18  C   UNL     1      14.708   6.734  19.272  0.00  0.00    +0.031 A 
ATOM     19  C   UNL     1      13.571   7.550  21.265  0.00  0.00    +0.054 A 
ATOM     20  C   UNL     1      13.535   7.105  19.941  0.00  0.00    +0.021 A 
ATOM     25  H   UNL     1      17.625   7.484  22.554  0.00  0.00    +0.167 HD
BRANCH  19  24
ATOM      5  N   UNL     1      11.365   8.223  22.444  0.00  0.00    -0.191 NA
ATOM     24  C   UNL     1      12.354   7.921  21.916  0.00  0.00    +0.099 C 
ENDBRANCH  19  24
ENDBRANCH   6  10
BRANCH   2  11
ATOM     11  C   UNL     1      21.595   3.735  21.513  0.00  0.00    +0.119 C 
BRANCH  11  12
ATOM      1  F   UNL     1      26.869   2.841  19.743  0.00  0.00    -0.205 F 
ATOM     12  C   UNL     1      23.004   3.495  21.040  0.00  0.00    -0.033 A 
ATOM     15  C   UNL     1      23.714   4.522  20.417  0.00  0.00    +0.008 A 
ATOM     16  C   UNL     1      23.600   2.248  21.224  0.00  0.00    +0.008 A 
ATOM     21  C   UNL     1      25.019   4.300  19.978  0.00  0.00    +0.038 A 
ATOM     22  C   UNL     1      24.906   2.026  20.785  0.00  0.00    +0.038 A 
ATOM     23  C   UNL     1      25.615   3.053  20.163  0.00  0.00    +0.123 A 
ENDBRANCH  11  12
ENDBRANCH   2  11
TORSDOF 4
ENDMDL
MODEL 3
REMARK VINA RESULT:      -6.9     19.629     20.596
REMARK  Name = 45784320
REMARK  4 active torsions:
REMARK  status: ('A' for Active; 'I' for Inactive)
REMARK    1  A    between atoms: N_2  and  C_11
REMARK    2  A    between atoms: C_6  and  C_10
REMARK    3  A    between atoms: C_11  and  C_12
REMARK    4  A    between atoms: C_19  and  C_24
REMARK                            x       y       z     vdW  Elec       q    Type
REMARK                         _______ _______ _______ _____ _____    ______ ____
ROOT
ATOM      2  N   UNL     1     -13.343   6.771  20.965  0.00  0.00    -0.297 NA
ATOM      6  C   UNL     1     -14.772   5.071  21.715  0.00  0.00    +0.070 C 
ATOM      7  C   UNL     1     -15.597   6.166  21.017  0.00  0.00    +0.028 C 
ATOM      8  C   UNL     1     -13.411   5.723  21.985  0.00  0.00    +0.096 C 
ATOM      9  C   UNL     1     -14.674   7.376  20.957  0.00  0.00    +0.085 C 
ENDROOT
BRANCH   6  10
ATOM      3  N   UNL     1     -15.815   3.191  23.011  0.00  0.00    -0.342 N 
ATOM      4  N   UNL     1     -15.640   5.126  24.089  0.00  0.00    -0.232 NA
ATOM     10  C   UNL     1     -15.407   4.495  22.960  0.00  0.00    +0.113 A 
ATOM     13  C   UNL     1     -16.345   2.965  24.255  0.00  0.00    +0.067 A 
ATOM     14  C   UNL     1     -16.224   4.189  24.908  0.00  0.00    +0.089 A 
ATOM     17  C   UNL     1     -16.904   1.832  24.847  0.00  0.00    +0.046 A 
ATOM     18  C   UNL     1     -16.681   4.306  26.232  0.00  0.00    +0.031 A 
ATOM     19  C   UNL     1     -17.353   1.966  26.164  0.00  0.00    +0.054 A 
ATOM     20  C   UNL     1     -17.245   3.181  26.847  0.00  0.00    +0.021 A 
ATOM     25  H   UNL     1     -15.740   2.510  22.265  0.00  0.00    +0.167 HD
BRANCH  19  24
ATOM      5  N   UNL     1     -18.406  -0.077  27.359  0.00  0.00    -0.191 NA
ATOM     24  C   UNL     1     -17.935   0.838  26.824  0.00  0.00    +0.099 C 
ENDBRANCH  19  24
ENDBRANCH   6  10
BRANCH   2  11
ATOM     11  C   UNL     1     -12.293   7.742  21.235  0.00  0.00    +0.119 C 
BRANCH  11  12
ATOM      1  F   UNL     1      -9.739   9.443  16.510  0.00  0.00    -0.205 F 
ATOM     12  C   UNL     1     -11.610   8.197  19.973  0.00  0.00    -0.033 A 
ATOM     15  C   UNL     1     -11.598   7.369  18.850  0.00  0.00    +0.008 A 
ATOM     16  C   UNL     1     -10.990   9.445  19.925  0.00  0.00    +0.008 A 
ATOM     21  C   UNL     1     -10.965   7.790  17.681  0.00  0.00    +0.038 A 
ATOM     22  C   UNL     1     -10.358   9.866  18.755  0.00  0.00    +0.038 A 
ATOM     23  C   UNL     1     -10.346   9.038  17.633  0.00  0.00    +0.123 A 
ENDBRANCH  11  12
ENDBRANCH   2  11
TORSDOF 4
ENDMDL
MODEL 4
REMARK VINA RESULT:      -6.8     25.331     28.346
REMARK  Name = 45784320
REMARK  4 active torsions:
REMARK  status: ('A' for Active; 'I' for Inactive)
REMARK    1  A    between atoms: N_2  and  C_11
REMARK    2  A    between atoms: C_6  and  C_10
REMARK    3  A    between atoms: C_11  and  C_12
REMARK    4  A    between atoms: C_19  and  C_24
REMARK                            x       y       z     vdW  Elec       q    Type
REMARK                         _______ _______ _______ _____ _____    ______ ____
ROOT
ATOM      2  N   UNL     1      16.211   8.704   5.097  0.00  0.00    -0.297 NA
ATOM      6  C   UNL     1      14.136   7.614   5.025  0.00  0.00    +0.070 C 
ATOM      7  C   UNL     1      14.093   8.862   4.127  0.00  0.00    +0.028 C 
ATOM      8  C   UNL     1      15.377   7.811   5.904  0.00  0.00    +0.096 C 
ATOM      9  C   UNL     1      15.285   9.703   4.564  0.00  0.00    +0.085 C 
ENDROOT
BRANCH   6  10
ATOM      3  N   UNL     1      12.820   6.372   6.765  0.00  0.00    -0.342 N 
ATOM      4  N   UNL     1      11.746   8.025   5.738  0.00  0.00    -0.232 NA
ATOM     10  C   UNL     1      12.879   7.365   5.827  0.00  0.00    +0.113 A 
ATOM     13  C   UNL     1      11.566   6.393   7.318  0.00  0.00    +0.067 A 
ATOM     14  C   UNL     1      10.915   7.433   6.660  0.00  0.00    +0.089 A 
ATOM     17  C   UNL     1      10.963   5.614   8.307  0.00  0.00    +0.046 A 
ATOM     18  C   UNL     1       9.583   7.729   6.998  0.00  0.00    +0.031 A 
ATOM     19  C   UNL     1       9.637   5.922   8.630  0.00  0.00    +0.054 A 
ATOM     20  C   UNL     1       8.958   6.961   7.987  0.00  0.00    +0.021 A 
ATOM     25  H   UNL     1      13.566   5.734   7.010  0.00  0.00    +0.167 HD
BRANCH  19  24
ATOM      5  N   UNL     1       8.422   4.541  10.454  0.00  0.00    -0.191 NA
ATOM     24  C   UNL     1       8.967   5.160   9.636  0.00  0.00    +0.099 C 
ENDBRANCH  19  24
ENDBRANCH   6  10
BRANCH   2  11
ATOM     11  C   UNL     1      17.291   9.304   5.866  0.00  0.00    +0.119 C 
BRANCH  11  12
ATOM      1  F   UNL     1      22.204   6.692   4.981  0.00  0.00    -0.205 F 
ATOM     12  C   UNL     1      18.603   8.606   5.629  0.00  0.00    -0.033 A 
ATOM     15  C   UNL     1      19.564   8.566   6.640  0.00  0.00    +0.008 A 
ATOM     16  C   UNL     1      18.860   7.999   4.400  0.00  0.00    +0.008 A 
ATOM     21  C   UNL     1      20.780   7.920   6.421  0.00  0.00    +0.038 A 
ATOM     22  C   UNL     1      20.076   7.353   4.181  0.00  0.00    +0.038 A 
ATOM     23  C   UNL     1      21.036   7.313   5.192  0.00  0.00    +0.123 A 
ENDBRANCH  11  12
ENDBRANCH   2  11
TORSDOF 4
ENDMDL
MODEL 5
REMARK VINA RESULT:      -6.8     28.157     30.514
REMARK  Name = 45784320
REMARK  4 active torsions:
REMARK  status: ('A' for Active; 'I' for Inactive)
REMARK    1  A    between atoms: N_2  and  C_11
REMARK    2  A    between atoms: C_6  and  C_10
REMARK    3  A    between atoms: C_11  and  C_12
REMARK    4  A    between atoms: C_19  and  C_24
REMARK                            x       y       z     vdW  Elec       q    Type
REMARK                         _______ _______ _______ _____ _____    ______ ____
ROOT
ATOM      2  N   UNL     1      21.783   4.447  21.107  0.00  0.00    -0.297 NA
ATOM      6  C   UNL     1      20.218   6.133  20.649  0.00  0.00    +0.070 C 
ATOM      7  C   UNL     1      20.862   6.388  22.023  0.00  0.00    +0.028 C 
ATOM      8  C   UNL     1      20.569   4.676  20.321  0.00  0.00    +0.096 C 
ATOM      9  C   UNL     1      21.512   5.064  22.405  0.00  0.00    +0.085 C 
ENDROOT
BRANCH   6  10
ATOM      3  N   UNL     1      18.041   6.296  19.410  0.00  0.00    -0.342 N 
ATOM      4  N   UNL     1      17.957   6.777  21.579  0.00  0.00    -0.232 NA
ATOM     10  C   UNL     1      18.734   6.411  20.584  0.00  0.00    +0.113 A 
ATOM     13  C   UNL     1      16.731   6.609  19.665  0.00  0.00    +0.067 A 
ATOM     14  C   UNL     1      16.705   6.905  21.025  0.00  0.00    +0.089 A 
ATOM     17  C   UNL     1      15.601   6.657  18.848  0.00  0.00    +0.046 A 
ATOM     18  C   UNL     1      15.486   7.272  21.622  0.00  0.00    +0.031 A 
ATOM     19  C   UNL     1      14.397   7.024  19.458  0.00  0.00    +0.054 A 
ATOM     20  C   UNL     1      14.339   7.327  20.821  0.00  0.00    +0.021 A 
ATOM     25  H   UNL     1      18.424   6.029  18.512  0.00  0.00    +0.167 HD
BRANCH  19  24
ATOM      5  N   UNL     1      12.237   7.144  18.033  0.00  0.00    -0.191 NA
ATOM     24  C   UNL     1      13.205   7.090  18.672  0.00  0.00    +0.099 C 
ENDBRANCH  19  24
ENDBRANCH   6  10
BRANCH   2  11
ATOM     11  C   UNL     1      22.112   3.035  21.222  0.00  0.00    +0.119 C 
BRANCH  11  12
ATOM      1  F   UNL     1      27.679   2.170  21.277  0.00  0.00    -0.205 F 
ATOM     12  C   UNL     1      23.599   2.804  21.237  0.00  0.00    -0.033 A 
ATOM     15  C   UNL     1      24.130   1.718  21.933  0.00  0.00    +0.008 A 
ATOM     16  C   UNL     1      24.448   3.676  20.554  0.00  0.00    +0.008 A 
ATOM     21  C   UNL     1      25.508   1.504  21.947  0.00  0.00    +0.038 A 
ATOM     22  C   UNL     1      25.827   3.462  20.568  0.00  0.00    +0.038 A 
ATOM     23  C   UNL     1      26.356   2.376  21.264  0.00  0.00    +0.123 A 
ENDBRANCH  11  12
ENDBRANCH   2  11
TORSDOF 4
ENDMDL
MODEL 6
REMARK VINA RESULT:      -6.8     27.228     29.903
REMARK  Name = 45784320
REMARK  4 active torsions:
REMARK  status: ('A' for Active; 'I' for Inactive)
REMARK    1  A    between atoms: N_2  and  C_11
REMARK    2  A    between atoms: C_6  and  C_10
REMARK    3  A    between atoms: C_11  and  C_12
REMARK    4  A    between atoms: C_19  and  C_24
REMARK                            x       y       z     vdW  Elec       q    Type
REMARK                         _______ _______ _______ _____ _____    ______ ____
ROOT
ATOM      2  N   UNL     1      16.634   7.576  20.573  0.00  0.00    -0.297 NA
ATOM      6  C   UNL     1      18.762   6.687  20.146  0.00  0.00    +0.070 C 
ATOM      7  C   UNL     1      17.703   5.881  19.375  0.00  0.00    +0.028 C 
ATOM      8  C   UNL     1      17.961   7.485  21.184  0.00  0.00    +0.096 C 
ATOM      9  C   UNL     1      16.377   6.241  20.031  0.00  0.00    +0.085 C 
ENDROOT
BRANCH   6  10
ATOM      3  N   UNL     1      20.384   4.772  20.116  0.00  0.00    -0.342 N 
ATOM      4  N   UNL     1      20.439   6.056  21.929  0.00  0.00    -0.232 NA
ATOM     10  C   UNL     1      19.865   5.859  20.763  0.00  0.00    +0.113 A 
ATOM     13  C   UNL     1      21.358   4.233  20.917  0.00  0.00    +0.067 A 
ATOM     14  C   UNL     1      21.372   5.052  22.042  0.00  0.00    +0.089 A 
ATOM     17  C   UNL     1      22.201   3.132  20.759  0.00  0.00    +0.046 A 
ATOM     18  C   UNL     1      22.276   4.772  23.081  0.00  0.00    +0.031 A 
ATOM     19  C   UNL     1      23.094   2.867  21.802  0.00  0.00    +0.054 A 
ATOM     20  C   UNL     1      23.132   3.672  22.944  0.00  0.00    +0.021 A 
ATOM     25  H   UNL     1      20.103   4.425  19.208  0.00  0.00    +0.167 HD
BRANCH  19  24
ATOM      5  N   UNL     1      24.705   0.848  21.612  0.00  0.00    -0.191 NA
ATOM     24  C   UNL     1      23.983   1.753  21.697  0.00  0.00    +0.099 C 
ENDBRANCH  19  24
ENDBRANCH   6  10
BRANCH   2  11
ATOM     11  C   UNL     1      15.613   7.995  21.521  0.00  0.00    +0.119 C 
BRANCH  11  12
ATOM      1  F   UNL     1      10.586   8.617  19.055  0.00  0.00    -0.205 F 
ATOM     12  C   UNL     1      14.270   8.161  20.863  0.00  0.00    -0.033 A 
ATOM     15  C   UNL     1      14.107   9.093  19.837  0.00  0.00    +0.008 A 
ATOM     16  C   UNL     1      13.188   7.384  21.277  0.00  0.00    +0.008 A 
ATOM     21  C   UNL     1      12.862   9.247  19.227  0.00  0.00    +0.038 A 
ATOM     22  C   UNL     1      11.943   7.539  20.667  0.00  0.00    +0.038 A 
ATOM     23  C   UNL     1      11.781   8.469  19.641  0.00  0.00    +0.123 A 
ENDBRANCH  11  12
ENDBRANCH   2  11
TORSDOF 4
ENDMDL
MODEL 7
REMARK VINA RESULT:      -6.6      6.405      8.800
REMARK  Name = 45784320
REMARK  4 active torsions:
REMARK  status: ('A' for Active; 'I' for Inactive)
REMARK    1  A    between atoms: N_2  and  C_11
REMARK    2  A    between atoms: C_6  and  C_10
REMARK    3  A    between atoms: C_11  and  C_12
REMARK    4  A    between atoms: C_19  and  C_24
REMARK                            x       y       z     vdW  Elec       q    Type
REMARK                         _______ _______ _______ _____ _____    ______ ____
ROOT
ATOM      2  N   UNL     1     -11.816  -7.298  14.734  0.00  0.00    -0.297 NA
ATOM      6  C   UNL     1     -10.616  -8.327  16.465  0.00  0.00    +0.070 C 
ATOM      7  C   UNL     1     -10.781  -6.829  16.774  0.00  0.00    +0.028 C 
ATOM      8  C   UNL     1     -10.953  -8.456  14.975  0.00  0.00    +0.096 C 
ATOM      9  C   UNL     1     -11.172  -6.194  15.445  0.00  0.00    +0.085 C 
ENDROOT
BRANCH   6  10
ATOM      3  N   UNL     1      -8.218  -8.844  15.935  0.00  0.00    -0.342 N 
ATOM      4  N   UNL     1      -8.926  -9.496  17.938  0.00  0.00    -0.232 NA
ATOM     10  C   UNL     1      -9.263  -8.901  16.815  0.00  0.00    +0.113 A 
ATOM     13  C   UNL     1      -7.135  -9.441  16.530  0.00  0.00    +0.067 A 
ATOM     14  C   UNL     1      -7.604  -9.838  17.779  0.00  0.00    +0.089 A 
ATOM     17  C   UNL     1      -5.828  -9.660  16.095  0.00  0.00    +0.046 A 
ATOM     18  C   UNL     1      -6.728 -10.494  18.661  0.00  0.00    +0.031 A 
ATOM     19  C   UNL     1      -4.970 -10.314  16.985  0.00  0.00    +0.054 A 
ATOM     20  C   UNL     1      -5.411 -10.725  18.246  0.00  0.00    +0.021 A 
ATOM     25  H   UNL     1      -8.236  -8.436  15.009  0.00  0.00    +0.167 HD
BRANCH  19  24
ATOM      5  N   UNL     1      -2.519 -10.771  16.281  0.00  0.00    -0.191 NA
ATOM     24  C   UNL     1      -3.617 -10.566  16.596  0.00  0.00    +0.099 C 
ENDBRANCH  19  24
ENDBRANCH   6  10
BRANCH   2  11
ATOM     11  C   UNL     1     -11.988  -7.018  13.316  0.00  0.00    +0.119 C 
BRANCH  11  12
ATOM      1  F   UNL     1     -15.194  -2.468  12.443  0.00  0.00    -0.205 F 
ATOM     12  C   UNL     1     -12.845  -5.803  13.083  0.00  0.00    -0.033 A 
ATOM     15  C   UNL     1     -12.302  -4.675  12.466  0.00  0.00    +0.008 A 
ATOM     16  C   UNL     1     -14.181  -5.803  13.484  0.00  0.00    +0.008 A 
ATOM     21  C   UNL     1     -13.096  -3.549  12.250  0.00  0.00    +0.038 A 
ATOM     22  C   UNL     1     -14.975  -4.676  13.268  0.00  0.00    +0.038 A 
ATOM     23  C   UNL     1     -14.432  -3.550  12.651  0.00  0.00    +0.123 A 
ENDBRANCH  11  12
ENDBRANCH   2  11
TORSDOF 4
ENDMDL
MODEL 8
REMARK VINA RESULT:      -6.6     27.361     29.995
REMARK  Name = 45784320
REMARK  4 active torsions:
REMARK  status: ('A' for Active; 'I' for Inactive)
REMARK    1  A    between atoms: N_2  and  C_11
REMARK    2  A    between atoms: C_6  and  C_10
REMARK    3  A    between atoms: C_11  and  C_12
REMARK    4  A    between atoms: C_19  and  C_24
REMARK                            x       y       z     vdW  Elec       q    Type
REMARK                         _______ _______ _______ _____ _____    ______ ____
ROOT
ATOM      2  N   UNL     1      14.750   7.931  20.845  0.00  0.00    -0.297 NA
ATOM      6  C   UNL     1      16.994   7.564  20.275  0.00  0.00    +0.070 C 
ATOM      7  C   UNL     1      16.089   6.691  19.389  0.00  0.00    +0.028 C 
ATOM      8  C   UNL     1      16.090   8.015  21.428  0.00  0.00    +0.096 C 
ATOM      9  C   UNL     1      14.741   6.672  20.100  0.00  0.00    +0.085 C 
ENDROOT
BRANCH   6  10
ATOM      3  N   UNL     1      18.847   5.890  20.020  0.00  0.00    -0.342 N 
ATOM      4  N   UNL     1      18.927   7.149  21.850  0.00  0.00    -0.232 NA
ATOM     10  C   UNL     1      18.260   6.888  20.748  0.00  0.00    +0.113 A 
ATOM     13  C   UNL     1      19.967   5.480  20.698  0.00  0.00    +0.067 A 
ATOM     14  C   UNL     1      19.994   6.282  21.836  0.00  0.00    +0.089 A 
ATOM     17  C   UNL     1      20.928   4.507  20.422  0.00  0.00    +0.046 A 
ATOM     18  C   UNL     1      21.036   6.117  22.764  0.00  0.00    +0.031 A 
ATOM     19  C   UNL     1      21.958   4.356  21.356  0.00  0.00    +0.054 A 
ATOM     20  C   UNL     1      22.012   5.146  22.508  0.00  0.00    +0.021 A 
ATOM     25  H   UNL     1      18.518   5.517  19.139  0.00  0.00    +0.167 HD
BRANCH  19  24
ATOM      5  N   UNL     1      23.797   2.580  20.942  0.00  0.00    -0.191 NA
ATOM     24  C   UNL     1      22.973   3.376  21.127  0.00  0.00    +0.099 C 
ENDBRANCH  19  24
ENDBRANCH   6  10
BRANCH   2  11
ATOM     11  C   UNL     1      13.700   7.986  21.852  0.00  0.00    +0.119 C 
BRANCH  11  12
ATOM      1  F   UNL     1      10.745  12.773  21.551  0.00  0.00    -0.205 F 
ATOM     12  C   UNL     1      12.911   9.265  21.771  0.00  0.00    -0.033 A 
ATOM     15  C   UNL     1      11.773   9.433  22.560  0.00  0.00    +0.008 A 
ATOM     16  C   UNL     1      13.316  10.283  20.907  0.00  0.00    +0.008 A 
ATOM     21  C   UNL     1      11.041  10.618  22.486  0.00  0.00    +0.038 A 
ATOM     22  C   UNL     1      12.584  11.468  20.832  0.00  0.00    +0.038 A 
ATOM     23  C   UNL     1      11.447  11.635  21.622  0.00  0.00    +0.123 A 
ENDBRANCH  11  12
ENDBRANCH   2  11
TORSDOF 4
ENDMDL
MODEL 9
REMARK VINA RESULT:      -6.5     22.609     25.448
REMARK  Name = 45784320
REMARK  4 active torsions:
REMARK  status: ('A' for Active; 'I' for Inactive)
REMARK    1  A    between atoms: N_2  and  C_11
REMARK    2  A    between atoms: C_6  and  C_10
REMARK    3  A    between atoms: C_11  and  C_12
REMARK    4  A    between atoms: C_19  and  C_24
REMARK                            x       y       z     vdW  Elec       q    Type
REMARK                         _______ _______ _______ _____ _____    ______ ____
ROOT
ATOM      2  N   UNL     1      11.447   5.117   0.804  0.00  0.00    -0.297 NA
ATOM      6  C   UNL     1      10.296   6.324   2.452  0.00  0.00    +0.070 C 
ATOM      7  C   UNL     1      11.566   7.091   2.045  0.00  0.00    +0.028 C 
ATOM      8  C   UNL     1      10.507   4.906   1.906  0.00  0.00    +0.096 C 
ATOM      9  C   UNL     1      12.431   6.066   1.324  0.00  0.00    +0.085 C 
ENDROOT
BRANCH   6  10
ATOM      3  N   UNL     1      10.450   5.370   4.768  0.00  0.00    -0.342 N 
ATOM      4  N   UNL     1       9.277   7.248   4.573  0.00  0.00    -0.232 NA
ATOM     10  C   UNL     1       9.987   6.347   3.931  0.00  0.00    +0.113 A 
ATOM     13  C   UNL     1      10.011   5.661   6.034  0.00  0.00    +0.067 A 
ATOM     14  C   UNL     1       9.282   6.837   5.885  0.00  0.00    +0.089 A 
ATOM     17  C   UNL     1      10.184   5.015   7.259  0.00  0.00    +0.046 A 
ATOM     18  C   UNL     1       8.682   7.418   7.016  0.00  0.00    +0.031 A 
ATOM     19  C   UNL     1       9.581   5.607   8.374  0.00  0.00    +0.054 A 
ATOM     20  C   UNL     1       8.842   6.788   8.256  0.00  0.00    +0.021 A 
ATOM     25  H   UNL     1      11.017   4.574   4.505  0.00  0.00    +0.167 HD
BRANCH  19  24
ATOM      5  N   UNL     1       9.838   4.492  10.697  0.00  0.00    -0.191 NA
ATOM     24  C   UNL     1       9.723   4.992   9.656  0.00  0.00    +0.099 C 
ENDBRANCH  19  24
ENDBRANCH   6  10
BRANCH   2  11
ATOM     11  C   UNL     1      12.058   3.877   0.349  0.00  0.00    +0.119 C 
BRANCH  11  12
ATOM      1  F   UNL     1      11.004   2.883  -5.095  0.00  0.00    -0.205 F 
ATOM     12  C   UNL     1      11.777   3.612  -1.105  0.00  0.00    -0.033 A 
ATOM     15  C   UNL     1      12.582   2.727  -1.822  0.00  0.00    +0.008 A 
ATOM     16  C   UNL     1      10.710   4.251  -1.738  0.00  0.00    +0.008 A 
ATOM     21  C   UNL     1      12.322   2.481  -3.170  0.00  0.00    +0.038 A 
ATOM     22  C   UNL     1      10.449   4.005  -3.086  0.00  0.00    +0.038 A 
ATOM     23  C   UNL     1      11.254   3.120  -3.801  0.00  0.00    +0.123 A 
ENDBRANCH  11  12
ENDBRANCH   2  11
TORSDOF 4
ENDMDL
MODEL 10
REMARK VINA RESULT:      -6.4     23.085     26.821
REMARK  Name = 45784320
REMARK  4 active torsions:
REMARK  status: ('A' for Active; 'I' for Inactive)
REMARK    1  A    between atoms: N_2  and  C_11
REMARK    2  A    between atoms: C_6  and  C_10
REMARK    3  A    between atoms: C_11  and  C_12
REMARK    4  A    between atoms: C_19  and  C_24
REMARK                            x       y       z     vdW  Elec       q    Type
REMARK                         _______ _______ _______ _____ _____    ______ ____
ROOT
ATOM      2  N   UNL     1      10.753   5.551   4.087  0.00  0.00    -0.297 NA
ATOM      6  C   UNL     1      11.905   4.541   2.312  0.00  0.00    +0.070 C 
ATOM      7  C   UNL     1      12.529   5.914   2.615  0.00  0.00    +0.028 C 
ATOM      8  C   UNL     1      10.546   4.566   3.023  0.00  0.00    +0.096 C 
ATOM      9  C   UNL     1      11.485   6.645   3.450  0.00  0.00    +0.085 C 
ENDROOT
BRANCH   6  10
ATOM      3  N   UNL     1      10.782   4.706   0.073  0.00  0.00    -0.342 N 
ATOM      4  N   UNL     1      12.604   3.435   0.149  0.00  0.00    -0.232 NA
ATOM     10  C   UNL     1      11.795   4.205   0.843  0.00  0.00    +0.113 A 
ATOM     13  C   UNL     1      10.949   4.228  -1.202  0.00  0.00    +0.067 A 
ATOM     14  C   UNL     1      12.092   3.438  -1.128  0.00  0.00    +0.089 A 
ATOM     17  C   UNL     1      10.219   4.414  -2.377  0.00  0.00    +0.046 A 
ATOM     18  C   UNL     1      12.550   2.788  -2.286  0.00  0.00    +0.031 A 
ATOM     19  C   UNL     1      10.689   3.760  -3.520  0.00  0.00    +0.054 A 
ATOM     20  C   UNL     1      11.834   2.959  -3.477  0.00  0.00    +0.021 A 
ATOM     25  H   UNL     1      10.041   5.320   0.385  0.00  0.00    +0.167 HD
BRANCH  19  24
ATOM      5  N   UNL     1       9.410   4.037  -5.755  0.00  0.00    -0.191 NA
ATOM     24  C   UNL     1       9.983   3.912  -4.754  0.00  0.00    +0.099 C 
ENDBRANCH  19  24
ENDBRANCH   6  10
BRANCH   2  11
ATOM     11  C   UNL     1       9.502   5.994   4.684  0.00  0.00    +0.119 C 
BRANCH  11  12
ATOM      1  F   UNL     1       9.347   4.985  10.224  0.00  0.00    -0.205 F 
ATOM     12  C   UNL     1       9.460   5.725   6.164  0.00  0.00    -0.033 A 
ATOM     15  C   UNL     1       9.794   4.462   6.652  0.00  0.00    +0.008 A 
ATOM     16  C   UNL     1       9.088   6.738   7.048  0.00  0.00    +0.008 A 
ATOM     21  C   UNL     1       9.755   4.212   8.024  0.00  0.00    +0.038 A 
ATOM     22  C   UNL     1       9.049   6.488   8.420  0.00  0.00    +0.038 A 
ATOM     23  C   UNL     1       9.384   5.225   8.907  0.00  0.00    +0.123 A 
ENDBRANCH  11  12
ENDBRANCH   2  11
TORSDOF 4
ENDMDL
