MODEL 1
REMARK VINA RESULT:      -7.1      0.000      0.000
REMARK  Name = 40586241
REMARK  8 active torsions:
REMARK  status: ('A' for Active; 'I' for Inactive)
REMARK    1  A    between atoms: S_1  and  N_9
REMARK    2  A    between atoms: S_1  and  C_25
REMARK    3  A    between atoms: O_4  and  C_15
REMARK    4  A    between atoms: O_4  and  C_24
REMARK    5  A    between atoms: N_9  and  C_14
REMARK    6  A    between atoms: N_10  and  C_18
REMARK    7  A    between atoms: N_11  and  C_30
REMARK    8  A    between atoms: C_31  and  C_32
REMARK                            x       y       z     vdW  Elec       q    Type
REMARK                         _______ _______ _______ _____ _____    ______ ____
ROOT
ATOM      2  O   UNL     1      -4.003 -10.048  16.907  0.00  0.00    -0.369 OA
ATOM      3  O   UNL     1      -5.443 -12.538  15.817  0.00  0.00    -0.368 OA
ATOM     12  C   UNL     1      -5.059 -11.298  15.188  0.00  0.00    +0.171 C 
ATOM     13  C   UNL     1      -5.255 -10.202  16.217  0.00  0.00    +0.191 C 
ATOM     14  C   UNL     1      -3.572 -11.293  14.929  0.00  0.00    +0.133 C 
ATOM     15  C   UNL     1      -6.320 -10.783  17.115  0.00  0.00    +0.235 C 
ATOM     16  C   UNL     1      -3.001 -10.846  16.260  0.00  0.00    +0.183 C 
ATOM     17  C   UNL     1      -5.964 -12.252  17.123  0.00  0.00    +0.207 C 
ENDROOT
BRANCH  14   9
ATOM      9  N   UNL     1      -3.243 -10.296  13.883  0.00  0.00    -0.182 NA
ATOM     33  H   UNL     1      -3.543  -9.326  14.037  0.00  0.00    +0.148 HD
BRANCH   9   1
ATOM      1  S   UNL     1      -2.768 -10.816  12.338  0.00  0.00    +0.059 S 
ATOM      5  O   UNL     1      -3.085 -12.224  12.183  0.00  0.00    -0.153 OA
ATOM      6  O   UNL     1      -1.423 -10.339  12.077  0.00  0.00    -0.153 OA
BRANCH   1  25
ATOM     25  C   UNL     1      -3.854  -9.895  11.291  0.00  0.00    +0.105 A 
ATOM     26  C   UNL     1      -5.130  -9.554  11.738  0.00  0.00    +0.030 A 
ATOM     27  C   UNL     1      -3.434  -9.508  10.019  0.00  0.00    +0.030 A 
ATOM     28  C   UNL     1      -5.988  -8.827  10.912  0.00  0.00    +0.025 A 
ATOM     29  C   UNL     1      -4.292  -8.780   9.193  0.00  0.00    +0.025 A 
ATOM     30  C   UNL     1      -5.568  -8.439   9.640  0.00  0.00    +0.033 A 
BRANCH  30  11
ATOM      8  O   UNL     1      -7.956  -9.326   8.035  0.00  0.00    -0.276 OA
ATOM     11  N   UNL     1      -6.424  -7.711   8.814  0.00  0.00    -0.286 N 
ATOM     31  C   UNL     1      -7.527  -8.178   8.084  0.00  0.00    +0.214 C 
ATOM     32  C   UNL     1      -8.195  -7.069   7.311  0.00  0.00    +0.109 C 
ATOM     35  H   UNL     1      -6.215  -6.718   8.738  0.00  0.00    +0.155 HD
ENDBRANCH  30  11
ENDBRANCH   1  25
ENDBRANCH   9   1
ENDBRANCH  14   9
BRANCH  15   4
ATOM      4  O   UNL     1      -6.326 -10.230  18.412  0.00  0.00    -0.442 OA
BRANCH   4  24
ATOM      7  O   UNL     1      -6.721 -11.448  20.319  0.00  0.00    -0.226 OA
ATOM     10  N   UNL     1      -8.466 -10.660  19.010  0.00  0.00    -0.278 N 
ATOM     24  C   UNL     1      -7.139 -10.837  19.340  0.00  0.00    +0.401 C 
ATOM     34  H   UNL     1      -8.670 -10.171  18.143  0.00  0.00    +0.152 HD
BRANCH  10  18
ATOM     18  C   UNL     1      -9.566 -11.181  19.791  0.00  0.00    +0.076 C 
ATOM     19  C   UNL     1     -10.629 -10.105  20.033  0.00  0.00    +0.022 C 
ATOM     20  C   UNL     1     -10.172 -12.423  19.128  0.00  0.00    +0.022 C 
ATOM     21  C   UNL     1     -11.420  -9.771  18.768  0.00  0.00    +0.002 C 
ATOM     22  C   UNL     1     -10.964 -12.085  17.865  0.00  0.00    +0.002 C 
ATOM     23  C   UNL     1     -12.024 -11.020  18.133  0.00  0.00    +0.000 C 
ENDBRANCH  10  18
ENDBRANCH   4  24
ENDBRANCH  15   4
TORSDOF 7
ENDMDL
MODEL 2
REMARK VINA RESULT:      -7.1      1.402      1.556
REMARK  Name = 40586241
REMARK  8 active torsions:
REMARK  status: ('A' for Active; 'I' for Inactive)
REMARK    1  A    between atoms: S_1  and  N_9
REMARK    2  A    between atoms: S_1  and  C_25
REMARK    3  A    between atoms: O_4  and  C_15
REMARK    4  A    between atoms: O_4  and  C_24
REMARK    5  A    between atoms: N_9  and  C_14
REMARK    6  A    between atoms: N_10  and  C_18
REMARK    7  A    between atoms: N_11  and  C_30
REMARK    8  A    between atoms: C_31  and  C_32
REMARK                            x       y       z     vdW  Elec       q    Type
REMARK                         _______ _______ _______ _____ _____    ______ ____
ROOT
ATOM      2  O   UNL     1      -4.108 -10.136  16.876  0.00  0.00    -0.369 OA
ATOM      3  O   UNL     1      -4.814 -12.959  15.878  0.00  0.00    -0.368 OA
ATOM     12  C   UNL     1      -4.722 -11.692  15.193  0.00  0.00    +0.171 C 
ATOM     13  C   UNL     1      -5.242 -10.636  16.147  0.00  0.00    +0.191 C 
ATOM     14  C   UNL     1      -3.273 -11.321  14.992  0.00  0.00    +0.133 C 
ATOM     15  C   UNL     1      -6.172 -11.427  17.036  0.00  0.00    +0.235 C 
ATOM     16  C   UNL     1      -2.904 -10.682  16.316  0.00  0.00    +0.183 C 
ATOM     17  C   UNL     1      -5.457 -12.755  17.144  0.00  0.00    +0.207 C 
ENDROOT
BRANCH  14   9
ATOM      9  N   UNL     1      -3.153 -10.322  13.903  0.00  0.00    -0.182 NA
ATOM     33  H   UNL     1      -3.599  -9.408  14.043  0.00  0.00    +0.148 HD
BRANCH   9   1
ATOM      1  S   UNL     1      -2.662 -10.816  12.354  0.00  0.00    +0.059 S 
ATOM      5  O   UNL     1      -2.948 -12.228  12.182  0.00  0.00    -0.153 OA
ATOM      6  O   UNL     1      -1.327 -10.307  12.102  0.00  0.00    -0.153 OA
BRANCH   1  25
ATOM     25  C   UNL     1      -3.765  -9.906  11.314  0.00  0.00    +0.105 A 
ATOM     26  C   UNL     1      -5.029  -9.548  11.783  0.00  0.00    +0.030 A 
ATOM     27  C   UNL     1      -3.371  -9.547  10.026  0.00  0.00    +0.030 A 
ATOM     28  C   UNL     1      -5.899  -8.830  10.963  0.00  0.00    +0.025 A 
ATOM     29  C   UNL     1      -4.242  -8.828   9.205  0.00  0.00    +0.025 A 
ATOM     30  C   UNL     1      -5.506  -8.470   9.674  0.00  0.00    +0.033 A 
BRANCH  30  11
ATOM      8  O   UNL     1      -7.968  -9.356   8.187  0.00  0.00    -0.276 OA
ATOM     11  N   UNL     1      -6.375  -7.751   8.854  0.00  0.00    -0.286 N 
ATOM     31  C   UNL     1      -7.513  -8.217   8.181  0.00  0.00    +0.214 C 
ATOM     32  C   UNL     1      -8.185  -7.120   7.393  0.00  0.00    +0.109 C 
ATOM     35  H   UNL     1      -6.147  -6.766   8.736  0.00  0.00    +0.155 HD
ENDBRANCH  30  11
ENDBRANCH   1  25
ENDBRANCH   9   1
ENDBRANCH  14   9
BRANCH  15   4
ATOM      4  O   UNL     1      -6.385 -10.834  18.297  0.00  0.00    -0.442 OA
BRANCH   4  24
ATOM      7  O   UNL     1      -8.152 -10.941  19.760  0.00  0.00    -0.226 OA
ATOM     10  N   UNL     1      -8.391 -10.010  17.649  0.00  0.00    -0.278 N 
ATOM     24  C   UNL     1      -7.692 -10.622  18.668  0.00  0.00    +0.401 C 
ATOM     34  H   UNL     1      -7.896  -9.844  16.778  0.00  0.00    +0.152 HD
BRANCH  10  18
ATOM     18  C   UNL     1      -9.791  -9.656  17.733  0.00  0.00    +0.076 C 
ATOM     19  C   UNL     1      -9.993  -8.155  17.502  0.00  0.00    +0.022 C 
ATOM     20  C   UNL     1     -10.629 -10.487  16.757  0.00  0.00    +0.022 C 
ATOM     21  C   UNL     1      -9.771  -7.753  16.044  0.00  0.00    +0.002 C 
ATOM     22  C   UNL     1     -10.405 -10.082  15.300  0.00  0.00    +0.002 C 
ATOM     23  C   UNL     1     -10.624  -8.586  15.092  0.00  0.00    +0.000 C 
ENDBRANCH  10  18
ENDBRANCH   4  24
ENDBRANCH  15   4
TORSDOF 7
ENDMDL
MODEL 3
REMARK VINA RESULT:      -6.9      2.738      8.223
REMARK  Name = 40586241
REMARK  8 active torsions:
REMARK  status: ('A' for Active; 'I' for Inactive)
REMARK    1  A    between atoms: S_1  and  N_9
REMARK    2  A    between atoms: S_1  and  C_25
REMARK    3  A    between atoms: O_4  and  C_15
REMARK    4  A    between atoms: O_4  and  C_24
REMARK    5  A    between atoms: N_9  and  C_14
REMARK    6  A    between atoms: N_10  and  C_18
REMARK    7  A    between atoms: N_11  and  C_30
REMARK    8  A    between atoms: C_31  and  C_32
REMARK                            x       y       z     vdW  Elec       q    Type
REMARK                         _______ _______ _______ _____ _____    ______ ____
ROOT
ATOM      2  O   UNL     1      -4.023 -12.290  14.420  0.00  0.00    -0.369 OA
ATOM      3  O   UNL     1      -2.187 -10.919  16.472  0.00  0.00    -0.368 OA
ATOM     12  C   UNL     1      -3.578 -10.723  16.145  0.00  0.00    +0.171 C 
ATOM     13  C   UNL     1      -3.709 -10.906  14.646  0.00  0.00    +0.191 C 
ATOM     14  C   UNL     1      -4.404 -11.846  16.723  0.00  0.00    +0.133 C 
ATOM     15  C   UNL     1      -2.326 -10.558  14.151  0.00  0.00    +0.235 C 
ATOM     16  C   UNL     1      -4.267 -12.936  15.679  0.00  0.00    +0.183 C 
ATOM     17  C   UNL     1      -1.447 -11.100  15.255  0.00  0.00    +0.207 C 
ENDROOT
BRANCH  14   9
ATOM      9  N   UNL     1      -5.823 -11.429  16.829  0.00  0.00    -0.182 NA
ATOM     33  H   UNL     1      -6.265 -11.027  15.993  0.00  0.00    +0.148 HD
BRANCH   9   1
ATOM      1  S   UNL     1      -6.539 -11.247  18.357  0.00  0.00    +0.059 S 
ATOM      5  O   UNL     1      -5.670 -10.455  19.208  0.00  0.00    -0.153 OA
ATOM      6  O   UNL     1      -7.017 -12.540  18.807  0.00  0.00    -0.153 OA
BRANCH   1  25
ATOM     25  C   UNL     1      -7.965 -10.273  17.978  0.00  0.00    +0.105 A 
ATOM     26  C   UNL     1      -7.863  -9.204  17.088  0.00  0.00    +0.030 A 
ATOM     27  C   UNL     1      -9.192 -10.574  18.569  0.00  0.00    +0.030 A 
ATOM     28  C   UNL     1      -8.988  -8.436  16.789  0.00  0.00    +0.025 A 
ATOM     29  C   UNL     1     -10.318  -9.805  18.270  0.00  0.00    +0.025 A 
ATOM     30  C   UNL     1     -10.216  -8.737  17.379  0.00  0.00    +0.033 A 
BRANCH  30  11
ATOM      8  O   UNL     1     -12.070  -8.832  15.009  0.00  0.00    -0.276 OA
ATOM     11  N   UNL     1     -11.342  -7.970  17.080  0.00  0.00    -0.286 N 
ATOM     31  C   UNL     1     -12.172  -8.056  15.953  0.00  0.00    +0.214 C 
ATOM     32  C   UNL     1     -13.289  -7.044  16.004  0.00  0.00    +0.109 C 
ATOM     35  H   UNL     1     -11.582  -7.262  17.770  0.00  0.00    +0.155 HD
ENDBRANCH  30  11
ENDBRANCH   1  25
ENDBRANCH   9   1
ENDBRANCH  14   9
BRANCH  15   4
ATOM      4  O   UNL     1      -2.017 -11.126  12.899  0.00  0.00    -0.442 OA
BRANCH   4  24
ATOM      7  O   UNL     1      -1.179  -9.511  11.497  0.00  0.00    -0.226 OA
ATOM     10  N   UNL     1      -3.268 -10.454  11.136  0.00  0.00    -0.278 N 
ATOM     24  C   UNL     1      -2.076 -10.289  11.809  0.00  0.00    +0.401 C 
ATOM     34  H   UNL     1      -3.942 -11.101  11.533  0.00  0.00    +0.152 HD
BRANCH  10  18
ATOM     18  C   UNL     1      -3.629  -9.714   9.947  0.00  0.00    +0.076 C 
ATOM     19  C   UNL     1      -4.342 -10.615   8.933  0.00  0.00    +0.022 C 
ATOM     20  C   UNL     1      -4.480  -8.489  10.297  0.00  0.00    +0.022 C 
ATOM     21  C   UNL     1      -5.757 -10.988   9.376  0.00  0.00    +0.002 C 
ATOM     22  C   UNL     1      -5.895  -8.865  10.738  0.00  0.00    +0.002 C 
ATOM     23  C   UNL     1      -6.588  -9.753   9.708  0.00  0.00    +0.000 C 
ENDBRANCH  10  18
ENDBRANCH   4  24
ENDBRANCH  15   4
TORSDOF 7
ENDMDL
MODEL 4
REMARK VINA RESULT:      -6.9      4.002      7.843
REMARK  Name = 40586241
REMARK  8 active torsions:
REMARK  status: ('A' for Active; 'I' for Inactive)
REMARK    1  A    between atoms: S_1  and  N_9
REMARK    2  A    between atoms: S_1  and  C_25
REMARK    3  A    between atoms: O_4  and  C_15
REMARK    4  A    between atoms: O_4  and  C_24
REMARK    5  A    between atoms: N_9  and  C_14
REMARK    6  A    between atoms: N_10  and  C_18
REMARK    7  A    between atoms: N_11  and  C_30
REMARK    8  A    between atoms: C_31  and  C_32
REMARK                            x       y       z     vdW  Elec       q    Type
REMARK                         _______ _______ _______ _____ _____    ______ ____
ROOT
ATOM      2  O   UNL     1      -6.735 -11.583  16.868  0.00  0.00    -0.369 OA
ATOM      3  O   UNL     1      -5.948 -11.168  19.812  0.00  0.00    -0.368 OA
ATOM     12  C   UNL     1      -6.614 -10.307  18.865  0.00  0.00    +0.171 C 
ATOM     13  C   UNL     1      -5.969 -10.553  17.516  0.00  0.00    +0.191 C 
ATOM     14  C   UNL     1      -8.041 -10.761  18.675  0.00  0.00    +0.133 C 
ATOM     15  C   UNL     1      -4.590 -11.039  17.896  0.00  0.00    +0.235 C 
ATOM     16  C   UNL     1      -7.908 -11.865  17.646  0.00  0.00    +0.183 C 
ATOM     17  C   UNL     1      -4.868 -11.839  19.147  0.00  0.00    +0.207 C 
ENDROOT
BRANCH  14   9
ATOM      9  N   UNL     1      -8.855  -9.653  18.120  0.00  0.00    -0.182 NA
ATOM     33  H   UNL     1      -8.413  -8.728  18.045  0.00  0.00    +0.148 HD
BRANCH   9   1
ATOM      1  S   UNL     1     -10.541  -9.816  18.006  0.00  0.00    +0.059 S 
ATOM      5  O   UNL     1     -11.137  -9.604  19.312  0.00  0.00    -0.153 OA
ATOM      6  O   UNL     1     -10.845 -11.018  17.253  0.00  0.00    -0.153 OA
BRANCH   1  25
ATOM     25  C   UNL     1     -10.973  -8.442  16.981  0.00  0.00    +0.105 A 
ATOM     26  C   UNL     1      -9.975  -7.608  16.477  0.00  0.00    +0.030 A 
ATOM     27  C   UNL     1     -12.311  -8.194  16.676  0.00  0.00    +0.030 A 
ATOM     28  C   UNL     1     -10.316  -6.524  15.668  0.00  0.00    +0.025 A 
ATOM     29  C   UNL     1     -12.651  -7.110  15.866  0.00  0.00    +0.025 A 
ATOM     30  C   UNL     1     -11.654  -6.275  15.362  0.00  0.00    +0.033 A 
BRANCH  30  11
ATOM      8  O   UNL     1     -12.358  -6.170  12.436  0.00  0.00    -0.276 OA
ATOM     11  N   UNL     1     -11.996  -5.192  14.551  0.00  0.00    -0.286 N 
ATOM     31  C   UNL     1     -12.314  -5.200  13.186  0.00  0.00    +0.214 C 
ATOM     32  C   UNL     1     -12.627  -3.815  12.677  0.00  0.00    +0.109 C 
ATOM     35  H   UNL     1     -12.013  -4.288  15.018  0.00  0.00    +0.155 HD
ENDBRANCH  30  11
ENDBRANCH   1  25
ENDBRANCH   9   1
ENDBRANCH  14   9
BRANCH  15   4
ATOM      4  O   UNL     1      -3.971 -11.815  16.895  0.00  0.00    -0.442 OA
BRANCH   4  24
ATOM      7  O   UNL     1      -2.160 -10.540  16.288  0.00  0.00    -0.226 OA
ATOM     10  N   UNL     1      -3.718 -11.244  14.719  0.00  0.00    -0.278 N 
ATOM     24  C   UNL     1      -3.187 -11.141  15.987  0.00  0.00    +0.401 C 
ATOM     34  H   UNL     1      -4.601 -11.735  14.621  0.00  0.00    +0.152 HD
BRANCH  10  18
ATOM     18  C   UNL     1      -3.121 -10.642  13.547  0.00  0.00    +0.076 C 
ATOM     19  C   UNL     1      -1.996 -11.519  12.989  0.00  0.00    +0.022 C 
ATOM     20  C   UNL     1      -4.180 -10.350  12.478  0.00  0.00    +0.022 C 
ATOM     21  C   UNL     1      -2.521 -12.788  12.319  0.00  0.00    +0.002 C 
ATOM     22  C   UNL     1      -4.703 -11.621  11.809  0.00  0.00    +0.002 C 
ATOM     23  C   UNL     1      -3.565 -12.473  11.252  0.00  0.00    +0.000 C 
ENDBRANCH  10  18
ENDBRANCH   4  24
ENDBRANCH  15   4
TORSDOF 7
ENDMDL
MODEL 5
REMARK VINA RESULT:      -6.9      5.343      8.895
REMARK  Name = 40586241
REMARK  8 active torsions:
REMARK  status: ('A' for Active; 'I' for Inactive)
REMARK    1  A    between atoms: S_1  and  N_9
REMARK    2  A    between atoms: S_1  and  C_25
REMARK    3  A    between atoms: O_4  and  C_15
REMARK    4  A    between atoms: O_4  and  C_24
REMARK    5  A    between atoms: N_9  and  C_14
REMARK    6  A    between atoms: N_10  and  C_18
REMARK    7  A    between atoms: N_11  and  C_30
REMARK    8  A    between atoms: C_31  and  C_32
REMARK                            x       y       z     vdW  Elec       q    Type
REMARK                         _______ _______ _______ _____ _____    ______ ____
ROOT
ATOM      2  O   UNL     1     -12.305  -8.385  16.682  0.00  0.00    -0.369 OA
ATOM      3  O   UNL     1     -11.456 -10.427  14.544  0.00  0.00    -0.368 OA
ATOM     12  C   UNL     1     -10.698  -9.696  15.530  0.00  0.00    +0.171 C 
ATOM     13  C   UNL     1     -11.322  -8.319  15.635  0.00  0.00    +0.191 C 
ATOM     14  C   UNL     1     -10.915 -10.300  16.896  0.00  0.00    +0.133 C 
ATOM     15  C   UNL     1     -11.962  -8.145  14.279  0.00  0.00    +0.235 C 
ATOM     16  C   UNL     1     -12.209  -9.653  17.348  0.00  0.00    +0.183 C 
ATOM     17  C   UNL     1     -12.431  -9.548  13.965  0.00  0.00    +0.207 C 
ENDROOT
BRANCH  14   9
ATOM      9  N   UNL     1      -9.813  -9.905  17.806  0.00  0.00    -0.182 NA
ATOM     33  H   UNL     1      -9.485  -8.932  17.763  0.00  0.00    +0.148 HD
BRANCH   9   1
ATOM      1  S   UNL     1      -8.878 -11.098  18.570  0.00  0.00    +0.059 S 
ATOM      5  O   UNL     1      -9.284 -12.408  18.096  0.00  0.00    -0.153 OA
ATOM      6  O   UNL     1      -8.835 -10.819  19.993  0.00  0.00    -0.153 OA
BRANCH   1  25
ATOM     25  C   UNL     1      -7.264 -10.763  17.930  0.00  0.00    +0.105 A 
ATOM     26  C   UNL     1      -6.138 -11.264  18.582  0.00  0.00    +0.030 A 
ATOM     27  C   UNL     1      -7.118  -9.999  16.772  0.00  0.00    +0.030 A 
ATOM     28  C   UNL     1      -4.865 -11.001  18.077  0.00  0.00    +0.025 A 
ATOM     29  C   UNL     1      -5.844  -9.736  16.267  0.00  0.00    +0.025 A 
ATOM     30  C   UNL     1      -4.718 -10.238  16.919  0.00  0.00    +0.033 A 
BRANCH  30  11
ATOM      8  O   UNL     1      -2.890 -11.948  15.247  0.00  0.00    -0.276 OA
ATOM     11  N   UNL     1      -3.445  -9.975  16.412  0.00  0.00    -0.286 N 
ATOM     31  C   UNL     1      -2.633 -10.814  15.636  0.00  0.00    +0.214 C 
ATOM     32  C   UNL     1      -1.321 -10.156  15.288  0.00  0.00    +0.109 C 
ATOM     35  H   UNL     1      -3.067  -9.058  16.640  0.00  0.00    +0.155 HD
ENDBRANCH  30  11
ENDBRANCH   1  25
ENDBRANCH   9   1
ENDBRANCH  14   9
BRANCH  15   4
ATOM      4  O   UNL     1     -13.022  -7.216  14.271  0.00  0.00    -0.442 OA
BRANCH   4  24
ATOM      7  O   UNL     1     -11.741  -5.391  14.821  0.00  0.00    -0.226 OA
ATOM     10  N   UNL     1     -13.525  -5.210  13.350  0.00  0.00    -0.278 N 
ATOM     24  C   UNL     1     -12.678  -5.886  14.202  0.00  0.00    +0.401 C 
ATOM     34  H   UNL     1     -14.289  -5.737  12.938  0.00  0.00    +0.152 HD
BRANCH  10  18
ATOM     18  C   UNL     1     -13.421  -3.796  13.067  0.00  0.00    +0.076 C 
ATOM     19  C   UNL     1     -12.350  -3.523  12.007  0.00  0.00    +0.022 C 
ATOM     20  C   UNL     1     -14.777  -3.217  12.649  0.00  0.00    +0.022 C 
ATOM     21  C   UNL     1     -12.779  -3.977  10.612  0.00  0.00    +0.002 C 
ATOM     22  C   UNL     1     -15.203  -3.671  11.253  0.00  0.00    +0.002 C 
ATOM     23  C   UNL     1     -14.125  -3.379  10.213  0.00  0.00    +0.000 C 
ENDBRANCH  10  18
ENDBRANCH   4  24
ENDBRANCH  15   4
TORSDOF 7
ENDMDL
MODEL 6
REMARK VINA RESULT:      -6.7     27.320     29.936
REMARK  Name = 40586241
REMARK  8 active torsions:
REMARK  status: ('A' for Active; 'I' for Inactive)
REMARK    1  A    between atoms: S_1  and  N_9
REMARK    2  A    between atoms: S_1  and  C_25
REMARK    3  A    between atoms: O_4  and  C_15
REMARK    4  A    between atoms: O_4  and  C_24
REMARK    5  A    between atoms: N_9  and  C_14
REMARK    6  A    between atoms: N_10  and  C_18
REMARK    7  A    between atoms: N_11  and  C_30
REMARK    8  A    between atoms: C_31  and  C_32
REMARK                            x       y       z     vdW  Elec       q    Type
REMARK                         _______ _______ _______ _____ _____    ______ ____
ROOT
ATOM      2  O   UNL     1      13.722  10.927  17.915  0.00  0.00    -0.369 OA
ATOM      3  O   UNL     1      12.782   8.490  16.291  0.00  0.00    -0.368 OA
ATOM     12  C   UNL     1      13.854   8.656  17.242  0.00  0.00    +0.171 C 
ATOM     13  C   UNL     1      14.425  10.043  17.026  0.00  0.00    +0.191 C 
ATOM     14  C   UNL     1      13.295   8.705  18.643  0.00  0.00    +0.133 C 
ATOM     15  C   UNL     1      14.082  10.317  15.581  0.00  0.00    +0.235 C 
ATOM     16  C   UNL     1      12.882  10.156  18.788  0.00  0.00    +0.183 C 
ATOM     17  C   UNL     1      12.737   9.644  15.439  0.00  0.00    +0.207 C 
ENDROOT
BRANCH  14   9
ATOM      9  N   UNL     1      14.359   8.386  19.624  0.00  0.00    -0.182 NA
ATOM     33  H   UNL     1      15.332   8.403  19.295  0.00  0.00    +0.148 HD
BRANCH   9   1
ATOM      1  S   UNL     1      13.957   7.634  21.093  0.00  0.00    +0.059 S 
ATOM      5  O   UNL     1      15.171   7.322  21.825  0.00  0.00    -0.153 OA
ATOM      6  O   UNL     1      12.975   6.599  20.835  0.00  0.00    -0.153 OA
BRANCH   1  25
ATOM     25  C   UNL     1      13.123   8.934  21.952  0.00  0.00    +0.105 A 
ATOM     26  C   UNL     1      13.827  10.070  22.352  0.00  0.00    +0.030 A 
ATOM     27  C   UNL     1      11.760   8.824  22.230  0.00  0.00    +0.030 A 
ATOM     28  C   UNL     1      13.168  11.096  23.030  0.00  0.00    +0.025 A 
ATOM     29  C   UNL     1      11.102   9.851  22.908  0.00  0.00    +0.025 A 
ATOM     30  C   UNL     1      11.805  10.987  23.307  0.00  0.00    +0.033 A 
BRANCH  30  11
ATOM      8  O   UNL     1      12.439  12.317  25.933  0.00  0.00    -0.276 OA
ATOM     11  N   UNL     1      11.146  12.013  23.984  0.00  0.00    -0.286 N 
ATOM     31  C   UNL     1      11.486  12.597  25.213  0.00  0.00    +0.214 C 
ATOM     32  C   UNL     1      10.514  13.681  25.604  0.00  0.00    +0.109 C 
ATOM     35  H   UNL     1      10.316  12.376  23.521  0.00  0.00    +0.155 HD
ENDBRANCH  30  11
ENDBRANCH   1  25
ENDBRANCH   9   1
ENDBRANCH  14   9
BRANCH  15   4
ATOM      4  O   UNL     1      14.026  11.690  15.266  0.00  0.00    -0.442 OA
BRANCH   4  24
ATOM      7  O   UNL     1      14.414  11.747  13.004  0.00  0.00    -0.226 OA
ATOM     10  N   UNL     1      12.492  12.669  13.919  0.00  0.00    -0.278 N 
ATOM     24  C   UNL     1      13.705  12.014  13.968  0.00  0.00    +0.401 C 
ATOM     34  H   UNL     1      12.032  12.865  14.803  0.00  0.00    +0.152 HD
BRANCH  10  18
ATOM     18  C   UNL     1      11.882  13.139  12.696  0.00  0.00    +0.076 C 
ATOM     19  C   UNL     1      10.734  12.221  12.264  0.00  0.00    +0.022 C 
ATOM     20  C   UNL     1      11.409  14.590  12.839  0.00  0.00    +0.022 C 
ATOM     21  C   UNL     1       9.507  12.354  13.166  0.00  0.00    +0.002 C 
ATOM     22  C   UNL     1      10.181  14.720  13.740  0.00  0.00    +0.002 C 
ATOM     23  C   UNL     1       9.048  13.804  13.285  0.00  0.00    +0.000 C 
ENDBRANCH  10  18
ENDBRANCH   4  24
ENDBRANCH  15   4
TORSDOF 7
ENDMDL
MODEL 7
REMARK VINA RESULT:      -6.6      2.205      3.140
REMARK  Name = 40586241
REMARK  8 active torsions:
REMARK  status: ('A' for Active; 'I' for Inactive)
REMARK    1  A    between atoms: S_1  and  N_9
REMARK    2  A    between atoms: S_1  and  C_25
REMARK    3  A    between atoms: O_4  and  C_15
REMARK    4  A    between atoms: O_4  and  C_24
REMARK    5  A    between atoms: N_9  and  C_14
REMARK    6  A    between atoms: N_10  and  C_18
REMARK    7  A    between atoms: N_11  and  C_30
REMARK    8  A    between atoms: C_31  and  C_32
REMARK                            x       y       z     vdW  Elec       q    Type
REMARK                         _______ _______ _______ _____ _____    ______ ____
ROOT
ATOM      2  O   UNL     1      -5.592  -9.783  15.365  0.00  0.00    -0.369 OA
ATOM      3  O   UNL     1      -6.447 -12.240  13.725  0.00  0.00    -0.368 OA
ATOM     12  C   UNL     1      -5.642 -11.091  13.386  0.00  0.00    +0.171 C 
ATOM     13  C   UNL     1      -6.255  -9.900  14.095  0.00  0.00    +0.191 C 
ATOM     14  C   UNL     1      -4.273 -11.221  14.009  0.00  0.00    +0.133 C 
ATOM     15  C   UNL     1      -7.697 -10.320  14.255  0.00  0.00    +0.235 C 
ATOM     16  C   UNL     1      -4.495 -10.707  15.417  0.00  0.00    +0.183 C 
ATOM     17  C   UNL     1      -7.570 -11.805  14.503  0.00  0.00    +0.207 C 
ENDROOT
BRANCH  14   9
ATOM      9  N   UNL     1      -3.310 -10.345  13.301  0.00  0.00    -0.182 NA
ATOM     33  H   UNL     1      -3.407  -9.330  13.427  0.00  0.00    +0.148 HD
BRANCH   9   1
ATOM      1  S   UNL     1      -2.371 -10.971  12.033  0.00  0.00    +0.059 S 
ATOM      5  O   UNL     1      -2.339 -12.420  12.123  0.00  0.00    -0.153 OA
ATOM      6  O   UNL     1      -1.133 -10.219  11.952  0.00  0.00    -0.153 OA
BRANCH   1  25
ATOM     25  C   UNL     1      -3.333 -10.536  10.615  0.00  0.00    +0.105 A 
ATOM     26  C   UNL     1      -3.443  -9.199  10.231  0.00  0.00    +0.030 A 
ATOM     27  C   UNL     1      -3.980 -11.528   9.880  0.00  0.00    +0.030 A 
ATOM     28  C   UNL     1      -4.201  -8.855   9.112  0.00  0.00    +0.025 A 
ATOM     29  C   UNL     1      -4.739 -11.184   8.761  0.00  0.00    +0.025 A 
ATOM     30  C   UNL     1      -4.849  -9.848   8.377  0.00  0.00    +0.033 A 
BRANCH  30  11
ATOM      8  O   UNL     1      -7.679  -8.842   8.167  0.00  0.00    -0.276 OA
ATOM     11  N   UNL     1      -5.607  -9.505   7.257  0.00  0.00    -0.286 N 
ATOM     31  C   UNL     1      -6.929  -9.041   7.216  0.00  0.00    +0.214 C 
ATOM     32  C   UNL     1      -7.388  -8.782   5.803  0.00  0.00    +0.109 C 
ATOM     35  H   UNL     1      -5.132  -9.607   6.363  0.00  0.00    +0.155 HD
ENDBRANCH  30  11
ENDBRANCH   1  25
ENDBRANCH   9   1
ENDBRANCH  14   9
BRANCH  15   4
ATOM      4  O   UNL     1      -8.362  -9.659  15.308  0.00  0.00    -0.442 OA
BRANCH   4  24
ATOM      7  O   UNL     1      -9.782 -10.897  16.621  0.00  0.00    -0.226 OA
ATOM     10  N   UNL     1      -7.573 -10.545  17.235  0.00  0.00    -0.278 N 
ATOM     24  C   UNL     1      -8.673 -10.415  16.414  0.00  0.00    +0.401 C 
ATOM     34  H   UNL     1      -6.727 -10.053  16.964  0.00  0.00    +0.152 HD
BRANCH  10  18
ATOM     18  C   UNL     1      -7.581 -11.284  18.479  0.00  0.00    +0.076 C 
ATOM     19  C   UNL     1      -7.314 -12.773  18.236  0.00  0.00    +0.022 C 
ATOM     20  C   UNL     1      -6.579 -10.694  19.476  0.00  0.00    +0.022 C 
ATOM     21  C   UNL     1      -5.862 -13.050  17.846  0.00  0.00    +0.002 C 
ATOM     22  C   UNL     1      -5.128 -10.974  19.084  0.00  0.00    +0.002 C 
ATOM     23  C   UNL     1      -4.883 -12.464  18.859  0.00  0.00    +0.000 C 
ENDBRANCH  10  18
ENDBRANCH   4  24
ENDBRANCH  15   4
TORSDOF 7
ENDMDL
MODEL 8
REMARK VINA RESULT:      -6.6      5.047      8.933
REMARK  Name = 40586241
REMARK  8 active torsions:
REMARK  status: ('A' for Active; 'I' for Inactive)
REMARK    1  A    between atoms: S_1  and  N_9
REMARK    2  A    between atoms: S_1  and  C_25
REMARK    3  A    between atoms: O_4  and  C_15
REMARK    4  A    between atoms: O_4  and  C_24
REMARK    5  A    between atoms: N_9  and  C_14
REMARK    6  A    between atoms: N_10  and  C_18
REMARK    7  A    between atoms: N_11  and  C_30
REMARK    8  A    between atoms: C_31  and  C_32
REMARK                            x       y       z     vdW  Elec       q    Type
REMARK                         _______ _______ _______ _____ _____    ______ ____
ROOT
ATOM      2  O   UNL     1      -9.760  -8.765   9.084  0.00  0.00    -0.369 OA
ATOM      3  O   UNL     1      -7.955  -7.472   6.956  0.00  0.00    -0.368 OA
ATOM     12  C   UNL     1      -7.654  -8.093   8.222  0.00  0.00    +0.171 C 
ATOM     13  C   UNL     1      -8.775  -7.722   9.173  0.00  0.00    +0.191 C 
ATOM     14  C   UNL     1      -7.763  -9.593   8.098  0.00  0.00    +0.133 C 
ATOM     15  C   UNL     1      -9.281  -6.424   8.591  0.00  0.00    +0.235 C 
ATOM     16  C   UNL     1      -9.248  -9.838   8.280  0.00  0.00    +0.183 C 
ATOM     17  C   UNL     1      -9.127  -6.659   7.106  0.00  0.00    +0.207 C 
ENDROOT
BRANCH  14   9
ATOM      9  N   UNL     1      -7.009 -10.248   9.193  0.00  0.00    -0.182 NA
ATOM     33  H   UNL     1      -7.280 -10.026  10.158  0.00  0.00    +0.148 HD
BRANCH   9   1
ATOM      1  S   UNL     1      -5.521 -10.997   8.864  0.00  0.00    +0.059 S 
ATOM      5  O   UNL     1      -4.817 -10.247   7.840  0.00  0.00    -0.153 OA
ATOM      6  O   UNL     1      -5.739 -12.421   8.704  0.00  0.00    -0.153 OA
BRANCH   1  25
ATOM     25  C   UNL     1      -4.656 -10.775  10.391  0.00  0.00    +0.105 A 
ATOM     26  C   UNL     1      -5.308 -11.008  11.601  0.00  0.00    +0.030 A 
ATOM     27  C   UNL     1      -3.322 -10.369  10.383  0.00  0.00    +0.030 A 
ATOM     28  C   UNL     1      -4.626 -10.834  12.805  0.00  0.00    +0.025 A 
ATOM     29  C   UNL     1      -2.639 -10.196  11.588  0.00  0.00    +0.025 A 
ATOM     30  C   UNL     1      -3.291 -10.429  12.799  0.00  0.00    +0.033 A 
BRANCH  30  11
ATOM      8  O   UNL     1      -1.678 -12.381  14.427  0.00  0.00    -0.276 OA
ATOM     11  N   UNL     1      -2.608 -10.256  14.003  0.00  0.00    -0.286 N 
ATOM     31  C   UNL     1      -1.869 -11.206  14.722  0.00  0.00    +0.214 C 
ATOM     32  C   UNL     1      -1.281 -10.620  15.981  0.00  0.00    +0.109 C 
ATOM     35  H   UNL     1      -2.657  -9.321  14.400  0.00  0.00    +0.155 HD
ENDBRANCH  30  11
ENDBRANCH   1  25
ENDBRANCH   9   1
ENDBRANCH  14   9
BRANCH  15   4
ATOM      4  O   UNL     1     -10.613  -6.129   8.948  0.00  0.00    -0.442 OA
BRANCH   4  24
ATOM      7  O   UNL     1     -10.182  -3.874   9.018  0.00  0.00    -0.226 OA
ATOM     10  N   UNL     1     -12.018  -4.784  10.105  0.00  0.00    -0.278 N 
ATOM     24  C   UNL     1     -10.878  -4.835   9.332  0.00  0.00    +0.401 C 
ATOM     34  H   UNL     1     -12.472  -5.665  10.326  0.00  0.00    +0.152 HD
BRANCH  10  18
ATOM     18  C   UNL     1     -12.558  -3.563  10.663  0.00  0.00    +0.076 C 
ATOM     19  C   UNL     1     -14.087  -3.545  10.572  0.00  0.00    +0.022 C 
ATOM     20  C   UNL     1     -12.084  -3.360  12.106  0.00  0.00    +0.022 C 
ATOM     21  C   UNL     1     -14.742  -4.521  11.550  0.00  0.00    +0.002 C 
ATOM     22  C   UNL     1     -12.742  -4.336  13.081  0.00  0.00    +0.002 C 
ATOM     23  C   UNL     1     -14.264  -4.292  12.981  0.00  0.00    +0.000 C 
ENDBRANCH  10  18
ENDBRANCH   4  24
ENDBRANCH  15   4
TORSDOF 7
ENDMDL
MODEL 9
REMARK VINA RESULT:      -6.5      2.228      2.958
REMARK  Name = 40586241
REMARK  8 active torsions:
REMARK  status: ('A' for Active; 'I' for Inactive)
REMARK    1  A    between atoms: S_1  and  N_9
REMARK    2  A    between atoms: S_1  and  C_25
REMARK    3  A    between atoms: O_4  and  C_15
REMARK    4  A    between atoms: O_4  and  C_24
REMARK    5  A    between atoms: N_9  and  C_14
REMARK    6  A    between atoms: N_10  and  C_18
REMARK    7  A    between atoms: N_11  and  C_30
REMARK    8  A    between atoms: C_31  and  C_32
REMARK                            x       y       z     vdW  Elec       q    Type
REMARK                         _______ _______ _______ _____ _____    ______ ____
ROOT
ATOM      2  O   UNL     1      -6.465 -11.544  16.559  0.00  0.00    -0.369 OA
ATOM      3  O   UNL     1      -4.771 -11.146  19.095  0.00  0.00    -0.368 OA
ATOM     12  C   UNL     1      -4.556 -11.942  17.911  0.00  0.00    +0.171 C 
ATOM     13  C   UNL     1      -5.908 -12.484  17.493  0.00  0.00    +0.191 C 
ATOM     14  C   UNL     1      -4.149 -11.052  16.762  0.00  0.00    +0.133 C 
ATOM     15  C   UNL     1      -6.673 -12.498  18.795  0.00  0.00    +0.235 C 
ATOM     16  C   UNL     1      -5.480 -10.551  16.237  0.00  0.00    +0.183 C 
ATOM     17  C   UNL     1      -6.147 -11.261  19.486  0.00  0.00    +0.207 C 
ENDROOT
BRANCH  14   9
ATOM      9  N   UNL     1      -3.468 -11.854  15.717  0.00  0.00    -0.182 NA
ATOM     33  H   UNL     1      -3.673 -12.860  15.679  0.00  0.00    +0.148 HD
BRANCH   9   1
ATOM      1  S   UNL     1      -2.120 -11.216  14.906  0.00  0.00    +0.059 S 
ATOM      5  O   UNL     1      -1.140 -12.266  14.696  0.00  0.00    -0.153 OA
ATOM      6  O   UNL     1      -1.732  -9.975  15.548  0.00  0.00    -0.153 OA
BRANCH   1  25
ATOM     25  C   UNL     1      -2.807 -10.791  13.334  0.00  0.00    +0.105 A 
ATOM     26  C   UNL     1      -4.180 -10.910  13.117  0.00  0.00    +0.030 A 
ATOM     27  C   UNL     1      -1.977 -10.334  12.311  0.00  0.00    +0.030 A 
ATOM     28  C   UNL     1      -4.722 -10.574  11.877  0.00  0.00    +0.025 A 
ATOM     29  C   UNL     1      -2.519  -9.997  11.070  0.00  0.00    +0.025 A 
ATOM     30  C   UNL     1      -3.892 -10.117  10.853  0.00  0.00    +0.033 A 
BRANCH  30  11
ATOM      8  O   UNL     1      -4.645 -11.854   8.513  0.00  0.00    -0.276 OA
ATOM     11  N   UNL     1      -4.434  -9.779   9.613  0.00  0.00    -0.286 N 
ATOM     31  C   UNL     1      -4.765 -10.634   8.552  0.00  0.00    +0.214 C 
ATOM     32  C   UNL     1      -5.329  -9.875   7.378  0.00  0.00    +0.109 C 
ATOM     35  H   UNL     1      -4.606  -8.787   9.470  0.00  0.00    +0.155 HD
ENDBRANCH  30  11
ENDBRANCH   1  25
ENDBRANCH   9   1
ENDBRANCH  14   9
BRANCH  15   4
ATOM      4  O   UNL     1      -8.072 -12.459  18.626  0.00  0.00    -0.442 OA
BRANCH   4  24
ATOM      7  O   UNL     1      -8.978 -10.951  20.102  0.00  0.00    -0.226 OA
ATOM     10  N   UNL     1      -8.969 -10.544  17.819  0.00  0.00    -0.278 N 
ATOM     24  C   UNL     1      -8.702 -11.281  18.953  0.00  0.00    +0.401 C 
ATOM     34  H   UNL     1      -8.727 -10.960  16.925  0.00  0.00    +0.152 HD
BRANCH  10  18
ATOM     18  C   UNL     1      -9.626  -9.256  17.833  0.00  0.00    +0.076 C 
ATOM     19  C   UNL     1      -9.152  -8.382  16.667  0.00  0.00    +0.022 C 
ATOM     20  C   UNL     1     -11.150  -9.414  17.825  0.00  0.00    +0.022 C 
ATOM     21  C   UNL     1      -9.686  -8.867  15.319  0.00  0.00    +0.002 C 
ATOM     22  C   UNL     1     -11.681  -9.897  16.475  0.00  0.00    +0.002 C 
ATOM     23  C   UNL     1     -11.205  -9.006  15.331  0.00  0.00    +0.000 C 
ENDBRANCH  10  18
ENDBRANCH   4  24
ENDBRANCH  15   4
TORSDOF 7
ENDMDL
MODEL 10
REMARK VINA RESULT:      -6.4     28.852     31.395
REMARK  Name = 40586241
REMARK  8 active torsions:
REMARK  status: ('A' for Active; 'I' for Inactive)
REMARK    1  A    between atoms: S_1  and  N_9
REMARK    2  A    between atoms: S_1  and  C_25
REMARK    3  A    between atoms: O_4  and  C_15
REMARK    4  A    between atoms: O_4  and  C_24
REMARK    5  A    between atoms: N_9  and  C_14
REMARK    6  A    between atoms: N_10  and  C_18
REMARK    7  A    between atoms: N_11  and  C_30
REMARK    8  A    between atoms: C_31  and  C_32
REMARK                            x       y       z     vdW  Elec       q    Type
REMARK                         _______ _______ _______ _____ _____    ______ ____
ROOT
ATOM      2  O   UNL     1      13.400  10.192  14.884  0.00  0.00    -0.369 OA
ATOM      3  O   UNL     1      14.789  11.931  17.008  0.00  0.00    -0.368 OA
ATOM     12  C   UNL     1      15.309  11.175  15.895  0.00  0.00    +0.171 C 
ATOM     13  C   UNL     1      14.478   9.911  15.793  0.00  0.00    +0.191 C 
ATOM     14  C   UNL     1      15.026  11.902  14.603  0.00  0.00    +0.133 C 
ATOM     15  C   UNL     1      13.982   9.730  17.208  0.00  0.00    +0.235 C 
ATOM     16  C   UNL     1      13.606  11.480  14.284  0.00  0.00    +0.183 C 
ATOM     17  C   UNL     1      13.768  11.158  17.656  0.00  0.00    +0.207 C 
ENDROOT
BRANCH  14   9
ATOM      9  N   UNL     1      15.943  11.423  13.541  0.00  0.00    -0.182 NA
ATOM     33  H   UNL     1      16.137  10.415  13.498  0.00  0.00    +0.148 HD
BRANCH   9   1
ATOM      1  S   UNL     1      16.930  12.528  12.713  0.00  0.00    +0.059 S 
ATOM      5  O   UNL     1      16.527  13.882  13.048  0.00  0.00    -0.153 OA
ATOM      6  O   UNL     1      17.029  12.120  11.325  0.00  0.00    -0.153 OA
BRANCH   1  25
ATOM     25  C   UNL     1      18.509  12.233  13.452  0.00  0.00    +0.105 A 
ATOM     26  C   UNL     1      18.627  12.163  14.840  0.00  0.00    +0.030 A 
ATOM     27  C   UNL     1      19.635  12.068  12.646  0.00  0.00    +0.030 A 
ATOM     28  C   UNL     1      19.873  11.929  15.422  0.00  0.00    +0.025 A 
ATOM     29  C   UNL     1      20.881  11.833  13.229  0.00  0.00    +0.025 A 
ATOM     30  C   UNL     1      21.000  11.764  14.617  0.00  0.00    +0.033 A 
BRANCH  30  11
ATOM      8  O   UNL     1      22.734   9.303  14.592  0.00  0.00    -0.276 OA
ATOM     11  N   UNL     1      22.246  11.529  15.199  0.00  0.00    -0.286 N 
ATOM     31  C   UNL     1      23.012  10.355  15.157  0.00  0.00    +0.214 C 
ATOM     32  C   UNL     1      24.307  10.506  15.915  0.00  0.00    +0.109 C 
ATOM     35  H   UNL     1      22.639  12.312  15.716  0.00  0.00    +0.155 HD
ENDBRANCH  30  11
ENDBRANCH   1  25
ENDBRANCH   9   1
ENDBRANCH  14   9
BRANCH  15   4
ATOM      4  O   UNL     1      12.804   8.962  17.298  0.00  0.00    -0.442 OA
BRANCH   4  24
ATOM      7  O   UNL     1      11.826   7.231  18.447  0.00  0.00    -0.226 OA
ATOM     10  N   UNL     1      14.043   7.813  18.804  0.00  0.00    -0.278 N 
ATOM     24  C   UNL     1      12.804   7.933  18.210  0.00  0.00    +0.401 C 
ATOM     34  H   UNL     1      14.752   8.494  18.546  0.00  0.00    +0.152 HD
BRANCH  10  18
ATOM     18  C   UNL     1      14.361   6.822  19.808  0.00  0.00    +0.076 C 
ATOM     19  C   UNL     1      15.812   6.347  19.673  0.00  0.00    +0.022 C 
ATOM     20  C   UNL     1      14.080   7.355  21.217  0.00  0.00    +0.022 C 
ATOM     21  C   UNL     1      16.818   7.410  20.112  0.00  0.00    +0.002 C 
ATOM     22  C   UNL     1      15.089   8.417  21.654  0.00  0.00    +0.002 C 
ATOM     23  C   UNL     1      16.524   7.917  21.521  0.00  0.00    +0.000 C 
ENDBRANCH  10  18
ENDBRANCH   4  24
ENDBRANCH  15   4
TORSDOF 7
ENDMDL
