MODEL 1
REMARK VINA RESULT:      -6.8      0.000      0.000
REMARK  Name = 45784323
REMARK  4 active torsions:
REMARK  status: ('A' for Active; 'I' for Inactive)
REMARK    1  A    between atoms: N_1  and  C_6
REMARK    2  A    between atoms: N_2  and  C_16
REMARK    3  A    between atoms: C_7  and  C_15
REMARK    4  A    between atoms: C_21  and  C_23
REMARK                            x       y       z     vdW  Elec       q    Type
REMARK                         _______ _______ _______ _____ _____    ______ ____
ROOT
ATOM      1  N   UNL     1      11.146   9.118  21.241  0.00  0.00    -0.299 NA
ATOM      7  C   UNL     1      12.613   7.621  20.190  0.00  0.00    +0.070 C 
ATOM      8  C   UNL     1      12.429   9.105  20.534  0.00  0.00    +0.096 C 
ATOM      9  C   UNL     1      11.196   7.960  22.133  0.00  0.00    +0.085 C 
ATOM     10  C   UNL     1      11.778   6.870  21.242  0.00  0.00    +0.028 C 
ENDROOT
BRANCH   7  15
ATOM      3  N   UNL     1      14.941   7.524  21.121  0.00  0.00    -0.342 N 
ATOM      4  N   UNL     1      14.647   6.537  19.151  0.00  0.00    -0.232 NA
ATOM     15  C   UNL     1      14.065   7.208  20.120  0.00  0.00    +0.113 A 
ATOM     17  C   UNL     1      16.170   7.020  20.776  0.00  0.00    +0.067 A 
ATOM     18  C   UNL     1      15.959   6.409  19.543  0.00  0.00    +0.089 A 
ATOM     19  C   UNL     1      17.409   7.047  21.417  0.00  0.00    +0.046 A 
ATOM     20  C   UNL     1      17.038   5.783  18.896  0.00  0.00    +0.031 A 
ATOM     21  C   UNL     1      18.471   6.418  20.759  0.00  0.00    +0.054 A 
ATOM     22  C   UNL     1      18.291   5.797  19.521  0.00  0.00    +0.021 A 
ATOM     24  H   UNL     1      14.726   8.035  21.968  0.00  0.00    +0.167 HD
BRANCH  21  23
ATOM      5  N   UNL     1      20.816   6.408  21.860  0.00  0.00    -0.191 NA
ATOM     23  C   UNL     1      19.765   6.412  21.366  0.00  0.00    +0.099 C 
ENDBRANCH  21  23
ENDBRANCH   7  15
BRANCH   1   6
ATOM      2  N   UNL     1      11.944  12.501  23.688  0.00  0.00    -0.305 NA
ATOM      6  C   UNL     1      10.922  10.368  21.964  0.00  0.00    +0.059 C 
ATOM     11  C   UNL     1      11.127  10.175  23.470  0.00  0.00    +0.034 C 
ATOM     12  C   UNL     1      11.865  11.457  21.445  0.00  0.00    +0.034 C 
ATOM     13  C   UNL     1      11.002  11.505  24.216  0.00  0.00    +0.085 C 
ATOM     14  C   UNL     1      11.714  12.746  22.257  0.00  0.00    +0.085 C 
ATOM     16  C   UNL     1      11.847  13.749  24.443  0.00  0.00    +0.104 C 
ENDBRANCH   1   6
TORSDOF 3
ENDMDL
MODEL 2
REMARK VINA RESULT:      -6.4      2.848      5.683
REMARK  Name = 45784323
REMARK  4 active torsions:
REMARK  status: ('A' for Active; 'I' for Inactive)
REMARK    1  A    between atoms: N_1  and  C_6
REMARK    2  A    between atoms: N_2  and  C_16
REMARK    3  A    between atoms: C_7  and  C_15
REMARK    4  A    between atoms: C_21  and  C_23
REMARK                            x       y       z     vdW  Elec       q    Type
REMARK                         _______ _______ _______ _____ _____    ______ ____
ROOT
ATOM      1  N   UNL     1      16.345   7.379  20.284  0.00  0.00    -0.299 NA
ATOM      7  C   UNL     1      18.562   6.675  19.986  0.00  0.00    +0.070 C 
ATOM      8  C   UNL     1      17.627   7.358  20.992  0.00  0.00    +0.096 C 
ATOM      9  C   UNL     1      16.234   6.058  19.667  0.00  0.00    +0.085 C 
ATOM     10  C   UNL     1      17.630   5.830  19.100  0.00  0.00    +0.028 C 
ENDROOT
BRANCH   7  15
ATOM      3  N   UNL     1      20.181   4.760  20.091  0.00  0.00    -0.342 N 
ATOM      4  N   UNL     1      20.279   6.203  21.780  0.00  0.00    -0.232 NA
ATOM     15  C   UNL     1      19.678   5.903  20.650  0.00  0.00    +0.113 A 
ATOM     17  C   UNL     1      21.173   4.292  20.916  0.00  0.00    +0.067 A 
ATOM     18  C   UNL     1      21.214   5.210  21.962  0.00  0.00    +0.089 A 
ATOM     19  C   UNL     1      22.010   3.180  20.839  0.00  0.00    +0.046 A 
ATOM     20  C   UNL     1      22.140   5.022  23.002  0.00  0.00    +0.031 A 
ATOM     21  C   UNL     1      22.926   3.008  21.882  0.00  0.00    +0.054 A 
ATOM     22  C   UNL     1      22.992   3.912  22.945  0.00  0.00    +0.021 A 
ATOM     24  H   UNL     1      19.880   4.333  19.225  0.00  0.00    +0.167 HD
BRANCH  21  23
ATOM      5  N   UNL     1      24.532   0.975  21.838  0.00  0.00    -0.191 NA
ATOM     23  C   UNL     1      23.812   1.886  21.858  0.00  0.00    +0.099 C 
ENDBRANCH  21  23
ENDBRANCH   7  15
BRANCH   1   6
ATOM      2  N   UNL     1      12.543   8.785  21.563  0.00  0.00    -0.305 NA
ATOM      6  C   UNL     1      15.223   7.674  21.172  0.00  0.00    +0.059 C 
ATOM     11  C   UNL     1      14.966   9.183  21.248  0.00  0.00    +0.034 C 
ATOM     12  C   UNL     1      13.961   6.954  20.688  0.00  0.00    +0.034 C 
ATOM     13  C   UNL     1      13.723   9.485  22.089  0.00  0.00    +0.085 C 
ATOM     14  C   UNL     1      12.751   7.329  21.548  0.00  0.00    +0.085 C 
ATOM     16  C   UNL     1      11.355   9.123  22.346  0.00  0.00    +0.104 C 
ENDBRANCH   1   6
TORSDOF 3
ENDMDL
MODEL 3
REMARK VINA RESULT:      -6.4     26.799     28.734
REMARK  Name = 45784323
REMARK  4 active torsions:
REMARK  status: ('A' for Active; 'I' for Inactive)
REMARK    1  A    between atoms: N_1  and  C_6
REMARK    2  A    between atoms: N_2  and  C_16
REMARK    3  A    between atoms: C_7  and  C_15
REMARK    4  A    between atoms: C_21  and  C_23
REMARK                            x       y       z     vdW  Elec       q    Type
REMARK                         _______ _______ _______ _____ _____    ______ ____
ROOT
ATOM      1  N   UNL     1      -2.483 -10.881  12.125  0.00  0.00    -0.299 NA
ATOM      7  C   UNL     1      -2.452 -10.791  14.468  0.00  0.00    +0.070 C 
ATOM      8  C   UNL     1      -3.224 -10.289  13.241  0.00  0.00    +0.096 C 
ATOM      9  C   UNL     1      -2.202 -12.254  12.544  0.00  0.00    +0.085 C 
ATOM     10  C   UNL     1      -1.762 -12.082  13.993  0.00  0.00    +0.028 C 
ENDROOT
BRANCH   7  15
ATOM      3  N   UNL     1      -4.665 -10.675  15.645  0.00  0.00    -0.342 N 
ATOM      4  N   UNL     1      -2.946 -11.350  16.883  0.00  0.00    -0.232 NA
ATOM     15  C   UNL     1      -3.327 -10.951  15.689  0.00  0.00    +0.113 A 
ATOM     17  C   UNL     1      -5.183 -10.912  16.893  0.00  0.00    +0.067 A 
ATOM     18  C   UNL     1      -4.091 -11.333  17.646  0.00  0.00    +0.089 A 
ATOM     19  C   UNL     1      -6.473 -10.799  17.410  0.00  0.00    +0.046 A 
ATOM     20  C   UNL     1      -4.278 -11.663  18.999  0.00  0.00    +0.031 A 
ATOM     21  C   UNL     1      -6.642 -11.132  18.758  0.00  0.00    +0.054 A 
ATOM     22  C   UNL     1      -5.566 -11.557  19.540  0.00  0.00    +0.021 A 
ATOM     24  H   UNL     1      -5.185 -10.354  14.838  0.00  0.00    +0.167 HD
BRANCH  21  23
ATOM      5  N   UNL     1      -8.998 -10.957  19.823  0.00  0.00    -0.191 NA
ATOM     23  C   UNL     1      -7.942 -11.035  19.345  0.00  0.00    +0.099 C 
ENDBRANCH  21  23
ENDBRANCH   7  15
BRANCH   1   6
ATOM      2  N   UNL     1      -5.485  -9.786   9.321  0.00  0.00    -0.305 NA
ATOM      6  C   UNL     1      -3.228 -10.824  10.869  0.00  0.00    +0.059 C 
ATOM     11  C   UNL     1      -4.657 -11.346  11.055  0.00  0.00    +0.034 C 
ATOM     12  C   UNL     1      -3.263  -9.389  10.337  0.00  0.00    +0.034 C 
ATOM     13  C   UNL     1      -5.471 -11.185   9.769  0.00  0.00    +0.085 C 
ATOM     14  C   UNL     1      -4.122  -9.293   9.074  0.00  0.00    +0.085 C 
ATOM     16  C   UNL     1      -6.307  -9.640   8.121  0.00  0.00    +0.104 C 
ENDBRANCH   1   6
TORSDOF 3
ENDMDL
MODEL 4
REMARK VINA RESULT:      -6.4     16.812     19.886
REMARK  Name = 45784323
REMARK  4 active torsions:
REMARK  status: ('A' for Active; 'I' for Inactive)
REMARK    1  A    between atoms: N_1  and  C_6
REMARK    2  A    between atoms: N_2  and  C_16
REMARK    3  A    between atoms: C_7  and  C_15
REMARK    4  A    between atoms: C_21  and  C_23
REMARK                            x       y       z     vdW  Elec       q    Type
REMARK                         _______ _______ _______ _____ _____    ______ ____
ROOT
ATOM      1  N   UNL     1      12.149   5.095   0.775  0.00  0.00    -0.299 NA
ATOM      7  C   UNL     1      10.455   4.952   2.390  0.00  0.00    +0.070 C 
ATOM      8  C   UNL     1      11.938   4.638   2.150  0.00  0.00    +0.096 C 
ATOM      9  C   UNL     1      11.448   6.376   0.691  0.00  0.00    +0.085 C 
ATOM     10  C   UNL     1      10.133   6.090   1.407  0.00  0.00    +0.028 C 
ENDROOT
BRANCH   7  15
ATOM      3  N   UNL     1      10.439   4.361   4.829  0.00  0.00    -0.342 N 
ATOM      4  N   UNL     1       9.585   6.347   4.310  0.00  0.00    -0.232 NA
ATOM     15  C   UNL     1      10.145   5.255   3.838  0.00  0.00    +0.113 A 
ATOM     17  C   UNL     1      10.045   4.914   6.022  0.00  0.00    +0.067 A 
ATOM     18  C   UNL     1       9.515   6.152   5.670  0.00  0.00    +0.089 A 
ATOM     19  C   UNL     1      10.103   4.450   7.335  0.00  0.00    +0.046 A 
ATOM     20  C   UNL     1       9.009   6.992   6.677  0.00  0.00    +0.031 A 
ATOM     21  C   UNL     1       9.595   5.298   8.325  0.00  0.00    +0.054 A 
ATOM     22  C   UNL     1       9.058   6.547   8.004  0.00  0.00    +0.021 A 
ATOM     24  H   UNL     1      10.872   3.455   4.710  0.00  0.00    +0.167 HD
BRANCH  21  23
ATOM      5  N   UNL     1       9.655   4.536  10.801  0.00  0.00    -0.191 NA
ATOM     23  C   UNL     1       9.628   4.878   9.691  0.00  0.00    +0.099 C 
ENDBRANCH  21  23
ENDBRANCH   7  15
BRANCH   1   6
ATOM      2  N   UNL     1      15.865   4.320  -1.137  0.00  0.00    -0.305 NA
ATOM      6  C   UNL     1      13.566   5.213   0.438  0.00  0.00    +0.059 C 
ATOM     11  C   UNL     1      14.314   3.913   0.748  0.00  0.00    +0.034 C 
ATOM     12  C   UNL     1      13.731   5.569  -1.042  0.00  0.00    +0.034 C 
ATOM     13  C   UNL     1      15.773   3.998   0.293  0.00  0.00    +0.085 C 
ATOM     14  C   UNL     1      15.209   5.601  -1.438  0.00  0.00    +0.085 C 
ATOM     16  C   UNL     1      17.263   4.348  -1.567  0.00  0.00    +0.104 C 
ENDBRANCH   1   6
TORSDOF 3
ENDMDL
MODEL 5
REMARK VINA RESULT:      -6.3     26.543     29.958
REMARK  Name = 45784323
REMARK  4 active torsions:
REMARK  status: ('A' for Active; 'I' for Inactive)
REMARK    1  A    between atoms: N_1  and  C_6
REMARK    2  A    between atoms: N_2  and  C_16
REMARK    3  A    between atoms: C_7  and  C_15
REMARK    4  A    between atoms: C_21  and  C_23
REMARK                            x       y       z     vdW  Elec       q    Type
REMARK                         _______ _______ _______ _____ _____    ______ ____
ROOT
ATOM      1  N   UNL     1      -4.128 -11.102  17.541  0.00  0.00    -0.299 NA
ATOM      7  C   UNL     1      -5.933 -10.543  18.929  0.00  0.00    +0.070 C 
ATOM      8  C   UNL     1      -5.397 -10.374  17.501  0.00  0.00    +0.096 C 
ATOM      9  C   UNL     1      -4.420 -12.330  18.281  0.00  0.00    +0.085 C 
ATOM     10  C   UNL     1      -5.267 -11.830  19.446  0.00  0.00    +0.028 C 
ENDROOT
BRANCH   7  15
ATOM      3  N   UNL     1      -8.190  -9.802  18.118  0.00  0.00    -0.342 N 
ATOM      4  N   UNL     1      -8.194 -11.198  19.849  0.00  0.00    -0.232 NA
ATOM     15  C   UNL     1      -7.443 -10.539  18.995  0.00  0.00    +0.113 A 
ATOM     17  C   UNL     1      -9.512 -10.000  18.426  0.00  0.00    +0.067 A 
ATOM     18  C   UNL     1      -9.487 -10.874  19.509  0.00  0.00    +0.089 A 
ATOM     19  C   UNL     1     -10.690  -9.505  17.867  0.00  0.00    +0.046 A 
ATOM     20  C   UNL     1     -10.702 -11.289  20.082  0.00  0.00    +0.031 A 
ATOM     21  C   UNL     1     -11.889  -9.928  18.450  0.00  0.00    +0.054 A 
ATOM     22  C   UNL     1     -11.898 -10.804  19.537  0.00  0.00    +0.021 A 
ATOM     24  H   UNL     1      -7.835  -9.217  17.374  0.00  0.00    +0.167 HD
BRANCH  21  23
ATOM      5  N   UNL     1     -14.137  -9.067  17.490  0.00  0.00    -0.191 NA
ATOM     23  C   UNL     1     -13.130  -9.453  17.920  0.00  0.00    +0.099 C 
ENDBRANCH  21  23
ENDBRANCH   7  15
BRANCH   1   6
ATOM      2  N   UNL     1      -2.518 -10.375  13.675  0.00  0.00    -0.305 NA
ATOM      6  C   UNL     1      -3.597 -11.372  16.206  0.00  0.00    +0.059 C 
ATOM     11  C   UNL     1      -4.488 -10.750  15.126  0.00  0.00    +0.034 C 
ATOM     12  C   UNL     1      -2.171 -10.827  16.083  0.00  0.00    +0.034 C 
ATOM     13  C   UNL     1      -3.875 -10.936  13.736  0.00  0.00    +0.085 C 
ATOM     14  C   UNL     1      -1.634 -11.012  14.662  0.00  0.00    +0.085 C 
ATOM     16  C   UNL     1      -1.966 -10.515  12.328  0.00  0.00    +0.104 C 
ENDBRANCH   1   6
TORSDOF 3
ENDMDL
MODEL 6
REMARK VINA RESULT:      -6.1     26.612     28.573
REMARK  Name = 45784323
REMARK  4 active torsions:
REMARK  status: ('A' for Active; 'I' for Inactive)
REMARK    1  A    between atoms: N_1  and  C_6
REMARK    2  A    between atoms: N_2  and  C_16
REMARK    3  A    between atoms: C_7  and  C_15
REMARK    4  A    between atoms: C_21  and  C_23
REMARK                            x       y       z     vdW  Elec       q    Type
REMARK                         _______ _______ _______ _____ _____    ______ ____
ROOT
ATOM      1  N   UNL     1      -3.930 -11.942  16.767  0.00  0.00    -0.299 NA
ATOM      7  C   UNL     1      -3.212 -11.524  14.575  0.00  0.00    +0.070 C 
ATOM      8  C   UNL     1      -4.422 -11.999  15.389  0.00  0.00    +0.096 C 
ATOM      9  C   UNL     1      -3.193 -10.681  16.853  0.00  0.00    +0.085 C 
ATOM     10  C   UNL     1      -2.393 -10.667  15.556  0.00  0.00    +0.028 C 
ENDROOT
BRANCH   7  15
ATOM      3  N   UNL     1      -4.879 -10.381  13.088  0.00  0.00    -0.342 N 
ATOM      4  N   UNL     1      -2.820 -10.563  12.270  0.00  0.00    -0.232 NA
ATOM     15  C   UNL     1      -3.602 -10.824  13.294  0.00  0.00    +0.113 A 
ATOM     17  C   UNL     1      -4.924  -9.794  11.849  0.00  0.00    +0.067 A 
ATOM     18  C   UNL     1      -3.627  -9.921  11.360  0.00  0.00    +0.089 A 
ATOM     19  C   UNL     1      -5.956  -9.183  11.137  0.00  0.00    +0.046 A 
ATOM     20  C   UNL     1      -3.323  -9.413  10.085  0.00  0.00    +0.031 A 
ATOM     21  C   UNL     1      -5.636  -8.683   9.870  0.00  0.00    +0.054 A 
ATOM     22  C   UNL     1      -4.344  -8.795   9.351  0.00  0.00    +0.021 A 
ATOM     24  H   UNL     1      -5.655 -10.467  13.732  0.00  0.00    +0.167 HD
BRANCH  21  23
ATOM      5  N   UNL     1      -7.478  -7.528   8.461  0.00  0.00    -0.191 NA
ATOM     23  C   UNL     1      -6.652  -8.046   9.092  0.00  0.00    +0.099 C 
ENDBRANCH  21  23
ENDBRANCH   7  15
BRANCH   1   6
ATOM      2  N   UNL     1      -7.641 -11.141  18.678  0.00  0.00    -0.305 NA
ATOM      6  C   UNL     1      -5.010 -12.022  17.749  0.00  0.00    +0.059 C 
ATOM     11  C   UNL     1      -5.223 -10.672  18.441  0.00  0.00    +0.034 C 
ATOM     12  C   UNL     1      -6.308 -12.471  17.073  0.00  0.00    +0.034 C 
ATOM     13  C   UNL     1      -6.424 -10.725  19.388  0.00  0.00    +0.085 C 
ATOM     14  C   UNL     1      -7.474 -12.466  18.065  0.00  0.00    +0.085 C 
ATOM     16  C   UNL     1      -8.789 -11.138  19.584  0.00  0.00    +0.104 C 
ENDBRANCH   1   6
TORSDOF 3
ENDMDL
MODEL 7
REMARK VINA RESULT:      -6.0     26.134     28.806
REMARK  Name = 45784323
REMARK  4 active torsions:
REMARK  status: ('A' for Active; 'I' for Inactive)
REMARK    1  A    between atoms: N_1  and  C_6
REMARK    2  A    between atoms: N_2  and  C_16
REMARK    3  A    between atoms: C_7  and  C_15
REMARK    4  A    between atoms: C_21  and  C_23
REMARK                            x       y       z     vdW  Elec       q    Type
REMARK                         _______ _______ _______ _____ _____    ______ ____
ROOT
ATOM      1  N   UNL     1      -5.075  -9.917   8.793  0.00  0.00    -0.299 NA
ATOM      7  C   UNL     1      -3.436 -10.249  10.436  0.00  0.00    +0.070 C 
ATOM      8  C   UNL     1      -4.627  -9.354  10.068  0.00  0.00    +0.096 C 
ATOM      9  C   UNL     1      -5.030 -11.367   8.983  0.00  0.00    +0.085 C 
ATOM     10  C   UNL     1      -3.700 -11.573   9.698  0.00  0.00    +0.028 C 
ENDROOT
BRANCH   7  15
ATOM      3  N   UNL     1      -4.294 -10.608  12.767  0.00  0.00    -0.342 N 
ATOM      4  N   UNL     1      -2.099 -10.305  12.581  0.00  0.00    -0.232 NA
ATOM     15  C   UNL     1      -3.238 -10.383  11.928  0.00  0.00    +0.113 A 
ATOM     17  C   UNL     1      -3.804 -10.681  14.046  0.00  0.00    +0.067 A 
ATOM     18  C   UNL     1      -2.433 -10.489  13.902  0.00  0.00    +0.089 A 
ATOM     19  C   UNL     1      -4.424 -10.892  15.277  0.00  0.00    +0.046 A 
ATOM     20  C   UNL     1      -1.616 -10.504  15.046  0.00  0.00    +0.031 A 
ATOM     21  C   UNL     1      -3.596 -10.905  16.405  0.00  0.00    +0.054 A 
ATOM     22  C   UNL     1      -2.217 -10.715  16.294  0.00  0.00    +0.021 A 
ATOM     24  H   UNL     1      -5.264 -10.705  12.497  0.00  0.00    +0.167 HD
BRANCH  21  23
ATOM      5  N   UNL     1      -4.643 -11.289  18.744  0.00  0.00    -0.191 NA
ATOM     23  C   UNL     1      -4.174 -11.117  17.695  0.00  0.00    +0.099 C 
ENDBRANCH  21  23
ENDBRANCH   7  15
BRANCH   1   6
ATOM      2  N   UNL     1      -8.091  -7.484   7.045  0.00  0.00    -0.305 NA
ATOM      6  C   UNL     1      -6.406  -9.447   8.414  0.00  0.00    +0.059 C 
ATOM     11  C   UNL     1      -6.685  -8.059   8.999  0.00  0.00    +0.034 C 
ATOM     12  C   UNL     1      -6.539  -9.406   6.889  0.00  0.00    +0.034 C 
ATOM     13  C   UNL     1      -8.032  -7.520   8.513  0.00  0.00    +0.085 C 
ATOM     14  C   UNL     1      -7.892  -8.823   6.472  0.00  0.00    +0.085 C 
ATOM     16  C   UNL     1      -9.363  -6.920   6.597  0.00  0.00    +0.104 C 
ENDBRANCH   1   6
TORSDOF 3
ENDMDL
MODEL 8
REMARK VINA RESULT:      -5.9     27.024     28.758
REMARK  Name = 45784323
REMARK  4 active torsions:
REMARK  status: ('A' for Active; 'I' for Inactive)
REMARK    1  A    between atoms: N_1  and  C_6
REMARK    2  A    between atoms: N_2  and  C_16
REMARK    3  A    between atoms: C_7  and  C_15
REMARK    4  A    between atoms: C_21  and  C_23
REMARK                            x       y       z     vdW  Elec       q    Type
REMARK                         _______ _______ _______ _____ _____    ______ ____
ROOT
ATOM      1  N   UNL     1      -6.304 -12.059  18.155  0.00  0.00    -0.299 NA
ATOM      7  C   UNL     1      -4.454 -12.052  16.715  0.00  0.00    +0.070 C 
ATOM      8  C   UNL     1      -5.961 -12.336  16.758  0.00  0.00    +0.096 C 
ATOM      9  C   UNL     1      -5.583 -10.830  18.484  0.00  0.00    +0.085 C 
ATOM     10  C   UNL     1      -4.208 -11.069  17.872  0.00  0.00    +0.028 C 
ENDROOT
BRANCH   7  15
ATOM      3  N   UNL     1      -4.854 -11.011  14.467  0.00  0.00    -0.342 N 
ATOM      4  N   UNL     1      -2.758 -11.620  14.891  0.00  0.00    -0.232 NA
ATOM     15  C   UNL     1      -3.984 -11.570  15.362  0.00  0.00    +0.113 A 
ATOM     17  C   UNL     1      -4.141 -10.676  13.343  0.00  0.00    +0.067 A 
ATOM     18  C   UNL     1      -2.836 -11.067  13.634  0.00  0.00    +0.089 A 
ATOM     19  C   UNL     1      -4.513 -10.085  12.137  0.00  0.00    +0.046 A 
ATOM     20  C   UNL     1      -1.830 -10.862  12.673  0.00  0.00    +0.031 A 
ATOM     21  C   UNL     1      -3.500  -9.889  11.193  0.00  0.00    +0.054 A 
ATOM     22  C   UNL     1      -2.182 -10.269  11.454  0.00  0.00    +0.021 A 
ATOM     24  H   UNL     1      -5.845 -10.867  14.604  0.00  0.00    +0.167 HD
BRANCH  21  23
ATOM      5  N   UNL     1      -4.083  -8.797   8.916  0.00  0.00    -0.191 NA
ATOM     23  C   UNL     1      -3.821  -9.286   9.936  0.00  0.00    +0.099 C 
ENDBRANCH  21  23
ENDBRANCH   7  15
BRANCH   1   6
ATOM      2  N   UNL     1      -9.985 -10.805  19.871  0.00  0.00    -0.305 NA
ATOM      6  C   UNL     1      -7.745 -11.930  18.360  0.00  0.00    +0.059 C 
ATOM     11  C   UNL     1      -8.153 -12.464  19.737  0.00  0.00    +0.034 C 
ATOM     12  C   UNL     1      -8.170 -10.466  18.222  0.00  0.00    +0.034 C 
ATOM     13  C   UNL     1      -9.643 -12.228  19.997  0.00  0.00    +0.085 C 
ATOM     14  C   UNL     1      -9.660 -10.296  18.531  0.00  0.00    +0.085 C 
ATOM     16  C   UNL     1     -11.399 -10.590  20.172  0.00  0.00    +0.104 C 
ENDBRANCH   1   6
TORSDOF 3
ENDMDL
MODEL 9
REMARK VINA RESULT:      -5.9     27.141     30.545
REMARK  Name = 45784323
REMARK  4 active torsions:
REMARK  status: ('A' for Active; 'I' for Inactive)
REMARK    1  A    between atoms: N_1  and  C_6
REMARK    2  A    between atoms: N_2  and  C_16
REMARK    3  A    between atoms: C_7  and  C_15
REMARK    4  A    between atoms: C_21  and  C_23
REMARK                            x       y       z     vdW  Elec       q    Type
REMARK                         _______ _______ _______ _____ _____    ______ ____
ROOT
ATOM      1  N   UNL     1      -7.943 -10.365  18.029  0.00  0.00    -0.299 NA
ATOM      7  C   UNL     1      -9.859  -9.013  18.024  0.00  0.00    +0.070 C 
ATOM      8  C   UNL     1      -8.428  -9.099  17.476  0.00  0.00    +0.096 C 
ATOM      9  C   UNL     1      -9.056 -11.300  17.863  0.00  0.00    +0.085 C 
ATOM     10  C   UNL     1     -10.260 -10.473  18.296  0.00  0.00    +0.028 C 
ENDROOT
BRANCH   7  15
ATOM      3  N   UNL     1     -10.386  -7.131  16.450  0.00  0.00    -0.342 N 
ATOM      4  N   UNL     1     -12.047  -8.555  16.845  0.00  0.00    -0.232 NA
ATOM     15  C   UNL     1     -10.795  -8.256  17.111  0.00  0.00    +0.113 A 
ATOM     17  C   UNL     1     -11.445  -6.674  15.707  0.00  0.00    +0.067 A 
ATOM     18  C   UNL     1     -12.468  -7.580  15.971  0.00  0.00    +0.089 A 
ATOM     19  C   UNL     1     -11.590  -5.580  14.854  0.00  0.00    +0.046 A 
ATOM     20  C   UNL     1     -13.719  -7.398  15.356  0.00  0.00    +0.031 A 
ATOM     21  C   UNL     1     -12.841  -5.415  14.251  0.00  0.00    +0.054 A 
ATOM     22  C   UNL     1     -13.888  -6.306  14.495  0.00  0.00    +0.021 A 
ATOM     24  H   UNL     1      -9.468  -6.709  16.497  0.00  0.00    +0.167 HD
BRANCH  21  23
ATOM      5  N   UNL     1     -13.220  -3.415  12.647  0.00  0.00    -0.191 NA
ATOM     23  C   UNL     1     -13.050  -4.311  13.365  0.00  0.00    +0.099 C 
ENDBRANCH  21  23
ENDBRANCH   7  15
BRANCH   1   6
ATOM      2  N   UNL     1      -3.923 -10.385  16.647  0.00  0.00    -0.305 NA
ATOM      6  C   UNL     1      -6.724 -10.830  17.370  0.00  0.00    +0.059 C 
ATOM     11  C   UNL     1      -6.312  -9.877  16.244  0.00  0.00    +0.034 C 
ATOM     12  C   UNL     1      -5.587 -10.956  18.388  0.00  0.00    +0.034 C 
ATOM     13  C   UNL     1      -4.977 -10.303  15.627  0.00  0.00    +0.085 C 
ATOM     14  C   UNL     1      -4.276 -11.347  17.701  0.00  0.00    +0.085 C 
ATOM     16  C   UNL     1      -2.645 -10.743  16.035  0.00  0.00    +0.104 C 
ENDBRANCH   1   6
TORSDOF 3
ENDMDL
MODEL 10
REMARK VINA RESULT:      -5.9     26.882     29.423
REMARK  Name = 45784323
REMARK  4 active torsions:
REMARK  status: ('A' for Active; 'I' for Inactive)
REMARK    1  A    between atoms: N_1  and  C_6
REMARK    2  A    between atoms: N_2  and  C_16
REMARK    3  A    between atoms: C_7  and  C_15
REMARK    4  A    between atoms: C_21  and  C_23
REMARK                            x       y       z     vdW  Elec       q    Type
REMARK                         _______ _______ _______ _____ _____    ______ ____
ROOT
ATOM      1  N   UNL     1     -11.286  -7.976  15.597  0.00  0.00    -0.299 NA
ATOM      7  C   UNL     1      -9.894  -9.384  16.852  0.00  0.00    +0.070 C 
ATOM      8  C   UNL     1     -10.201  -8.943  15.415  0.00  0.00    +0.096 C 
ATOM      9  C   UNL     1     -10.882  -7.168  16.747  0.00  0.00    +0.085 C 
ATOM     10  C   UNL     1     -10.365  -8.211  17.730  0.00  0.00    +0.028 C 
ENDROOT
BRANCH   7  15
ATOM      3  N   UNL     1      -7.508  -9.537  16.089  0.00  0.00    -0.342 N 
ATOM      4  N   UNL     1      -7.936 -10.385  18.099  0.00  0.00    -0.232 NA
ATOM     15  C   UNL     1      -8.450  -9.784  17.049  0.00  0.00    +0.113 A 
ATOM     17  C   UNL     1      -6.305 -10.009  16.551  0.00  0.00    +0.067 A 
ATOM     18  C   UNL     1      -6.600 -10.533  17.807  0.00  0.00    +0.089 A 
ATOM     19  C   UNL     1      -5.027 -10.023  15.995  0.00  0.00    +0.046 A 
ATOM     20  C   UNL     1      -5.568 -11.109  18.567  0.00  0.00    +0.031 A 
ATOM     21  C   UNL     1      -4.012 -10.600  16.766  0.00  0.00    +0.054 A 
ATOM     22  C   UNL     1      -4.275 -11.134  18.029  0.00  0.00    +0.021 A 
ATOM     24  H   UNL     1      -7.665  -9.086  15.197  0.00  0.00    +0.167 HD
BRANCH  21  23
ATOM      5  N   UNL     1      -1.597 -10.678  15.829  0.00  0.00    -0.191 NA
ATOM     23  C   UNL     1      -2.679 -10.643  16.249  0.00  0.00    +0.099 C 
ENDBRANCH  21  23
ENDBRANCH   7  15
BRANCH   1   6
ATOM      2  N   UNL     1     -13.334  -5.580  12.745  0.00  0.00    -0.305 NA
ATOM      6  C   UNL     1     -11.517  -7.166  14.402  0.00  0.00    +0.059 C 
ATOM     11  C   UNL     1     -12.572  -7.811  13.498  0.00  0.00    +0.034 C 
ATOM     12  C   UNL     1     -11.960  -5.755  14.796  0.00  0.00    +0.034 C 
ATOM     13  C   UNL     1     -12.894  -6.910  12.303  0.00  0.00    +0.085 C 
ATOM     14  C   UNL     1     -12.302  -4.921  13.559  0.00  0.00    +0.085 C 
ATOM     16  C   UNL     1     -13.686  -4.748  11.595  0.00  0.00    +0.104 C 
ENDBRANCH   1   6
TORSDOF 3
ENDMDL
