MODEL 1
REMARK VINA RESULT:      -6.6      0.000      0.000
REMARK  Name = 75536530
REMARK  12 active torsions:
REMARK  status: ('A' for Active; 'I' for Inactive)
REMARK    1  A    between atoms: O_2  and  C_8
REMARK    2  A    between atoms: N_4  and  C_7
REMARK    3  A    between atoms: N_4  and  C_13
REMARK    4  A    between atoms: N_5  and  C_11
REMARK    5  A    between atoms: C_9  and  C_11
REMARK    6  A    between atoms: C_12  and  C_14
REMARK    7  A    between atoms: C_12  and  C_16
REMARK    8  A    between atoms: C_12  and  C_17
REMARK    9  A    between atoms: C_12  and  C_18
REMARK   10  A    between atoms: C_13  and  C_19
REMARK   11  A    between atoms: C_14  and  C_15
REMARK   12  A    between atoms: C_22  and  C_25
REMARK                            x       y       z     vdW  Elec       q    Type
REMARK                         _______ _______ _______ _____ _____    ______ ____
ROOT
ATOM      1  O   UNL     1      10.616   8.471  19.832  0.00  0.00    -0.371 OA
ATOM      7  C   UNL     1      12.585   7.282  19.238  0.00  0.00    +0.111 C 
ATOM      8  C   UNL     1      12.469   7.323  20.750  0.00  0.00    +0.164 C 
ATOM      9  C   UNL     1      10.984   7.611  20.923  0.00  0.00    +0.165 C 
ATOM     10  C   UNL     1      11.651   8.410  18.834  0.00  0.00    +0.181 C 
ENDROOT
BRANCH   8   2
ATOM      2  O   UNL     1      12.845   6.103  21.360  0.00  0.00    -0.388 OA
ATOM     28  H   UNL     1      12.427   5.375  20.870  0.00  0.00    +0.210 HD
ENDBRANCH   8   2
BRANCH   7   4
ATOM      4  N   UNL     1      13.942   7.469  18.751  0.00  0.00    -0.305 NA
ATOM     26  H   UNL     1      13.921   8.083  17.936  0.00  0.00    +0.123 HD
BRANCH   4  13
ATOM     13  C   UNL     1      14.789   8.072  19.773  0.00  0.00    +0.116 C 
BRANCH  13  19
ATOM     19  C   UNL     1      16.106   7.355  19.904  0.00  0.00    -0.032 A 
ATOM     20  C   UNL     1      17.025   7.751  20.876  0.00  0.00    +0.023 A 
ATOM     21  C   UNL     1      16.407   6.291  19.053  0.00  0.00    +0.005 A 
ATOM     22  C   UNL     1      18.244   7.084  20.996  0.00  0.00    +0.052 A 
ATOM     23  C   UNL     1      17.626   5.624  19.174  0.00  0.00    +0.002 A 
ATOM     24  C   UNL     1      18.544   6.020  20.145  0.00  0.00    +0.019 A 
BRANCH  22  25
ATOM      6  N   UNL     1      19.949   7.817  22.803  0.00  0.00    -0.191 NA
ATOM     25  C   UNL     1      19.185   7.489  21.992  0.00  0.00    +0.099 C 
ENDBRANCH  22  25
ENDBRANCH  13  19
ENDBRANCH   4  13
ENDBRANCH   7   4
BRANCH   9  11
ATOM     11  C   UNL     1      10.652   8.284  22.242  0.00  0.00    +0.138 C 
BRANCH  11   5
ATOM      3  O   UNL     1      10.934  11.159  22.028  0.00  0.00    -0.276 OA
ATOM      5  N   UNL     1      11.752   9.095  22.714  0.00  0.00    -0.313 N 
ATOM     15  C   UNL     1      11.799  10.471  22.566  0.00  0.00    +0.214 C 
ATOM     27  H   UNL     1      12.515   8.619  23.184  0.00  0.00    +0.149 HD
BRANCH  15  14
ATOM     14  C   UNL     1      13.064  11.088  23.139  0.00  0.00    +0.102 C 
BRANCH  14  12
ATOM     12  C   UNL     1      14.109  11.519  22.083  0.00  0.00    -0.029 C 
ATOM     16  C   UNL     1      15.386  10.685  22.307  0.00  0.00    +0.011 C 
ATOM     17  C   UNL     1      14.468  13.007  22.234  0.00  0.00    +0.011 C 
ATOM     18  C   UNL     1      13.605  11.261  20.654  0.00  0.00    +0.011 C 
ENDBRANCH  14  12
ENDBRANCH  15  14
ENDBRANCH  11   5
ENDBRANCH   9  11
TORSDOF 9
ENDMDL
MODEL 2
REMARK VINA RESULT:      -6.1     27.090     29.739
REMARK  Name = 75536530
REMARK  12 active torsions:
REMARK  status: ('A' for Active; 'I' for Inactive)
REMARK    1  A    between atoms: O_2  and  C_8
REMARK    2  A    between atoms: N_4  and  C_7
REMARK    3  A    between atoms: N_4  and  C_13
REMARK    4  A    between atoms: N_5  and  C_11
REMARK    5  A    between atoms: C_9  and  C_11
REMARK    6  A    between atoms: C_12  and  C_14
REMARK    7  A    between atoms: C_12  and  C_16
REMARK    8  A    between atoms: C_12  and  C_17
REMARK    9  A    between atoms: C_12  and  C_18
REMARK   10  A    between atoms: C_13  and  C_19
REMARK   11  A    between atoms: C_14  and  C_15
REMARK   12  A    between atoms: C_22  and  C_25
REMARK                            x       y       z     vdW  Elec       q    Type
REMARK                         _______ _______ _______ _____ _____    ______ ____
ROOT
ATOM      1  O   UNL     1     -12.196  -7.859  16.800  0.00  0.00    -0.371 OA
ATOM      7  C   UNL     1      -9.827  -7.724  16.701  0.00  0.00    +0.111 C 
ATOM      8  C   UNL     1     -10.416  -6.886  15.583  0.00  0.00    +0.164 C 
ATOM      9  C   UNL     1     -11.830  -6.657  16.102  0.00  0.00    +0.165 C 
ATOM     10  C   UNL     1     -11.002  -8.619  17.059  0.00  0.00    +0.181 C 
ENDROOT
BRANCH   8   2
ATOM      2  O   UNL     1      -9.723  -5.668  15.389  0.00  0.00    -0.388 OA
ATOM     28  H   UNL     1      -8.982  -5.832  14.780  0.00  0.00    +0.210 HD
ENDBRANCH   8   2
BRANCH   7   4
ATOM      4  N   UNL     1      -8.644  -8.474  16.308  0.00  0.00    -0.305 NA
ATOM     26  H   UNL     1      -7.817  -8.018  16.694  0.00  0.00    +0.123 HD
BRANCH   4  13
ATOM     13  C   UNL     1      -8.702  -9.844  16.804  0.00  0.00    +0.116 C 
BRANCH  13  19
ATOM     19  C   UNL     1      -7.424 -10.244  17.493  0.00  0.00    -0.032 A 
ATOM     20  C   UNL     1      -6.226 -10.279  16.780  0.00  0.00    +0.023 A 
ATOM     21  C   UNL     1      -7.438 -10.578  18.847  0.00  0.00    +0.005 A 
ATOM     22  C   UNL     1      -5.043 -10.648  17.420  0.00  0.00    +0.052 A 
ATOM     23  C   UNL     1      -6.255 -10.948  19.487  0.00  0.00    +0.002 A 
ATOM     24  C   UNL     1      -5.058 -10.983  18.774  0.00  0.00    +0.019 A 
BRANCH  22  25
ATOM      6  N   UNL     1      -2.817 -10.713  16.097  0.00  0.00    -0.191 NA
ATOM     25  C   UNL     1      -3.816 -10.684  16.689  0.00  0.00    +0.099 C 
ENDBRANCH  22  25
ENDBRANCH  13  19
ENDBRANCH   4  13
ENDBRANCH   7   4
BRANCH   9  11
ATOM     11  C   UNL     1     -12.836  -6.376  15.001  0.00  0.00    +0.138 C 
BRANCH  11   5
ATOM      3  O   UNL     1     -14.280  -4.383  13.474  0.00  0.00    -0.276 OA
ATOM      5  N   UNL     1     -12.298  -5.470  14.011  0.00  0.00    -0.313 N 
ATOM     15  C   UNL     1     -13.070  -4.546  13.329  0.00  0.00    +0.214 C 
ATOM     27  H   UNL     1     -11.301  -5.519  13.826  0.00  0.00    +0.149 HD
BRANCH  15  14
ATOM     14  C   UNL     1     -12.269  -3.718  12.337  0.00  0.00    +0.102 C 
BRANCH  14  12
ATOM     12  C   UNL     1     -12.583  -4.010  10.850  0.00  0.00    -0.029 C 
ATOM     16  C   UNL     1     -11.406  -3.488  10.002  0.00  0.00    +0.011 C 
ATOM     17  C   UNL     1     -13.863  -3.285  10.402  0.00  0.00    +0.011 C 
ATOM     18  C   UNL     1     -12.737  -5.517  10.592  0.00  0.00    +0.011 C 
ENDBRANCH  14  12
ENDBRANCH  15  14
ENDBRANCH  11   5
ENDBRANCH   9  11
TORSDOF 9
ENDMDL
MODEL 3
REMARK VINA RESULT:      -6.0      4.290      6.659
REMARK  Name = 75536530
REMARK  12 active torsions:
REMARK  status: ('A' for Active; 'I' for Inactive)
REMARK    1  A    between atoms: O_2  and  C_8
REMARK    2  A    between atoms: N_4  and  C_7
REMARK    3  A    between atoms: N_4  and  C_13
REMARK    4  A    between atoms: N_5  and  C_11
REMARK    5  A    between atoms: C_9  and  C_11
REMARK    6  A    between atoms: C_12  and  C_14
REMARK    7  A    between atoms: C_12  and  C_16
REMARK    8  A    between atoms: C_12  and  C_17
REMARK    9  A    between atoms: C_12  and  C_18
REMARK   10  A    between atoms: C_13  and  C_19
REMARK   11  A    between atoms: C_14  and  C_15
REMARK   12  A    between atoms: C_22  and  C_25
REMARK                            x       y       z     vdW  Elec       q    Type
REMARK                         _______ _______ _______ _____ _____    ______ ____
ROOT
ATOM      1  O   UNL     1      18.040   7.169  21.606  0.00  0.00    -0.371 OA
ATOM      7  C   UNL     1      19.494   6.027  20.115  0.00  0.00    +0.111 C 
ATOM      8  C   UNL     1      18.066   5.600  19.836  0.00  0.00    +0.164 C 
ATOM      9  C   UNL     1      17.289   6.756  20.452  0.00  0.00    +0.165 C 
ATOM     10  C   UNL     1      19.366   6.617  21.510  0.00  0.00    +0.181 C 
ENDROOT
BRANCH   8   2
ATOM      2  O   UNL     1      17.798   5.462  18.454  0.00  0.00    -0.388 OA
ATOM     28  H   UNL     1      18.351   6.098  17.970  0.00  0.00    +0.210 HD
ENDBRANCH   8   2
BRANCH   7   4
ATOM      4  N   UNL     1      20.453   4.935  20.051  0.00  0.00    -0.305 NA
ATOM     26  H   UNL     1      20.905   4.943  19.135  0.00  0.00    +0.123 HD
BRANCH   4  13
ATOM     13  C   UNL     1      21.476   5.072  21.081  0.00  0.00    +0.116 C 
BRANCH  13  19
ATOM     19  C   UNL     1      22.661   4.182  20.815  0.00  0.00    -0.032 A 
ATOM     20  C   UNL     1      23.787   4.692  20.168  0.00  0.00    +0.023 A 
ATOM     21  C   UNL     1      22.634   2.847  21.219  0.00  0.00    +0.005 A 
ATOM     22  C   UNL     1      24.885   3.867  19.924  0.00  0.00    +0.052 A 
ATOM     23  C   UNL     1      23.732   2.022  20.975  0.00  0.00    +0.002 A 
ATOM     24  C   UNL     1      24.857   2.531  20.327  0.00  0.00    +0.019 A 
BRANCH  22  25
ATOM      6  N   UNL     1      26.976   4.811  18.723  0.00  0.00    -0.191 NA
ATOM     25  C   UNL     1      26.038   4.388  19.261  0.00  0.00    +0.099 C 
ENDBRANCH  22  25
ENDBRANCH  13  19
ENDBRANCH   4  13
ENDBRANCH   7   4
BRANCH   9  11
ATOM     11  C   UNL     1      15.878   6.378  20.866  0.00  0.00    +0.138 C 
BRANCH  11   5
ATOM      3  O   UNL     1      13.055   6.965  21.134  0.00  0.00    -0.276 OA
ATOM      5  N   UNL     1      14.930   6.627  19.804  0.00  0.00    -0.313 N 
ATOM     15  C   UNL     1      13.592   6.901  20.030  0.00  0.00    +0.214 C 
ATOM     27  H   UNL     1      15.279   6.607  18.852  0.00  0.00    +0.149 HD
BRANCH  15  14
ATOM     14  C   UNL     1      12.804   7.118  18.748  0.00  0.00    +0.102 C 
BRANCH  14  12
ATOM     12  C   UNL     1      12.062   8.472  18.667  0.00  0.00    -0.029 C 
ATOM     16  C   UNL     1      11.419   8.581  17.271  0.00  0.00    +0.011 C 
ATOM     17  C   UNL     1      13.036   9.649  18.846  0.00  0.00    +0.011 C 
ATOM     18  C   UNL     1      10.950   8.570  19.724  0.00  0.00    +0.011 C 
ENDBRANCH  14  12
ENDBRANCH  15  14
ENDBRANCH  11   5
ENDBRANCH   9  11
TORSDOF 9
ENDMDL
MODEL 4
REMARK VINA RESULT:      -6.0      1.901      4.138
REMARK  Name = 75536530
REMARK  12 active torsions:
REMARK  status: ('A' for Active; 'I' for Inactive)
REMARK    1  A    between atoms: O_2  and  C_8
REMARK    2  A    between atoms: N_4  and  C_7
REMARK    3  A    between atoms: N_4  and  C_13
REMARK    4  A    between atoms: N_5  and  C_11
REMARK    5  A    between atoms: C_9  and  C_11
REMARK    6  A    between atoms: C_12  and  C_14
REMARK    7  A    between atoms: C_12  and  C_16
REMARK    8  A    between atoms: C_12  and  C_17
REMARK    9  A    between atoms: C_12  and  C_18
REMARK   10  A    between atoms: C_13  and  C_19
REMARK   11  A    between atoms: C_14  and  C_15
REMARK   12  A    between atoms: C_22  and  C_25
REMARK                            x       y       z     vdW  Elec       q    Type
REMARK                         _______ _______ _______ _____ _____    ______ ____
ROOT
ATOM      1  O   UNL     1      13.735  11.068  23.108  0.00  0.00    -0.371 OA
ATOM      7  C   UNL     1      15.574  11.223  21.612  0.00  0.00    +0.111 C 
ATOM      8  C   UNL     1      14.299  11.562  20.864  0.00  0.00    +0.164 C 
ATOM      9  C   UNL     1      13.372  11.930  22.016  0.00  0.00    +0.165 C 
ATOM     10  C   UNL     1      15.025  10.495  22.829  0.00  0.00    +0.181 C 
ENDROOT
BRANCH   8   2
ATOM      2  O   UNL     1      14.467  12.636  19.959  0.00  0.00    -0.388 OA
ATOM     28  H   UNL     1      15.409  12.875  19.939  0.00  0.00    +0.210 HD
ENDBRANCH   8   2
BRANCH   7   4
ATOM      4  N   UNL     1      16.505  10.413  20.843  0.00  0.00    -0.305 NA
ATOM     26  H   UNL     1      17.273  11.004  20.521  0.00  0.00    +0.123 HD
BRANCH   4  13
ATOM     13  C   UNL     1      17.052   9.330  21.651  0.00  0.00    +0.116 C 
BRANCH  13  19
ATOM     19  C   UNL     1      17.227   8.066  20.850  0.00  0.00    -0.032 A 
ATOM     20  C   UNL     1      18.403   7.326  20.959  0.00  0.00    +0.023 A 
ATOM     21  C   UNL     1      16.209   7.636  19.999  0.00  0.00    +0.005 A 
ATOM     22  C   UNL     1      18.563   6.155  20.217  0.00  0.00    +0.052 A 
ATOM     23  C   UNL     1      16.368   6.465  19.257  0.00  0.00    +0.002 A 
ATOM     24  C   UNL     1      17.544   5.725  19.366  0.00  0.00    +0.019 A 
BRANCH  22  25
ATOM      6  N   UNL     1      20.746   4.778  20.421  0.00  0.00    -0.191 NA
ATOM     25  C   UNL     1      19.768   5.396  20.329  0.00  0.00    +0.099 C 
ENDBRANCH  22  25
ENDBRANCH  13  19
ENDBRANCH   4  13
ENDBRANCH   7   4
BRANCH   9  11
ATOM     11  C   UNL     1      11.902  11.748  21.685  0.00  0.00    +0.138 C 
BRANCH  11   5
ATOM      3  O   UNL     1      10.544   9.389  22.674  0.00  0.00    -0.276 OA
ATOM      5  N   UNL     1      11.668  10.510  20.977  0.00  0.00    -0.313 N 
ATOM     15  C   UNL     1      11.005   9.430  21.535  0.00  0.00    +0.214 C 
ATOM     27  H   UNL     1      12.002  10.448  20.021  0.00  0.00    +0.149 HD
BRANCH  15  14
ATOM     14  C   UNL     1      10.895   8.246  20.588  0.00  0.00    +0.102 C 
BRANCH  14  12
ATOM     12  C   UNL     1      11.921   7.117  20.844  0.00  0.00    -0.029 C 
ATOM     16  C   UNL     1      12.527   6.706  19.487  0.00  0.00    +0.011 C 
ATOM     17  C   UNL     1      11.244   5.884  21.466  0.00  0.00    +0.011 C 
ATOM     18  C   UNL     1      13.060   7.588  21.763  0.00  0.00    +0.011 C 
ENDBRANCH  14  12
ENDBRANCH  15  14
ENDBRANCH  11   5
ENDBRANCH   9  11
TORSDOF 9
ENDMDL
MODEL 5
REMARK VINA RESULT:      -5.9      2.883      4.599
REMARK  Name = 75536530
REMARK  12 active torsions:
REMARK  status: ('A' for Active; 'I' for Inactive)
REMARK    1  A    between atoms: O_2  and  C_8
REMARK    2  A    between atoms: N_4  and  C_7
REMARK    3  A    between atoms: N_4  and  C_13
REMARK    4  A    between atoms: N_5  and  C_11
REMARK    5  A    between atoms: C_9  and  C_11
REMARK    6  A    between atoms: C_12  and  C_14
REMARK    7  A    between atoms: C_12  and  C_16
REMARK    8  A    between atoms: C_12  and  C_17
REMARK    9  A    between atoms: C_12  and  C_18
REMARK   10  A    between atoms: C_13  and  C_19
REMARK   11  A    between atoms: C_14  and  C_15
REMARK   12  A    between atoms: C_22  and  C_25
REMARK                            x       y       z     vdW  Elec       q    Type
REMARK                         _______ _______ _______ _____ _____    ______ ____
ROOT
ATOM      1  O   UNL     1      10.543   8.385  19.992  0.00  0.00    -0.371 OA
ATOM      7  C   UNL     1      12.474   7.318  19.111  0.00  0.00    +0.111 C 
ATOM      8  C   UNL     1      12.545   7.296  20.627  0.00  0.00    +0.164 C 
ATOM      9  C   UNL     1      11.081   7.503  20.992  0.00  0.00    +0.165 C 
ATOM     10  C   UNL     1      11.448   8.413  18.873  0.00  0.00    +0.181 C 
ENDROOT
BRANCH   8   2
ATOM      2  O   UNL     1      13.047   6.074  21.132  0.00  0.00    -0.388 OA
ATOM     28  H   UNL     1      13.795   5.797  20.576  0.00  0.00    +0.210 HD
ENDBRANCH   8   2
BRANCH   7   4
ATOM      4  N   UNL     1      13.751   7.590  18.471  0.00  0.00    -0.305 NA
ATOM     26  H   UNL     1      13.580   7.974  17.540  0.00  0.00    +0.123 HD
BRANCH   4  13
ATOM     13  C   UNL     1      14.531   8.551  19.241  0.00  0.00    +0.116 C 
BRANCH  13  19
ATOM     19  C   UNL     1      14.621   9.885  18.547  0.00  0.00    -0.032 A 
ATOM     20  C   UNL     1      14.380   9.977  17.177  0.00  0.00    +0.023 A 
ATOM     21  C   UNL     1      14.945  11.028  19.276  0.00  0.00    +0.005 A 
ATOM     22  C   UNL     1      14.463  11.213  16.535  0.00  0.00    +0.052 A 
ATOM     23  C   UNL     1      15.029  12.265  18.635  0.00  0.00    +0.002 A 
ATOM     24  C   UNL     1      14.788  12.357  17.265  0.00  0.00    +0.019 A 
BRANCH  22  25
ATOM      6  N   UNL     1      14.012  11.386  13.991  0.00  0.00    -0.191 NA
ATOM     25  C   UNL     1      14.215  11.309  15.132  0.00  0.00    +0.099 C 
ENDBRANCH  22  25
ENDBRANCH  13  19
ENDBRANCH   4  13
ENDBRANCH   7   4
BRANCH   9  11
ATOM     11  C   UNL     1      10.886   8.109  22.370  0.00  0.00    +0.138 C 
BRANCH  11   5
ATOM      3  O   UNL     1      12.851  10.225  22.591  0.00  0.00    -0.276 OA
ATOM      5  N   UNL     1      10.653   9.534  22.293  0.00  0.00    -0.313 N 
ATOM     15  C   UNL     1      11.661  10.475  22.411  0.00  0.00    +0.214 C 
ATOM     27  H   UNL     1       9.700   9.843  22.135  0.00  0.00    +0.149 HD
BRANCH  15  14
ATOM     14  C   UNL     1      11.156  11.904  22.304  0.00  0.00    +0.102 C 
BRANCH  14  12
ATOM     12  C   UNL     1      11.163  12.694  23.634  0.00  0.00    -0.029 C 
ATOM     16  C   UNL     1      12.525  13.404  23.760  0.00  0.00    +0.011 C 
ATOM     17  C   UNL     1      10.993  11.751  24.838  0.00  0.00    +0.011 C 
ATOM     18  C   UNL     1      10.054  13.758  23.663  0.00  0.00    +0.011 C 
ENDBRANCH  14  12
ENDBRANCH  15  14
ENDBRANCH  11   5
ENDBRANCH   9  11
TORSDOF 9
ENDMDL
MODEL 6
REMARK VINA RESULT:      -5.8     27.009     30.770
REMARK  Name = 75536530
REMARK  12 active torsions:
REMARK  status: ('A' for Active; 'I' for Inactive)
REMARK    1  A    between atoms: O_2  and  C_8
REMARK    2  A    between atoms: N_4  and  C_7
REMARK    3  A    between atoms: N_4  and  C_13
REMARK    4  A    between atoms: N_5  and  C_11
REMARK    5  A    between atoms: C_9  and  C_11
REMARK    6  A    between atoms: C_12  and  C_14
REMARK    7  A    between atoms: C_12  and  C_16
REMARK    8  A    between atoms: C_12  and  C_17
REMARK    9  A    between atoms: C_12  and  C_18
REMARK   10  A    between atoms: C_13  and  C_19
REMARK   11  A    between atoms: C_14  and  C_15
REMARK   12  A    between atoms: C_22  and  C_25
REMARK                            x       y       z     vdW  Elec       q    Type
REMARK                         _______ _______ _______ _____ _____    ______ ____
ROOT
ATOM      1  O   UNL     1     -16.312   2.832  23.090  0.00  0.00    -0.371 OA
ATOM      7  C   UNL     1     -17.601   3.878  24.788  0.00  0.00    +0.111 C 
ATOM      8  C   UNL     1     -16.355   4.705  24.534  0.00  0.00    +0.164 C 
ATOM      9  C   UNL     1     -15.964   4.226  23.142  0.00  0.00    +0.165 C 
ATOM     10  C   UNL     1     -17.207   2.542  24.179  0.00  0.00    +0.181 C 
ENDROOT
BRANCH   8   2
ATOM      2  O   UNL     1     -16.608   6.096  24.561  0.00  0.00    -0.388 OA
ATOM     28  H   UNL     1     -15.949   6.516  25.139  0.00  0.00    +0.210 HD
ENDBRANCH   8   2
BRANCH   7   4
ATOM      4  N   UNL     1     -17.957   3.774  26.195  0.00  0.00    -0.305 NA
ATOM     26  H   UNL     1     -18.939   4.029  26.309  0.00  0.00    +0.123 HD
BRANCH   4  13
ATOM     13  C   UNL     1     -17.762   2.416  26.687  0.00  0.00    +0.116 C 
BRANCH  13  19
ATOM     19  C   UNL     1     -16.800   2.372  27.845  0.00  0.00    -0.032 A 
ATOM     20  C   UNL     1     -16.644   1.198  28.581  0.00  0.00    +0.023 A 
ATOM     21  C   UNL     1     -16.062   3.508  28.179  0.00  0.00    +0.005 A 
ATOM     22  C   UNL     1     -15.752   1.160  29.652  0.00  0.00    +0.052 A 
ATOM     23  C   UNL     1     -15.169   3.469  29.250  0.00  0.00    +0.002 A 
ATOM     24  C   UNL     1     -15.014   2.296  29.987  0.00  0.00    +0.019 A 
BRANCH  22  25
ATOM      6  N   UNL     1     -15.460  -1.020  31.020  0.00  0.00    -0.191 NA
ATOM     25  C   UNL     1     -15.591  -0.043  30.406  0.00  0.00    +0.099 C 
ENDBRANCH  22  25
ENDBRANCH  13  19
ENDBRANCH   4  13
ENDBRANCH   7   4
BRANCH   9  11
ATOM     11  C   UNL     1     -14.487   4.398  22.841  0.00  0.00    +0.138 C 
BRANCH  11   5
ATOM      3  O   UNL     1     -14.470   7.291  22.704  0.00  0.00    -0.276 OA
ATOM      5  N   UNL     1     -14.278   5.220  21.670  0.00  0.00    -0.313 N 
ATOM     15  C   UNL     1     -14.287   6.603  21.701  0.00  0.00    +0.214 C 
ATOM     27  H   UNL     1     -14.106   4.744  20.790  0.00  0.00    +0.149 HD
BRANCH  15  14
ATOM     14  C   UNL     1     -14.051   7.231  20.338  0.00  0.00    +0.102 C 
BRANCH  14  12
ATOM     12  C   UNL     1     -12.625   7.792  20.123  0.00  0.00    -0.029 C 
ATOM     16  C   UNL     1     -12.330   7.779  18.610  0.00  0.00    +0.011 C 
ATOM     17  C   UNL     1     -11.574   6.919  20.830  0.00  0.00    +0.011 C 
ATOM     18  C   UNL     1     -12.506   9.238  20.629  0.00  0.00    +0.011 C 
ENDBRANCH  14  12
ENDBRANCH  15  14
ENDBRANCH  11   5
ENDBRANCH   9  11
TORSDOF 9
ENDMDL
MODEL 7
REMARK VINA RESULT:      -5.7      2.005      2.812
REMARK  Name = 75536530
REMARK  12 active torsions:
REMARK  status: ('A' for Active; 'I' for Inactive)
REMARK    1  A    between atoms: O_2  and  C_8
REMARK    2  A    between atoms: N_4  and  C_7
REMARK    3  A    between atoms: N_4  and  C_13
REMARK    4  A    between atoms: N_5  and  C_11
REMARK    5  A    between atoms: C_9  and  C_11
REMARK    6  A    between atoms: C_12  and  C_14
REMARK    7  A    between atoms: C_12  and  C_16
REMARK    8  A    between atoms: C_12  and  C_17
REMARK    9  A    between atoms: C_12  and  C_18
REMARK   10  A    between atoms: C_13  and  C_19
REMARK   11  A    between atoms: C_14  and  C_15
REMARK   12  A    between atoms: C_22  and  C_25
REMARK                            x       y       z     vdW  Elec       q    Type
REMARK                         _______ _______ _______ _____ _____    ______ ____
ROOT
ATOM      1  O   UNL     1      12.366   8.545  19.029  0.00  0.00    -0.371 OA
ATOM      7  C   UNL     1      13.456   7.123  20.588  0.00  0.00    +0.111 C 
ATOM      8  C   UNL     1      13.653   8.565  21.014  0.00  0.00    +0.164 C 
ATOM      9  C   UNL     1      12.510   9.248  20.275  0.00  0.00    +0.165 C 
ATOM     10  C   UNL     1      13.062   7.290  19.130  0.00  0.00    +0.181 C 
ENDROOT
BRANCH   8   2
ATOM      2  O   UNL     1      13.555   8.740  22.414  0.00  0.00    -0.388 OA
ATOM     28  H   UNL     1      13.104   7.964  22.788  0.00  0.00    +0.210 HD
ENDBRANCH   8   2
BRANCH   7   4
ATOM      4  N   UNL     1      14.639   6.295  20.763  0.00  0.00    -0.305 NA
ATOM     26  H   UNL     1      14.369   5.312  20.699  0.00  0.00    +0.123 HD
BRANCH   4  13
ATOM     13  C   UNL     1      15.634   6.578  19.737  0.00  0.00    +0.116 C 
BRANCH  13  19
ATOM     19  C   UNL     1      16.978   6.903  20.334  0.00  0.00    -0.032 A 
ATOM     20  C   UNL     1      18.043   6.016  20.184  0.00  0.00    +0.023 A 
ATOM     21  C   UNL     1      17.157   8.095  21.037  0.00  0.00    +0.005 A 
ATOM     22  C   UNL     1      19.287   6.320  20.737  0.00  0.00    +0.052 A 
ATOM     23  C   UNL     1      18.401   8.399  21.590  0.00  0.00    +0.002 A 
ATOM     24  C   UNL     1      19.466   7.511  21.441  0.00  0.00    +0.019 A 
BRANCH  22  25
ATOM      6  N   UNL     1      21.268   4.675  20.457  0.00  0.00    -0.191 NA
ATOM     25  C   UNL     1      20.380   5.412  20.582  0.00  0.00    +0.099 C 
ENDBRANCH  22  25
ENDBRANCH  13  19
ENDBRANCH   4  13
ENDBRANCH   7   4
BRANCH   9  11
ATOM     11  C   UNL     1      12.763  10.721  20.007  0.00  0.00    +0.138 C 
BRANCH  11   5
ATOM      3  O   UNL     1      11.018  12.661  21.264  0.00  0.00    -0.276 OA
ATOM      5  N   UNL     1      13.000  11.449  21.233  0.00  0.00    -0.313 N 
ATOM     15  C   UNL     1      12.102  12.361  21.760  0.00  0.00    +0.214 C 
ATOM     27  H   UNL     1      13.867  11.263  21.726  0.00  0.00    +0.149 HD
BRANCH  15  14
ATOM     14  C   UNL     1      12.589  12.997  23.052  0.00  0.00    +0.102 C 
BRANCH  14  12
ATOM     12  C   UNL     1      12.199  12.228  24.337  0.00  0.00    -0.029 C 
ATOM     16  C   UNL     1      11.502  13.217  25.292  0.00  0.00    +0.011 C 
ATOM     17  C   UNL     1      13.444  11.667  25.045  0.00  0.00    +0.011 C 
ATOM     18  C   UNL     1      11.227  11.078  24.033  0.00  0.00    +0.011 C 
ENDBRANCH  14  12
ENDBRANCH  15  14
ENDBRANCH  11   5
ENDBRANCH   9  11
TORSDOF 9
ENDMDL
MODEL 8
REMARK VINA RESULT:      -5.7      3.260      8.111
REMARK  Name = 75536530
REMARK  12 active torsions:
REMARK  status: ('A' for Active; 'I' for Inactive)
REMARK    1  A    between atoms: O_2  and  C_8
REMARK    2  A    between atoms: N_4  and  C_7
REMARK    3  A    between atoms: N_4  and  C_13
REMARK    4  A    between atoms: N_5  and  C_11
REMARK    5  A    between atoms: C_9  and  C_11
REMARK    6  A    between atoms: C_12  and  C_14
REMARK    7  A    between atoms: C_12  and  C_16
REMARK    8  A    between atoms: C_12  and  C_17
REMARK    9  A    between atoms: C_12  and  C_18
REMARK   10  A    between atoms: C_13  and  C_19
REMARK   11  A    between atoms: C_14  and  C_15
REMARK   12  A    between atoms: C_22  and  C_25
REMARK                            x       y       z     vdW  Elec       q    Type
REMARK                         _______ _______ _______ _____ _____    ______ ____
ROOT
ATOM      1  O   UNL     1      18.055   6.449  19.792  0.00  0.00    -0.371 OA
ATOM      7  C   UNL     1      15.733   6.928  19.926  0.00  0.00    +0.111 C 
ATOM      8  C   UNL     1      16.356   7.116  21.296  0.00  0.00    +0.164 C 
ATOM      9  C   UNL     1      17.822   7.297  20.929  0.00  0.00    +0.165 C 
ATOM     10  C   UNL     1      16.784   6.078  19.231  0.00  0.00    +0.181 C 
ENDROOT
BRANCH   8   2
ATOM      2  O   UNL     1      15.840   8.241  21.981  0.00  0.00    -0.388 OA
ATOM     28  H   UNL     1      16.585   8.730  22.371  0.00  0.00    +0.210 HD
ENDBRANCH   8   2
BRANCH   7   4
ATOM      4  N   UNL     1      14.425   6.293  19.961  0.00  0.00    -0.305 NA
ATOM     26  H   UNL     1      14.153   6.144  20.934  0.00  0.00    +0.123 HD
BRANCH   4  13
ATOM     13  C   UNL     1      13.419   7.126  19.313  0.00  0.00    +0.116 C 
BRANCH  13  19
ATOM     19  C   UNL     1      12.450   7.710  20.308  0.00  0.00    -0.032 A 
ATOM     20  C   UNL     1      12.388   9.090  20.497  0.00  0.00    +0.023 A 
ATOM     21  C   UNL     1      11.613   6.868  21.040  0.00  0.00    +0.005 A 
ATOM     22  C   UNL     1      11.490   9.629  21.418  0.00  0.00    +0.052 A 
ATOM     23  C   UNL     1      10.714   7.407  21.961  0.00  0.00    +0.002 A 
ATOM     24  C   UNL     1      10.653   8.787  22.150  0.00  0.00    +0.019 A 
BRANCH  22  25
ATOM      6  N   UNL     1      11.374  12.193  21.769  0.00  0.00    -0.191 NA
ATOM     25  C   UNL     1      11.425  11.044  21.611  0.00  0.00    +0.099 C 
ENDBRANCH  22  25
ENDBRANCH  13  19
ENDBRANCH   4  13
ENDBRANCH   7   4
BRANCH   9  11
ATOM     11  C   UNL     1      18.773   6.924  22.052  0.00  0.00    +0.138 C 
BRANCH  11   5
ATOM      3  O   UNL     1      21.027   5.937  23.580  0.00  0.00    -0.276 OA
ATOM      5  N   UNL     1      20.025   6.416  21.539  0.00  0.00    -0.313 N 
ATOM     15  C   UNL     1      21.050   5.963  22.351  0.00  0.00    +0.214 C 
ATOM     27  H   UNL     1      20.140   6.387  20.531  0.00  0.00    +0.149 HD
BRANCH  15  14
ATOM     14  C   UNL     1      22.264   5.488  21.569  0.00  0.00    +0.102 C 
BRANCH  14  12
ATOM     12  C   UNL     1      22.491   3.958  21.595  0.00  0.00    -0.029 C 
ATOM     16  C   UNL     1      23.752   3.648  20.765  0.00  0.00    +0.011 C 
ATOM     17  C   UNL     1      21.302   3.211  20.966  0.00  0.00    +0.011 C 
ATOM     18  C   UNL     1      22.713   3.445  23.026  0.00  0.00    +0.011 C 
ENDBRANCH  14  12
ENDBRANCH  15  14
ENDBRANCH  11   5
ENDBRANCH   9  11
TORSDOF 9
ENDMDL
MODEL 9
REMARK VINA RESULT:      -5.6     25.945     29.711
REMARK  Name = 75536530
REMARK  12 active torsions:
REMARK  status: ('A' for Active; 'I' for Inactive)
REMARK    1  A    between atoms: O_2  and  C_8
REMARK    2  A    between atoms: N_4  and  C_7
REMARK    3  A    between atoms: N_4  and  C_13
REMARK    4  A    between atoms: N_5  and  C_11
REMARK    5  A    between atoms: C_9  and  C_11
REMARK    6  A    between atoms: C_12  and  C_14
REMARK    7  A    between atoms: C_12  and  C_16
REMARK    8  A    between atoms: C_12  and  C_17
REMARK    9  A    between atoms: C_12  and  C_18
REMARK   10  A    between atoms: C_13  and  C_19
REMARK   11  A    between atoms: C_14  and  C_15
REMARK   12  A    between atoms: C_22  and  C_25
REMARK                            x       y       z     vdW  Elec       q    Type
REMARK                         _______ _______ _______ _____ _____    ______ ____
ROOT
ATOM      1  O   UNL     1     -15.929   6.671  23.100  0.00  0.00    -0.371 OA
ATOM      7  C   UNL     1     -15.017   4.601  23.827  0.00  0.00    +0.111 C 
ATOM      8  C   UNL     1     -14.454   4.936  22.459  0.00  0.00    +0.164 C 
ATOM      9  C   UNL     1     -14.693   6.439  22.403  0.00  0.00    +0.165 C 
ATOM     10  C   UNL     1     -16.242   5.501  23.877  0.00  0.00    +0.181 C 
ENDROOT
BRANCH   8   2
ATOM      2  O   UNL     1     -13.081   4.616  22.340  0.00  0.00    -0.388 OA
ATOM     28  H   UNL     1     -12.573   5.239  22.888  0.00  0.00    +0.210 HD
ENDBRANCH   8   2
BRANCH   7   4
ATOM      4  N   UNL     1     -15.343   3.194  23.996  0.00  0.00    -0.305 NA
ATOM     26  H   UNL     1     -14.691   2.779  24.664  0.00  0.00    +0.123 HD
BRANCH   4  13
ATOM     13  C   UNL     1     -16.701   3.025  24.497  0.00  0.00    +0.116 C 
BRANCH  13  19
ATOM     19  C   UNL     1     -16.717   2.488  25.904  0.00  0.00    -0.032 A 
ATOM     20  C   UNL     1     -16.100   3.200  26.931  0.00  0.00    +0.023 A 
ATOM     21  C   UNL     1     -17.352   1.277  26.179  0.00  0.00    +0.005 A 
ATOM     22  C   UNL     1     -16.116   2.702  28.234  0.00  0.00    +0.052 A 
ATOM     23  C   UNL     1     -17.369   0.778  27.482  0.00  0.00    +0.002 A 
ATOM     24  C   UNL     1     -16.751   1.490  28.509  0.00  0.00    +0.019 A 
BRANCH  22  25
ATOM      6  N   UNL     1     -14.970   4.024  30.143  0.00  0.00    -0.191 NA
ATOM     25  C   UNL     1     -15.485   3.432  29.288  0.00  0.00    +0.099 C 
ENDBRANCH  22  25
ENDBRANCH  13  19
ENDBRANCH   4  13
ENDBRANCH   7   4
BRANCH   9  11
ATOM     11  C   UNL     1     -14.793   6.979  20.988  0.00  0.00    +0.138 C 
BRANCH  11   5
ATOM      3  O   UNL     1     -12.618   8.822  21.499  0.00  0.00    -0.276 OA
ATOM      5  N   UNL     1     -13.500   7.011  20.341  0.00  0.00    -0.313 N 
ATOM     15  C   UNL     1     -12.518   7.935  20.654  0.00  0.00    +0.214 C 
ATOM     27  H   UNL     1     -13.315   6.309  19.632  0.00  0.00    +0.149 HD
BRANCH  15  14
ATOM     14  C   UNL     1     -11.254   7.761  19.827  0.00  0.00    +0.102 C 
BRANCH  14  12
ATOM     12  C   UNL     1     -11.145   8.707  18.607  0.00  0.00    -0.029 C 
ATOM     16  C   UNL     1     -10.166   9.841  18.968  0.00  0.00    +0.011 C 
ATOM     17  C   UNL     1     -12.509   9.333  18.269  0.00  0.00    +0.011 C 
ATOM     18  C   UNL     1     -10.604   7.972  17.371  0.00  0.00    +0.011 C 
ENDBRANCH  14  12
ENDBRANCH  15  14
ENDBRANCH  11   5
ENDBRANCH   9  11
TORSDOF 9
ENDMDL
MODEL 10
REMARK VINA RESULT:      -5.6     26.934     29.751
REMARK  Name = 75536530
REMARK  12 active torsions:
REMARK  status: ('A' for Active; 'I' for Inactive)
REMARK    1  A    between atoms: O_2  and  C_8
REMARK    2  A    between atoms: N_4  and  C_7
REMARK    3  A    between atoms: N_4  and  C_13
REMARK    4  A    between atoms: N_5  and  C_11
REMARK    5  A    between atoms: C_9  and  C_11
REMARK    6  A    between atoms: C_12  and  C_14
REMARK    7  A    between atoms: C_12  and  C_16
REMARK    8  A    between atoms: C_12  and  C_17
REMARK    9  A    between atoms: C_12  and  C_18
REMARK   10  A    between atoms: C_13  and  C_19
REMARK   11  A    between atoms: C_14  and  C_15
REMARK   12  A    between atoms: C_22  and  C_25
REMARK                            x       y       z     vdW  Elec       q    Type
REMARK                         _______ _______ _______ _____ _____    ______ ____
ROOT
ATOM      1  O   UNL     1     -11.159 -10.252  15.728  0.00  0.00    -0.371 OA
ATOM      7  C   UNL     1      -9.916  -9.393  17.561  0.00  0.00    +0.111 C 
ATOM      8  C   UNL     1     -10.046  -8.314  16.503  0.00  0.00    +0.164 C 
ATOM      9  C   UNL     1     -11.249  -8.818  15.716  0.00  0.00    +0.165 C 
ATOM     10  C   UNL     1     -10.232 -10.644  16.756  0.00  0.00    +0.181 C 
ENDROOT
BRANCH   8   2
ATOM      2  O   UNL     1     -10.276  -7.032  17.055  0.00  0.00    -0.388 OA
ATOM     28  H   UNL     1     -11.211  -6.974  17.315  0.00  0.00    +0.210 HD
ENDBRANCH   8   2
BRANCH   7   4
ATOM      4  N   UNL     1      -8.605  -9.442  18.188  0.00  0.00    -0.305 NA
ATOM     26  H   UNL     1      -8.519 -10.313  18.713  0.00  0.00    +0.123 HD
BRANCH   4  13
ATOM     13  C   UNL     1      -7.543  -9.386  17.190  0.00  0.00    +0.116 C 
BRANCH  13  19
ATOM     19  C   UNL     1      -6.333 -10.175  17.616  0.00  0.00    -0.032 A 
ATOM     20  C   UNL     1      -5.181 -10.167  16.831  0.00  0.00    +0.023 A 
ATOM     21  C   UNL     1      -6.365 -10.913  18.800  0.00  0.00    +0.005 A 
ATOM     22  C   UNL     1      -4.060 -10.897  17.228  0.00  0.00    +0.052 A 
ATOM     23  C   UNL     1      -5.244 -11.644  19.196  0.00  0.00    +0.002 A 
ATOM     24  C   UNL     1      -4.093 -11.636  18.411  0.00  0.00    +0.019 A 
BRANCH  22  25
ATOM      6  N   UNL     1      -1.920 -10.881  15.769  0.00  0.00    -0.191 NA
ATOM     25  C   UNL     1      -2.879 -10.889  16.424  0.00  0.00    +0.099 C 
ENDBRANCH  22  25
ENDBRANCH  13  19
ENDBRANCH   4  13
ENDBRANCH   7   4
BRANCH   9  11
ATOM     11  C   UNL     1     -11.283  -8.316  14.284  0.00  0.00    +0.138 C 
BRANCH  11   5
ATOM      3  O   UNL     1     -11.286  -5.471  14.825  0.00  0.00    -0.276 OA
ATOM      5  N   UNL     1     -12.368  -7.385  14.074  0.00  0.00    -0.313 N 
ATOM     15  C   UNL     1     -12.276  -6.034  14.364  0.00  0.00    +0.214 C 
ATOM     27  H   UNL     1     -13.230  -7.752  13.685  0.00  0.00    +0.149 HD
BRANCH  15  14
ATOM     14  C   UNL     1     -13.556  -5.273  14.061  0.00  0.00    +0.102 C 
BRANCH  14  12
ATOM     12  C   UNL     1     -13.571  -4.554  12.691  0.00  0.00    -0.029 C 
ATOM     16  C   UNL     1     -14.747  -3.558  12.688  0.00  0.00    +0.011 C 
ATOM     17  C   UNL     1     -13.780  -5.556  11.543  0.00  0.00    +0.011 C 
ATOM     18  C   UNL     1     -12.270  -3.771  12.451  0.00  0.00    +0.011 C 
ENDBRANCH  14  12
ENDBRANCH  15  14
ENDBRANCH  11   5
ENDBRANCH   9  11
TORSDOF 9
ENDMDL
