MODEL 1
REMARK VINA RESULT:      -6.7      0.000      0.000
REMARK  Name = 45784265
REMARK  6 active torsions:
REMARK  status: ('A' for Active; 'I' for Inactive)
REMARK    1  A    between atoms: N_4  and  C_11
REMARK    2  A    between atoms: C_7  and  C_12
REMARK    3  A    between atoms: C_11  and  C_13
REMARK    4  A    between atoms: C_13  and  C_14
REMARK    5  A    between atoms: C_13  and  C_15
REMARK    6  A    between atoms: C_20  and  C_22
REMARK                            x       y       z     vdW  Elec       q    Type
REMARK                         _______ _______ _______ _____ _____    ______ ____
ROOT
ATOM      5  N   UNL     1      16.437   7.024  19.318  0.00  0.00    -0.342 N 
ATOM      6  N   UNL     1      16.546   8.781  20.676  0.00  0.00    -0.232 NA
ATOM     12  C   UNL     1      15.848   8.185  19.736  0.00  0.00    +0.113 A 
ATOM     16  C   UNL     1      17.595   6.861  20.037  0.00  0.00    +0.067 A 
ATOM     17  C   UNL     1      17.640   7.970  20.877  0.00  0.00    +0.089 A 
ATOM     18  C   UNL     1      18.575   5.868  20.024  0.00  0.00    +0.040 A 
ATOM     19  C   UNL     1      18.719   8.113  21.764  0.00  0.00    +0.030 A 
ATOM     20  C   UNL     1      19.643   6.028  20.914  0.00  0.00    +0.057 A 
ATOM     21  C   UNL     1      19.716   7.129  21.769  0.00  0.00    +0.014 A 
ATOM     23  H   UNL     1      16.088   6.396  18.607  0.00  0.00    +0.167 HD
ENDROOT
BRANCH  12   7
ATOM      4  N   UNL     1      12.216   8.492  19.358  0.00  0.00    -0.301 NA
ATOM      7  C   UNL     1      14.544   8.663  19.138  0.00  0.00    +0.070 C 
ATOM      8  C   UNL     1      13.410   8.746  20.167  0.00  0.00    +0.095 C 
ATOM      9  C   UNL     1      13.986   7.775  18.013  0.00  0.00    +0.028 C 
ATOM     10  C   UNL     1      12.588   7.385  18.476  0.00  0.00    +0.085 C 
BRANCH   4  11
ATOM     11  C   UNL     1      11.049   8.184  20.171  0.00  0.00    +0.087 C 
BRANCH  11  13
ATOM     13  C   UNL     1      11.425   7.571  21.531  0.00  0.00    -0.003 C 
ATOM     14  C   UNL     1      10.640   8.267  22.647  0.00  0.00    +0.008 C 
ATOM     15  C   UNL     1      11.169   6.063  21.585  0.00  0.00    +0.008 C 
ENDBRANCH  11  13
ENDBRANCH   4  11
ENDBRANCH  12   7
BRANCH  20  22
ATOM      1  F   UNL     1      21.833   5.383  20.250  0.00  0.00    -0.166 F 
ATOM      2  F   UNL     1      21.164   4.710  22.207  0.00  0.00    -0.166 F 
ATOM      3  F   UNL     1      20.352   3.799  20.414  0.00  0.00    -0.166 F 
ATOM     22  C   UNL     1      20.725   4.998  20.948  0.00  0.00    +0.417 C 
ENDBRANCH  20  22
TORSDOF 4
ENDMDL
MODEL 2
REMARK VINA RESULT:      -6.6      2.181      3.240
REMARK  Name = 45784265
REMARK  6 active torsions:
REMARK  status: ('A' for Active; 'I' for Inactive)
REMARK    1  A    between atoms: N_4  and  C_11
REMARK    2  A    between atoms: C_7  and  C_12
REMARK    3  A    between atoms: C_11  and  C_13
REMARK    4  A    between atoms: C_13  and  C_14
REMARK    5  A    between atoms: C_13  and  C_15
REMARK    6  A    between atoms: C_20  and  C_22
REMARK                            x       y       z     vdW  Elec       q    Type
REMARK                         _______ _______ _______ _____ _____    ______ ____
ROOT
ATOM      5  N   UNL     1      14.796   7.850  21.123  0.00  0.00    -0.342 N 
ATOM      6  N   UNL     1      14.294   6.900  19.177  0.00  0.00    -0.232 NA
ATOM     12  C   UNL     1      13.835   7.613  20.180  0.00  0.00    +0.113 A 
ATOM     16  C   UNL     1      15.955   7.249  20.698  0.00  0.00    +0.067 A 
ATOM     17  C   UNL     1      15.616   6.663  19.482  0.00  0.00    +0.089 A 
ATOM     18  C   UNL     1      17.230   7.171  21.258  0.00  0.00    +0.040 A 
ATOM     19  C   UNL     1      16.595   5.954  18.768  0.00  0.00    +0.030 A 
ATOM     20  C   UNL     1      18.192   6.460  20.533  0.00  0.00    +0.057 A 
ATOM     21  C   UNL     1      17.883   5.861  19.310  0.00  0.00    +0.014 A 
ATOM     23  H   UNL     1      14.680   8.373  21.980  0.00  0.00    +0.167 HD
ENDROOT
BRANCH  12   7
ATOM      4  N   UNL     1      11.065   9.412  21.766  0.00  0.00    -0.301 NA
ATOM      7  C   UNL     1      12.428   8.142  20.344  0.00  0.00    +0.070 C 
ATOM      8  C   UNL     1      12.373   9.468  21.112  0.00  0.00    +0.095 C 
ATOM      9  C   UNL     1      11.472   7.209  21.107  0.00  0.00    +0.028 C 
ATOM     10  C   UNL     1      10.955   8.043  22.272  0.00  0.00    +0.085 C 
BRANCH   4  11
ATOM     11  C   UNL     1      10.929  10.406  22.821  0.00  0.00    +0.087 C 
BRANCH  11  13
ATOM     13  C   UNL     1      11.822  11.636  22.590  0.00  0.00    -0.003 C 
ATOM     14  C   UNL     1      10.990  12.774  21.993  0.00  0.00    +0.008 C 
ATOM     15  C   UNL     1      12.506  12.115  23.873  0.00  0.00    +0.008 C 
ENDBRANCH  11  13
ENDBRANCH   4  11
ENDBRANCH  12   7
BRANCH  20  22
ATOM      1  F   UNL     1      20.376   7.383  20.711  0.00  0.00    -0.166 F 
ATOM      2  F   UNL     1      19.625   6.305  22.443  0.00  0.00    -0.166 F 
ATOM      3  F   UNL     1      20.230   5.214  20.669  0.00  0.00    -0.166 F 
ATOM     22  C   UNL     1      19.578   6.340  21.080  0.00  0.00    +0.417 C 
ENDBRANCH  20  22
TORSDOF 4
ENDMDL
MODEL 3
REMARK VINA RESULT:      -6.4     15.515     18.173
REMARK  Name = 45784265
REMARK  6 active torsions:
REMARK  status: ('A' for Active; 'I' for Inactive)
REMARK    1  A    between atoms: N_4  and  C_11
REMARK    2  A    between atoms: C_7  and  C_12
REMARK    3  A    between atoms: C_11  and  C_13
REMARK    4  A    between atoms: C_13  and  C_14
REMARK    5  A    between atoms: C_13  and  C_15
REMARK    6  A    between atoms: C_20  and  C_22
REMARK                            x       y       z     vdW  Elec       q    Type
REMARK                         _______ _______ _______ _____ _____    ______ ____
ROOT
ATOM      5  N   UNL     1      10.260   4.888   4.723  0.00  0.00    -0.342 N 
ATOM      6  N   UNL     1       9.556   6.974   4.418  0.00  0.00    -0.232 NA
ATOM     12  C   UNL     1      10.054   5.907   3.836  0.00  0.00    +0.113 A 
ATOM     16  C   UNL     1       9.868   5.327   5.962  0.00  0.00    +0.067 A 
ATOM     17  C   UNL     1       9.433   6.632   5.746  0.00  0.00    +0.089 A 
ATOM     18  C   UNL     1       9.858   4.713   7.215  0.00  0.00    +0.040 A 
ATOM     19  C   UNL     1       8.955   7.383   6.832  0.00  0.00    +0.030 A 
ATOM     20  C   UNL     1       9.379   5.477   8.285  0.00  0.00    +0.057 A 
ATOM     21  C   UNL     1       8.935   6.788   8.100  0.00  0.00    +0.014 A 
ATOM     23  H   UNL     1      10.634   3.973   4.509  0.00  0.00    +0.167 HD
ENDROOT
BRANCH  12   7
ATOM      4  N   UNL     1      11.828   4.642   0.890  0.00  0.00    -0.301 NA
ATOM      7  C   UNL     1      10.386   5.751   2.369  0.00  0.00    +0.070 C 
ATOM      8  C   UNL     1      10.951   4.365   2.029  0.00  0.00    +0.095 C 
ATOM      9  C   UNL     1      11.434   6.741   1.835  0.00  0.00    +0.028 C 
ATOM     10  C   UNL     1      12.538   5.870   1.251  0.00  0.00    +0.085 C 
BRANCH   4  11
ATOM     11  C   UNL     1      12.735   3.540   0.607  0.00  0.00    +0.087 C 
BRANCH  11  13
ATOM     13  C   UNL     1      12.800   3.202  -0.893  0.00  0.00    -0.003 C 
ATOM     14  C   UNL     1      11.444   3.485  -1.546  0.00  0.00    +0.008 C 
ATOM     15  C   UNL     1      13.896   3.983  -1.623  0.00  0.00    +0.008 C 
ENDBRANCH  11  13
ENDBRANCH   4  11
ENDBRANCH  12   7
BRANCH  20  22
ATOM      1  F   UNL     1       8.260   5.284  10.374  0.00  0.00    -0.166 F 
ATOM      2  F   UNL     1       9.290   3.512   9.648  0.00  0.00    -0.166 F 
ATOM      3  F   UNL     1      10.432   5.190  10.414  0.00  0.00    -0.166 F 
ATOM     22  C   UNL     1       9.343   4.876   9.653  0.00  0.00    +0.417 C 
ENDBRANCH  20  22
TORSDOF 4
ENDMDL
MODEL 4
REMARK VINA RESULT:      -6.3      4.187      8.795
REMARK  Name = 45784265
REMARK  6 active torsions:
REMARK  status: ('A' for Active; 'I' for Inactive)
REMARK    1  A    between atoms: N_4  and  C_11
REMARK    2  A    between atoms: C_7  and  C_12
REMARK    3  A    between atoms: C_11  and  C_13
REMARK    4  A    between atoms: C_13  and  C_14
REMARK    5  A    between atoms: C_13  and  C_15
REMARK    6  A    between atoms: C_20  and  C_22
REMARK                            x       y       z     vdW  Elec       q    Type
REMARK                         _______ _______ _______ _____ _____    ______ ____
ROOT
ATOM      5  N   UNL     1      19.238   5.168  19.636  0.00  0.00    -0.342 N 
ATOM      6  N   UNL     1      19.943   6.552  21.226  0.00  0.00    -0.232 NA
ATOM     12  C   UNL     1      20.254   5.515  20.481  0.00  0.00    +0.113 A 
ATOM     16  C   UNL     1      18.200   6.039  19.850  0.00  0.00    +0.067 A 
ATOM     17  C   UNL     1      18.664   6.893  20.846  0.00  0.00    +0.089 A 
ATOM     18  C   UNL     1      16.934   6.150  19.274  0.00  0.00    +0.040 A 
ATOM     19  C   UNL     1      17.830   7.924  21.308  0.00  0.00    +0.030 A 
ATOM     20  C   UNL     1      16.117   7.182  19.747  0.00  0.00    +0.057 A 
ATOM     21  C   UNL     1      16.554   8.055  20.745  0.00  0.00    +0.014 A 
ATOM     23  H   UNL     1      19.245   4.406  18.971  0.00  0.00    +0.167 HD
ENDROOT
BRANCH  12   7
ATOM      4  N   UNL     1      22.920   3.417  21.867  0.00  0.00    -0.301 NA
ATOM      7  C   UNL     1      21.557   4.748  20.500  0.00  0.00    +0.070 C 
ATOM      8  C   UNL     1      21.524   3.537  21.442  0.00  0.00    +0.095 C 
ATOM      9  C   UNL     1      22.780   5.562  20.955  0.00  0.00    +0.028 C 
ATOM     10  C   UNL     1      23.351   4.789  22.136  0.00  0.00    +0.085 C 
BRANCH   4  11
ATOM     11  C   UNL     1      23.074   2.550  23.026  0.00  0.00    +0.087 C 
BRANCH  11  13
ATOM     13  C   UNL     1      24.095   1.425  22.786  0.00  0.00    -0.003 C 
ATOM     14  C   UNL     1      24.259   1.188  21.282  0.00  0.00    +0.008 C 
ATOM     15  C   UNL     1      25.459   1.726  23.412  0.00  0.00    +0.008 C 
ENDBRANCH  11  13
ENDBRANCH   4  11
ENDBRANCH  12   7
BRANCH  20  22
ATOM      1  F   UNL     1      14.733   7.211  17.813  0.00  0.00    -0.166 F 
ATOM      2  F   UNL     1      13.840   6.452  19.645  0.00  0.00    -0.166 F 
ATOM      3  F   UNL     1      14.202   8.578  19.418  0.00  0.00    -0.166 F 
ATOM     22  C   UNL     1      14.749   7.352  19.170  0.00  0.00    +0.417 C 
ENDBRANCH  20  22
TORSDOF 4
ENDMDL
MODEL 5
REMARK VINA RESULT:      -6.2      3.179      4.579
REMARK  Name = 45784265
REMARK  6 active torsions:
REMARK  status: ('A' for Active; 'I' for Inactive)
REMARK    1  A    between atoms: N_4  and  C_11
REMARK    2  A    between atoms: C_7  and  C_12
REMARK    3  A    between atoms: C_11  and  C_13
REMARK    4  A    between atoms: C_13  and  C_14
REMARK    5  A    between atoms: C_13  and  C_15
REMARK    6  A    between atoms: C_20  and  C_22
REMARK                            x       y       z     vdW  Elec       q    Type
REMARK                         _______ _______ _______ _____ _____    ______ ____
ROOT
ATOM      5  N   UNL     1      14.058   9.061  21.567  0.00  0.00    -0.342 N 
ATOM      6  N   UNL     1      13.076   8.369  19.696  0.00  0.00    -0.232 NA
ATOM     12  C   UNL     1      12.942   9.102  20.778  0.00  0.00    +0.113 A 
ATOM     16  C   UNL     1      14.974   8.245  20.952  0.00  0.00    +0.067 A 
ATOM     17  C   UNL     1      14.337   7.826  19.787  0.00  0.00    +0.089 A 
ATOM     18  C   UNL     1      16.265   7.850  21.305  0.00  0.00    +0.040 A 
ATOM     19  C   UNL     1      15.014   6.963  18.910  0.00  0.00    +0.030 A 
ATOM     20  C   UNL     1      16.923   6.990  20.420  0.00  0.00    +0.057 A 
ATOM     21  C   UNL     1      16.311   6.553  19.243  0.00  0.00    +0.014 A 
ATOM     23  H   UNL     1      14.189   9.542  22.446  0.00  0.00    +0.167 HD
ENDROOT
BRANCH  12   7
ATOM      4  N   UNL     1      11.044  11.695  22.539  0.00  0.00    -0.301 NA
ATOM      7  C   UNL     1      11.732   9.919  21.172  0.00  0.00    +0.070 C 
ATOM      8  C   UNL     1      12.086  11.359  21.567  0.00  0.00    +0.095 C 
ATOM      9  C   UNL     1      10.944   9.368  22.372  0.00  0.00    +0.028 C 
ATOM     10  C   UNL     1      10.918  10.507  23.383  0.00  0.00    +0.085 C 
BRANCH   4  11
ATOM     11  C   UNL     1      11.365  12.889  23.307  0.00  0.00    +0.087 C 
BRANCH  11  13
ATOM     13  C   UNL     1      10.171  13.396  24.133  0.00  0.00    -0.003 C 
ATOM     14  C   UNL     1      10.629  13.725  25.557  0.00  0.00    +0.008 C 
ATOM     15  C   UNL     1       9.505  14.625  23.510  0.00  0.00    +0.008 C 
ENDBRANCH  11  13
ENDBRANCH   4  11
ENDBRANCH  12   7
BRANCH  20  22
ATOM      1  F   UNL     1      19.249   7.480  20.467  0.00  0.00    -0.166 F 
ATOM      2  F   UNL     1      18.484   6.208  22.056  0.00  0.00    -0.166 F 
ATOM      3  F   UNL     1      18.690   5.421  20.045  0.00  0.00    -0.166 F 
ATOM     22  C   UNL     1      18.308   6.531  20.742  0.00  0.00    +0.417 C 
ENDBRANCH  20  22
TORSDOF 4
ENDMDL
MODEL 6
REMARK VINA RESULT:      -6.2      4.147      8.531
REMARK  Name = 45784265
REMARK  6 active torsions:
REMARK  status: ('A' for Active; 'I' for Inactive)
REMARK    1  A    between atoms: N_4  and  C_11
REMARK    2  A    between atoms: C_7  and  C_12
REMARK    3  A    between atoms: C_11  and  C_13
REMARK    4  A    between atoms: C_13  and  C_14
REMARK    5  A    between atoms: C_13  and  C_15
REMARK    6  A    between atoms: C_20  and  C_22
REMARK                            x       y       z     vdW  Elec       q    Type
REMARK                         _______ _______ _______ _____ _____    ______ ____
ROOT
ATOM      5  N   UNL     1      18.087   6.959  21.617  0.00  0.00    -0.342 N 
ATOM      6  N   UNL     1      18.191   6.143  19.551  0.00  0.00    -0.232 NA
ATOM     12  C   UNL     1      18.875   6.420  20.638  0.00  0.00    +0.113 A 
ATOM     16  C   UNL     1      16.807   7.034  21.128  0.00  0.00    +0.067 A 
ATOM     17  C   UNL     1      16.898   6.519  19.838  0.00  0.00    +0.089 A 
ATOM     18  C   UNL     1      15.615   7.495  21.688  0.00  0.00    +0.040 A 
ATOM     19  C   UNL     1      15.740   6.451  19.046  0.00  0.00    +0.030 A 
ATOM     20  C   UNL     1      14.473   7.420  20.884  0.00  0.00    +0.057 A 
ATOM     21  C   UNL     1      14.531   6.908  19.586  0.00  0.00    +0.014 A 
ATOM     23  H   UNL     1      18.389   7.251  22.536  0.00  0.00    +0.167 HD
ENDROOT
BRANCH  12   7
ATOM      4  N   UNL     1      21.948   4.544  21.319  0.00  0.00    -0.301 NA
ATOM      7  C   UNL     1      20.355   6.200  20.854  0.00  0.00    +0.070 C 
ATOM      8  C   UNL     1      20.822   4.804  20.420  0.00  0.00    +0.095 C 
ATOM      9  C   UNL     1      20.821   6.331  22.314  0.00  0.00    +0.028 C 
ATOM     10  C   UNL     1      21.496   5.003  22.632  0.00  0.00    +0.085 C 
BRANCH   4  11
ATOM     11  C   UNL     1      22.339   3.142  21.326  0.00  0.00    +0.087 C 
BRANCH  11  13
ATOM     13  C   UNL     1      23.863   2.956  21.233  0.00  0.00    -0.003 C 
ATOM     14  C   UNL     1      24.195   1.467  21.096  0.00  0.00    +0.008 C 
ATOM     15  C   UNL     1      24.479   3.731  20.066  0.00  0.00    +0.008 C 
ENDBRANCH  11  13
ENDBRANCH   4  11
ENDBRANCH  12   7
BRANCH  20  22
ATOM      1  F   UNL     1      12.379   8.467  20.468  0.00  0.00    -0.166 F 
ATOM      2  F   UNL     1      12.410   6.907  21.983  0.00  0.00    -0.166 F 
ATOM      3  F   UNL     1      13.295   8.842  22.405  0.00  0.00    -0.166 F 
ATOM     22  C   UNL     1      13.165   7.898  21.427  0.00  0.00    +0.417 C 
ENDBRANCH  20  22
TORSDOF 4
ENDMDL
MODEL 7
REMARK VINA RESULT:      -6.2      1.521      2.255
REMARK  Name = 45784265
REMARK  6 active torsions:
REMARK  status: ('A' for Active; 'I' for Inactive)
REMARK    1  A    between atoms: N_4  and  C_11
REMARK    2  A    between atoms: C_7  and  C_12
REMARK    3  A    between atoms: C_11  and  C_13
REMARK    4  A    between atoms: C_13  and  C_14
REMARK    5  A    between atoms: C_13  and  C_15
REMARK    6  A    between atoms: C_20  and  C_22
REMARK                            x       y       z     vdW  Elec       q    Type
REMARK                         _______ _______ _______ _____ _____    ______ ____
ROOT
ATOM      5  N   UNL     1      18.114   6.172  20.013  0.00  0.00    -0.342 N 
ATOM      6  N   UNL     1      18.303   7.715  21.602  0.00  0.00    -0.232 NA
ATOM     12  C   UNL     1      17.568   7.276  20.606  0.00  0.00    +0.113 A 
ATOM     16  C   UNL     1      19.281   5.879  20.673  0.00  0.00    +0.067 A 
ATOM     17  C   UNL     1      19.377   6.856  21.659  0.00  0.00    +0.089 A 
ATOM     18  C   UNL     1      20.232   4.873  20.494  0.00  0.00    +0.040 A 
ATOM     19  C   UNL     1      20.479   6.844  22.530  0.00  0.00    +0.030 A 
ATOM     20  C   UNL     1      21.323   4.878  21.370  0.00  0.00    +0.057 A 
ATOM     21  C   UNL     1      21.447   5.844  22.370  0.00  0.00    +0.014 A 
ATOM     23  H   UNL     1      17.731   5.660  19.230  0.00  0.00    +0.167 HD
ENDROOT
BRANCH  12   7
ATOM      4  N   UNL     1      13.975   7.996  20.597  0.00  0.00    -0.301 NA
ATOM      7  C   UNL     1      16.266   7.867  20.115  0.00  0.00    +0.070 C 
ATOM      8  C   UNL     1      15.275   8.158  21.250  0.00  0.00    +0.095 C 
ATOM      9  C   UNL     1      15.483   6.979  19.133  0.00  0.00    +0.028 C 
ATOM     10  C   UNL     1      14.114   6.794  19.773  0.00  0.00    +0.085 C 
BRANCH   4  11
ATOM     11  C   UNL     1      12.883   7.888  21.554  0.00  0.00    +0.087 C 
BRANCH  11  13
ATOM     13  C   UNL     1      11.552   7.506  20.885  0.00  0.00    -0.003 C 
ATOM     14  C   UNL     1      10.514   7.161  21.958  0.00  0.00    +0.008 C 
ATOM     15  C   UNL     1      11.008   8.614  19.981  0.00  0.00    +0.008 C 
ENDBRANCH  11  13
ENDBRANCH   4  11
ENDBRANCH  12   7
BRANCH  20  22
ATOM      1  F   UNL     1      21.894   2.676  20.678  0.00  0.00    -0.166 F 
ATOM      2  F   UNL     1      23.422   4.204  20.441  0.00  0.00    -0.166 F 
ATOM      3  F   UNL     1      22.937   3.457  22.418  0.00  0.00    -0.166 F 
ATOM     22  C   UNL     1      22.376   3.826  21.230  0.00  0.00    +0.417 C 
ENDBRANCH  20  22
TORSDOF 4
ENDMDL
MODEL 8
REMARK VINA RESULT:      -6.1     28.856     32.522
REMARK  Name = 45784265
REMARK  6 active torsions:
REMARK  status: ('A' for Active; 'I' for Inactive)
REMARK    1  A    between atoms: N_4  and  C_11
REMARK    2  A    between atoms: C_7  and  C_12
REMARK    3  A    between atoms: C_11  and  C_13
REMARK    4  A    between atoms: C_13  and  C_14
REMARK    5  A    between atoms: C_13  and  C_15
REMARK    6  A    between atoms: C_20  and  C_22
REMARK                            x       y       z     vdW  Elec       q    Type
REMARK                         _______ _______ _______ _____ _____    ______ ____
ROOT
ATOM      5  N   UNL     1     -15.754   4.416  25.161  0.00  0.00    -0.342 N 
ATOM      6  N   UNL     1     -16.347   2.725  23.846  0.00  0.00    -0.232 NA
ATOM     12  C   UNL     1     -15.961   3.980  23.882  0.00  0.00    +0.113 A 
ATOM     16  C   UNL     1     -16.025   3.371  26.007  0.00  0.00    +0.067 A 
ATOM     17  C   UNL     1     -16.393   2.327  25.163  0.00  0.00    +0.089 A 
ATOM     18  C   UNL     1     -15.982   3.254  27.397  0.00  0.00    +0.040 A 
ATOM     19  C   UNL     1     -16.740   1.086  25.721  0.00  0.00    +0.030 A 
ATOM     20  C   UNL     1     -16.331   2.011  27.934  0.00  0.00    +0.057 A 
ATOM     21  C   UNL     1     -16.704   0.944  27.114  0.00  0.00    +0.014 A 
ATOM     23  H   UNL     1     -15.456   5.342  25.438  0.00  0.00    +0.167 HD
ENDROOT
BRANCH  12   7
ATOM      4  N   UNL     1     -14.127   6.177  21.594  0.00  0.00    -0.301 NA
ATOM      7  C   UNL     1     -15.751   4.894  22.697  0.00  0.00    +0.070 C 
ATOM      8  C   UNL     1     -14.322   4.833  22.140  0.00  0.00    +0.095 C 
ATOM      9  C   UNL     1     -15.995   6.386  22.980  0.00  0.00    +0.028 C 
ATOM     10  C   UNL     1     -14.693   7.078  22.599  0.00  0.00    +0.085 C 
BRANCH   4  11
ATOM     11  C   UNL     1     -12.728   6.466  21.315  0.00  0.00    +0.087 C 
BRANCH  11  13
ATOM     13  C   UNL     1     -12.548   7.737  20.468  0.00  0.00    -0.003 C 
ATOM     14  C   UNL     1     -11.099   7.831  19.979  0.00  0.00    +0.008 C 
ATOM     15  C   UNL     1     -13.499   7.784  19.270  0.00  0.00    +0.008 C 
ENDBRANCH  11  13
ENDBRANCH   4  11
ENDBRANCH  12   7
BRANCH  20  22
ATOM      1  F   UNL     1     -17.272   2.543  30.052  0.00  0.00    -0.166 F 
ATOM      2  F   UNL     1     -16.492   0.529  29.806  0.00  0.00    -0.166 F 
ATOM      3  F   UNL     1     -15.125   2.203  29.992  0.00  0.00    -0.166 F 
ATOM     22  C   UNL     1     -16.304   1.823  29.417  0.00  0.00    +0.417 C 
ENDBRANCH  20  22
TORSDOF 4
ENDMDL
MODEL 9
REMARK VINA RESULT:      -6.0     30.478     32.958
REMARK  Name = 45784265
REMARK  6 active torsions:
REMARK  status: ('A' for Active; 'I' for Inactive)
REMARK    1  A    between atoms: N_4  and  C_11
REMARK    2  A    between atoms: C_7  and  C_12
REMARK    3  A    between atoms: C_11  and  C_13
REMARK    4  A    between atoms: C_13  and  C_14
REMARK    5  A    between atoms: C_13  and  C_15
REMARK    6  A    between atoms: C_20  and  C_22
REMARK                            x       y       z     vdW  Elec       q    Type
REMARK                         _______ _______ _______ _____ _____    ______ ____
ROOT
ATOM      5  N   UNL     1     -15.493   3.380  27.825  0.00  0.00    -0.342 N 
ATOM      6  N   UNL     1     -16.431   1.375  27.621  0.00  0.00    -0.232 NA
ATOM     12  C   UNL     1     -16.192   2.520  27.024  0.00  0.00    +0.113 A 
ATOM     16  C   UNL     1     -15.266   2.745  29.020  0.00  0.00    +0.067 A 
ATOM     17  C   UNL     1     -15.861   1.496  28.868  0.00  0.00    +0.089 A 
ATOM     18  C   UNL     1     -14.611   3.146  30.185  0.00  0.00    +0.040 A 
ATOM     19  C   UNL     1     -15.808   0.579  29.930  0.00  0.00    +0.030 A 
ATOM     20  C   UNL     1     -14.569   2.220  31.233  0.00  0.00    +0.057 A 
ATOM     21  C   UNL     1     -15.156   0.959  31.110  0.00  0.00    +0.014 A 
ATOM     23  H   UNL     1     -15.195   4.316  27.584  0.00  0.00    +0.167 HD
ENDROOT
BRANCH  12   7
ATOM      4  N   UNL     1     -16.268   4.531  23.961  0.00  0.00    -0.301 NA
ATOM      7  C   UNL     1     -16.607   2.914  25.625  0.00  0.00    +0.070 C 
ATOM      8  C   UNL     1     -15.507   3.663  24.862  0.00  0.00    +0.095 C 
ATOM      9  C   UNL     1     -17.833   3.841  25.551  0.00  0.00    +0.028 C 
ATOM     10  C   UNL     1     -17.355   5.065  24.782  0.00  0.00    +0.085 C 
BRANCH   4  11
ATOM     11  C   UNL     1     -15.447   5.581  23.377  0.00  0.00    +0.087 C 
BRANCH  11  13
ATOM     13  C   UNL     1     -14.826   5.164  22.034  0.00  0.00    -0.003 C 
ATOM     14  C   UNL     1     -15.588   5.829  20.883  0.00  0.00    +0.008 C 
ATOM     15  C   UNL     1     -13.339   5.515  21.938  0.00  0.00    +0.008 C 
ENDBRANCH  11  13
ENDBRANCH   4  11
ENDBRANCH  12   7
BRANCH  20  22
ATOM      1  F   UNL     1     -12.544   2.795  32.338  0.00  0.00    -0.166 F 
ATOM      2  F   UNL     1     -14.362   3.735  33.073  0.00  0.00    -0.166 F 
ATOM      3  F   UNL     1     -13.988   1.638  33.479  0.00  0.00    -0.166 F 
ATOM     22  C   UNL     1     -13.882   2.590  32.507  0.00  0.00    +0.417 C 
ENDBRANCH  20  22
TORSDOF 4
ENDMDL
MODEL 10
REMARK VINA RESULT:      -6.0     26.123     28.561
REMARK  Name = 45784265
REMARK  6 active torsions:
REMARK  status: ('A' for Active; 'I' for Inactive)
REMARK    1  A    between atoms: N_4  and  C_11
REMARK    2  A    between atoms: C_7  and  C_12
REMARK    3  A    between atoms: C_11  and  C_13
REMARK    4  A    between atoms: C_13  and  C_14
REMARK    5  A    between atoms: C_13  and  C_15
REMARK    6  A    between atoms: C_20  and  C_22
REMARK                            x       y       z     vdW  Elec       q    Type
REMARK                         _______ _______ _______ _____ _____    ______ ____
ROOT
ATOM      5  N   UNL     1      -5.023 -11.701  15.888  0.00  0.00    -0.342 N 
ATOM      6  N   UNL     1      -3.351 -11.211  17.267  0.00  0.00    -0.232 NA
ATOM     12  C   UNL     1      -4.577 -11.674  17.179  0.00  0.00    +0.113 A 
ATOM     16  C   UNL     1      -4.017 -11.223  15.088  0.00  0.00    +0.067 A 
ATOM     17  C   UNL     1      -2.984 -10.923  15.972  0.00  0.00    +0.089 A 
ATOM     18  C   UNL     1      -3.925 -11.031  13.708  0.00  0.00    +0.040 A 
ATOM     19  C   UNL     1      -1.781 -10.402  15.468  0.00  0.00    +0.030 A 
ATOM     20  C   UNL     1      -2.720 -10.512  13.225  0.00  0.00    +0.057 A 
ATOM     21  C   UNL     1      -1.665 -10.202  14.087  0.00  0.00    +0.014 A 
ATOM     23  H   UNL     1      -5.931 -12.016  15.573  0.00  0.00    +0.167 HD
ENDROOT
BRANCH  12   7
ATOM      4  N   UNL     1      -7.657 -12.115  19.115  0.00  0.00    -0.301 NA
ATOM      7  C   UNL     1      -5.451 -12.139  18.322  0.00  0.00    +0.070 C 
ATOM      8  C   UNL     1      -6.900 -12.407  17.896  0.00  0.00    +0.095 C 
ATOM      9  C   UNL     1      -5.565 -11.149  19.493  0.00  0.00    +0.028 C 
ATOM     10  C   UNL     1      -7.058 -10.890  19.646  0.00  0.00    +0.085 C 
BRANCH   4  11
ATOM     11  C   UNL     1      -9.083 -11.970  18.861  0.00  0.00    +0.087 C 
BRANCH  11  13
ATOM     13  C   UNL     1      -9.558 -10.513  18.989  0.00  0.00    -0.003 C 
ATOM     14  C   UNL     1     -10.019  -9.998  17.623  0.00  0.00    +0.008 C 
ATOM     15  C   UNL     1     -10.688 -10.351  20.009  0.00  0.00    +0.008 C 
ENDBRANCH  11  13
ENDBRANCH   4  11
ENDBRANCH  12   7
BRANCH  20  22
ATOM      1  F   UNL     1      -3.528  -9.469  11.247  0.00  0.00    -0.166 F 
ATOM      2  F   UNL     1      -1.373  -9.701  11.421  0.00  0.00    -0.166 F 
ATOM      3  F   UNL     1      -2.618 -11.431  11.019  0.00  0.00    -0.166 F 
ATOM     22  C   UNL     1      -2.560 -10.284  11.756  0.00  0.00    +0.417 C 
ENDBRANCH  20  22
TORSDOF 4
ENDMDL
