MODEL 1
REMARK VINA RESULT:      -7.3      0.000      0.000
REMARK  Name = 45783809
REMARK  9 active torsions:
REMARK  status: ('A' for Active; 'I' for Inactive)
REMARK    1  A    between atoms: O_2  and  C_15
REMARK    2  A    between atoms: O_2  and  C_24
REMARK    3  A    between atoms: N_3  and  C_12
REMARK    4  A    between atoms: N_7  and  C_26
REMARK    5  A    between atoms: N_7  and  C_27
REMARK    6  A    between atoms: N_7  and  C_28
REMARK    7  A    between atoms: C_8  and  C_13
REMARK    8  A    between atoms: C_12  and  C_14
REMARK    9  A    between atoms: C_17  and  C_20
REMARK                            x       y       z     vdW  Elec       q    Type
REMARK                         _______ _______ _______ _____ _____    ______ ____
ROOT
ATOM      3  N   UNL     1      14.648   8.908  19.985  0.00  0.00    -0.287 NA
ATOM      8  C   UNL     1      14.652   7.617  19.268  0.00  0.00    +0.146 C 
ATOM      9  C   UNL     1      14.274   7.974  17.818  0.00  0.00    +0.030 C 
ATOM     10  C   UNL     1      14.018   9.474  17.832  0.00  0.00    +0.017 C 
ATOM     11  C   UNL     1      13.695   9.768  19.282  0.00  0.00    +0.085 C 
ENDROOT
BRANCH   8  13
ATOM      1  O   UNL     1      16.260   6.003  18.386  0.00  0.00    -0.336 OA
ATOM      4  N   UNL     1      16.923   7.017  20.269  0.00  0.00    -0.190 NA
ATOM      5  N   UNL     1      17.523   5.477  18.687  0.00  0.00    -0.056 NA
ATOM     13  C   UNL     1      15.982   6.901  19.367  0.00  0.00    +0.245 A 
ATOM     17  C   UNL     1      17.847   6.124  19.811  0.00  0.00    +0.204 A 
BRANCH  17  20
ATOM      6  N   UNL     1      21.115   4.608  20.735  0.00  0.00    -0.240 NA
ATOM     20  C   UNL     1      19.087   5.904  20.498  0.00  0.00    +0.041 A 
ATOM     22  C   UNL     1      19.475   6.717  21.557  0.00  0.00    +0.016 A 
ATOM     23  C   UNL     1      19.934   4.872  20.130  0.00  0.00    +0.124 A 
ATOM     25  C   UNL     1      20.682   6.479  22.204  0.00  0.00    +0.044 A 
ATOM     26  C   UNL     1      21.458   5.421  21.759  0.00  0.00    +0.121 A 
BRANCH  26   7
ATOM      7  N   UNL     1      22.686   5.192  22.428  0.00  0.00    -0.321 N 
ATOM     27  C   UNL     1      22.824   5.523  23.829  0.00  0.00    +0.130 C 
ATOM     28  C   UNL     1      23.806   4.617  21.717  0.00  0.00    +0.130 C 
ENDBRANCH  26   7
ENDBRANCH  17  20
ENDBRANCH   8  13
BRANCH   3  12
ATOM     12  C   UNL     1      14.329   8.778  21.400  0.00  0.00    +0.124 C 
BRANCH  12  14
ATOM     14  C   UNL     1      12.927   8.271  21.615  0.00  0.00    +0.008 A 
ATOM     15  C   UNL     1      11.941   9.106  22.142  0.00  0.00    +0.124 A 
ATOM     16  C   UNL     1      12.620   6.952  21.282  0.00  0.00    +0.008 A 
ATOM     18  C   UNL     1      10.647   8.621  22.336  0.00  0.00    +0.046 A 
ATOM     19  C   UNL     1      11.326   6.468  21.476  0.00  0.00    +0.001 A 
ATOM     21  C   UNL     1      10.340   7.301  22.003  0.00  0.00    +0.004 A 
BRANCH  15   2
ATOM      2  O   UNL     1      12.224  10.397  22.473  0.00  0.00    -0.495 OA
ATOM     24  C   UNL     1      11.223  11.372  22.190  0.00  0.00    +0.277 C 
ENDBRANCH  15   2
ENDBRANCH  12  14
ENDBRANCH   3  12
TORSDOF 6
ENDMDL
MODEL 2
REMARK VINA RESULT:      -7.2      1.854      3.843
REMARK  Name = 45783809
REMARK  9 active torsions:
REMARK  status: ('A' for Active; 'I' for Inactive)
REMARK    1  A    between atoms: O_2  and  C_15
REMARK    2  A    between atoms: O_2  and  C_24
REMARK    3  A    between atoms: N_3  and  C_12
REMARK    4  A    between atoms: N_7  and  C_26
REMARK    5  A    between atoms: N_7  and  C_27
REMARK    6  A    between atoms: N_7  and  C_28
REMARK    7  A    between atoms: C_8  and  C_13
REMARK    8  A    between atoms: C_12  and  C_14
REMARK    9  A    between atoms: C_17  and  C_20
REMARK                            x       y       z     vdW  Elec       q    Type
REMARK                         _______ _______ _______ _____ _____    ______ ____
ROOT
ATOM      3  N   UNL     1      12.318   8.744  20.065  0.00  0.00    -0.287 NA
ATOM      8  C   UNL     1      13.134   8.188  21.163  0.00  0.00    +0.146 C 
ATOM      9  C   UNL     1      12.190   7.216  21.896  0.00  0.00    +0.030 C 
ATOM     10  C   UNL     1      10.854   7.341  21.177  0.00  0.00    +0.017 C 
ATOM     11  C   UNL     1      10.928   8.703  20.520  0.00  0.00    +0.085 C 
ENDROOT
BRANCH   8  13
ATOM      1  O   UNL     1      14.313   6.878  19.470  0.00  0.00    -0.336 OA
ATOM      4  N   UNL     1      15.578   7.451  21.227  0.00  0.00    -0.190 NA
ATOM      5  N   UNL     1      15.583   6.342  19.226  0.00  0.00    -0.056 NA
ATOM     13  C   UNL     1      14.396   7.515  20.668  0.00  0.00    +0.245 A 
ATOM     17  C   UNL     1      16.272   6.721  20.306  0.00  0.00    +0.204 A 
BRANCH  17  20
ATOM      6  N   UNL     1      19.559   5.036  19.872  0.00  0.00    -0.240 NA
ATOM     20  C   UNL     1      17.655   6.390  20.496  0.00  0.00    +0.041 A 
ATOM     22  C   UNL     1      18.429   7.054  21.441  0.00  0.00    +0.016 A 
ATOM     23  C   UNL     1      18.261   5.397  19.744  0.00  0.00    +0.124 A 
ATOM     25  C   UNL     1      19.766   6.712  21.602  0.00  0.00    +0.044 A 
ATOM     26  C   UNL     1      20.278   5.704  20.800  0.00  0.00    +0.121 A 
BRANCH  26   7
ATOM      7  N   UNL     1      21.643   5.367  20.975  0.00  0.00    -0.321 N 
ATOM     27  C   UNL     1      22.011   4.075  21.511  0.00  0.00    +0.130 C 
ATOM     28  C   UNL     1      22.678   6.310  20.611  0.00  0.00    +0.130 C 
ENDBRANCH  26   7
ENDBRANCH  17  20
ENDBRANCH   8  13
BRANCH   3  12
ATOM     12  C   UNL     1      12.727  10.086  19.670  0.00  0.00    +0.124 C 
BRANCH  12  14
ATOM     14  C   UNL     1      13.247  10.121  18.257  0.00  0.00    +0.008 A 
ATOM     15  C   UNL     1      14.369  10.884  17.931  0.00  0.00    +0.124 A 
ATOM     16  C   UNL     1      12.596   9.382  17.271  0.00  0.00    +0.008 A 
ATOM     18  C   UNL     1      14.838  10.908  16.617  0.00  0.00    +0.046 A 
ATOM     19  C   UNL     1      13.065   9.405  15.958  0.00  0.00    +0.001 A 
ATOM     21  C   UNL     1      14.186  10.168  15.631  0.00  0.00    +0.004 A 
BRANCH  15   2
ATOM      2  O   UNL     1      15.017  11.614  18.882  0.00  0.00    -0.495 OA
ATOM     24  C   UNL     1      16.003  12.539  18.428  0.00  0.00    +0.277 C 
ENDBRANCH  15   2
ENDBRANCH  12  14
ENDBRANCH   3  12
TORSDOF 6
ENDMDL
MODEL 3
REMARK VINA RESULT:      -7.1     25.923     29.706
REMARK  Name = 45783809
REMARK  9 active torsions:
REMARK  status: ('A' for Active; 'I' for Inactive)
REMARK    1  A    between atoms: O_2  and  C_15
REMARK    2  A    between atoms: O_2  and  C_24
REMARK    3  A    between atoms: N_3  and  C_12
REMARK    4  A    between atoms: N_7  and  C_26
REMARK    5  A    between atoms: N_7  and  C_27
REMARK    6  A    between atoms: N_7  and  C_28
REMARK    7  A    between atoms: C_8  and  C_13
REMARK    8  A    between atoms: C_12  and  C_14
REMARK    9  A    between atoms: C_17  and  C_20
REMARK                            x       y       z     vdW  Elec       q    Type
REMARK                         _______ _______ _______ _____ _____    ______ ____
ROOT
ATOM      3  N   UNL     1      -3.092 -10.484  14.350  0.00  0.00    -0.287 NA
ATOM      8  C   UNL     1      -3.046 -11.229  15.625  0.00  0.00    +0.146 C 
ATOM      9  C   UNL     1      -1.728 -10.787  16.288  0.00  0.00    +0.030 C 
ATOM     10  C   UNL     1      -1.075  -9.845  15.287  0.00  0.00    +0.017 C 
ATOM     11  C   UNL     1      -1.701 -10.239  13.965  0.00  0.00    +0.085 C 
ENDROOT
BRANCH   8  13
ATOM      1  O   UNL     1      -4.079 -11.103  17.836  0.00  0.00    -0.336 OA
ATOM      4  N   UNL     1      -5.470 -10.619  16.148  0.00  0.00    -0.190 NA
ATOM      5  N   UNL     1      -5.317 -10.813  18.423  0.00  0.00    -0.056 NA
ATOM     13  C   UNL     1      -4.256 -10.965  16.496  0.00  0.00    +0.245 A 
ATOM     17  C   UNL     1      -6.085 -10.537  17.364  0.00  0.00    +0.204 A 
BRANCH  17  20
ATOM      6  N   UNL     1      -9.337  -8.863  16.693  0.00  0.00    -0.240 NA
ATOM     20  C   UNL     1      -7.468 -10.176  17.486  0.00  0.00    +0.041 A 
ATOM     22  C   UNL     1      -8.274 -10.746  18.465  0.00  0.00    +0.016 A 
ATOM     23  C   UNL     1      -8.042  -9.248  16.633  0.00  0.00    +0.124 A 
ATOM     25  C   UNL     1      -9.611 -10.376  18.559  0.00  0.00    +0.044 A 
ATOM     26  C   UNL     1     -10.089  -9.439  17.658  0.00  0.00    +0.121 A 
BRANCH  26   7
ATOM      7  N   UNL     1     -11.453  -9.073  17.765  0.00  0.00    -0.321 N 
ATOM     27  C   UNL     1     -12.262  -9.591  18.847  0.00  0.00    +0.130 C 
ATOM     28  C   UNL     1     -12.044  -8.173  16.800  0.00  0.00    +0.130 C 
ENDBRANCH  26   7
ENDBRANCH  17  20
ENDBRANCH   8  13
BRANCH   3  12
ATOM     12  C   UNL     1      -3.835 -11.178  13.307  0.00  0.00    +0.124 C 
BRANCH  12  14
ATOM     14  C   UNL     1      -4.116 -10.283  12.128  0.00  0.00    +0.008 A 
ATOM     15  C   UNL     1      -5.257  -9.481  12.100  0.00  0.00    +0.124 A 
ATOM     16  C   UNL     1      -3.222 -10.263  11.059  0.00  0.00    +0.008 A 
ATOM     18  C   UNL     1      -5.504  -8.659  11.000  0.00  0.00    +0.046 A 
ATOM     19  C   UNL     1      -3.468  -9.440   9.960  0.00  0.00    +0.001 A 
ATOM     21  C   UNL     1      -4.609  -8.638   9.930  0.00  0.00    +0.004 A 
BRANCH  15   2
ATOM      2  O   UNL     1      -6.142  -9.490  13.136  0.00  0.00    -0.495 OA
ATOM     24  C   UNL     1      -7.512  -9.725  12.815  0.00  0.00    +0.277 C 
ENDBRANCH  15   2
ENDBRANCH  12  14
ENDBRANCH   3  12
TORSDOF 6
ENDMDL
MODEL 4
REMARK VINA RESULT:      -7.1     26.349     29.950
REMARK  Name = 45783809
REMARK  9 active torsions:
REMARK  status: ('A' for Active; 'I' for Inactive)
REMARK    1  A    between atoms: O_2  and  C_15
REMARK    2  A    between atoms: O_2  and  C_24
REMARK    3  A    between atoms: N_3  and  C_12
REMARK    4  A    between atoms: N_7  and  C_26
REMARK    5  A    between atoms: N_7  and  C_27
REMARK    6  A    between atoms: N_7  and  C_28
REMARK    7  A    between atoms: C_8  and  C_13
REMARK    8  A    between atoms: C_12  and  C_14
REMARK    9  A    between atoms: C_17  and  C_20
REMARK                            x       y       z     vdW  Elec       q    Type
REMARK                         _______ _______ _______ _____ _____    ______ ____
ROOT
ATOM      3  N   UNL     1      -3.007 -10.532  14.249  0.00  0.00    -0.287 NA
ATOM      8  C   UNL     1      -3.150 -11.266  15.522  0.00  0.00    +0.146 C 
ATOM      9  C   UNL     1      -1.945 -10.817  16.369  0.00  0.00    +0.030 C 
ATOM     10  C   UNL     1      -1.152  -9.882  15.468  0.00  0.00    +0.017 C 
ATOM     11  C   UNL     1      -1.575 -10.288  14.072  0.00  0.00    +0.085 C 
ENDROOT
BRANCH   8  13
ATOM      1  O   UNL     1      -5.004  -9.757  16.031  0.00  0.00    -0.336 OA
ATOM      4  N   UNL     1      -5.205 -11.792  16.945  0.00  0.00    -0.190 NA
ATOM      5  N   UNL     1      -6.210  -9.747  16.743  0.00  0.00    -0.056 NA
ATOM     13  C   UNL     1      -4.476 -10.997  16.203  0.00  0.00    +0.245 A 
ATOM     17  C   UNL     1      -6.258 -10.981  17.253  0.00  0.00    +0.204 A 
BRANCH  17  20
ATOM      6  N   UNL     1      -9.534 -11.026  19.013  0.00  0.00    -0.240 NA
ATOM     20  C   UNL     1      -7.344 -11.435  18.073  0.00  0.00    +0.041 A 
ATOM     22  C   UNL     1      -7.293 -12.670  18.711  0.00  0.00    +0.016 A 
ATOM     23  C   UNL     1      -8.476 -10.658  18.255  0.00  0.00    +0.124 A 
ATOM     25  C   UNL     1      -8.361 -13.084  19.499  0.00  0.00    +0.044 A 
ATOM     26  C   UNL     1      -9.447 -12.232  19.617  0.00  0.00    +0.121 A 
BRANCH  26   7
ATOM      7  N   UNL     1     -10.528 -12.668  20.423  0.00  0.00    -0.321 N 
ATOM     27  C   UNL     1     -10.384 -13.837  21.263  0.00  0.00    +0.130 C 
ATOM     28  C   UNL     1     -11.780 -11.943  20.417  0.00  0.00    +0.130 C 
ENDBRANCH  26   7
ENDBRANCH  17  20
ENDBRANCH   8  13
BRANCH   3  12
ATOM     12  C   UNL     1      -3.588 -11.235  13.113  0.00  0.00    +0.124 C 
BRANCH  12  14
ATOM     14  C   UNL     1      -3.967 -10.292  12.002  0.00  0.00    +0.008 A 
ATOM     15  C   UNL     1      -5.208  -9.656  12.001  0.00  0.00    +0.124 A 
ATOM     16  C   UNL     1      -3.061 -10.056  10.968  0.00  0.00    +0.008 A 
ATOM     18  C   UNL     1      -5.545  -8.785  10.964  0.00  0.00    +0.046 A 
ATOM     19  C   UNL     1      -3.397  -9.186   9.932  0.00  0.00    +0.001 A 
ATOM     21  C   UNL     1      -4.638  -8.550   9.929  0.00  0.00    +0.004 A 
BRANCH  15   2
ATOM      2  O   UNL     1      -6.106  -9.875  13.002  0.00  0.00    -0.495 OA
ATOM     24  C   UNL     1      -7.460  -9.507  12.750  0.00  0.00    +0.277 C 
ENDBRANCH  15   2
ENDBRANCH  12  14
ENDBRANCH   3  12
TORSDOF 6
ENDMDL
MODEL 5
REMARK VINA RESULT:      -6.7      2.696      9.514
REMARK  Name = 45783809
REMARK  9 active torsions:
REMARK  status: ('A' for Active; 'I' for Inactive)
REMARK    1  A    between atoms: O_2  and  C_15
REMARK    2  A    between atoms: O_2  and  C_24
REMARK    3  A    between atoms: N_3  and  C_12
REMARK    4  A    between atoms: N_7  and  C_26
REMARK    5  A    between atoms: N_7  and  C_27
REMARK    6  A    between atoms: N_7  and  C_28
REMARK    7  A    between atoms: C_8  and  C_13
REMARK    8  A    between atoms: C_12  and  C_14
REMARK    9  A    between atoms: C_17  and  C_20
REMARK                            x       y       z     vdW  Elec       q    Type
REMARK                         _______ _______ _______ _____ _____    ______ ____
ROOT
ATOM      3  N   UNL     1      21.692   6.049  21.523  0.00  0.00    -0.287 NA
ATOM      8  C   UNL     1      20.770   7.191  21.685  0.00  0.00    +0.146 C 
ATOM      9  C   UNL     1      21.466   8.361  20.965  0.00  0.00    +0.030 C 
ATOM     10  C   UNL     1      22.795   7.798  20.485  0.00  0.00    +0.017 C 
ATOM     11  C   UNL     1      23.035   6.617  21.402  0.00  0.00    +0.085 C 
ENDROOT
BRANCH   8  13
ATOM      1  O   UNL     1      19.316   6.026  20.104  0.00  0.00    -0.336 OA
ATOM      4  N   UNL     1      18.230   7.385  21.513  0.00  0.00    -0.190 NA
ATOM      5  N   UNL     1      17.959   5.924  19.773  0.00  0.00    -0.056 NA
ATOM     13  C   UNL     1      19.388   6.905  21.137  0.00  0.00    +0.245 A 
ATOM     17  C   UNL     1      17.384   6.754  20.648  0.00  0.00    +0.204 A 
BRANCH  17  20
ATOM      6  N   UNL     1      13.825   6.840  19.568  0.00  0.00    -0.240 NA
ATOM     20  C   UNL     1      15.966   6.975  20.684  0.00  0.00    +0.041 A 
ATOM     22  C   UNL     1      15.354   7.517  21.809  0.00  0.00    +0.016 A 
ATOM     23  C   UNL     1      15.166   6.657  19.600  0.00  0.00    +0.124 A 
ATOM     25  C   UNL     1      13.979   7.720  21.816  0.00  0.00    +0.044 A 
ATOM     26  C   UNL     1      13.267   7.369  20.680  0.00  0.00    +0.121 A 
BRANCH  26   7
ATOM      7  N   UNL     1      11.866   7.580  20.702  0.00  0.00    -0.321 N 
ATOM     27  C   UNL     1      11.256   8.512  19.779  0.00  0.00    +0.130 C 
ATOM     28  C   UNL     1      11.035   6.860  21.642  0.00  0.00    +0.130 C 
ENDBRANCH  26   7
ENDBRANCH  17  20
ENDBRANCH   8  13
BRANCH   3  12
ATOM     12  C   UNL     1      21.602   5.080  22.606  0.00  0.00    +0.124 C 
BRANCH  12  14
ATOM     14  C   UNL     1      22.495   3.890  22.371  0.00  0.00    +0.008 A 
ATOM     15  C   UNL     1      23.351   3.434  23.374  0.00  0.00    +0.124 A 
ATOM     16  C   UNL     1      22.460   3.243  21.136  0.00  0.00    +0.008 A 
ATOM     18  C   UNL     1      24.173   2.331  23.141  0.00  0.00    +0.046 A 
ATOM     19  C   UNL     1      23.282   2.141  20.903  0.00  0.00    +0.001 A 
ATOM     21  C   UNL     1      24.138   1.685  21.905  0.00  0.00    +0.004 A 
BRANCH  15   2
ATOM      2  O   UNL     1      23.399   4.054  24.586  0.00  0.00    -0.495 OA
ATOM     24  C   UNL     1      24.610   4.729  24.921  0.00  0.00    +0.277 C 
ENDBRANCH  15   2
ENDBRANCH  12  14
ENDBRANCH   3  12
TORSDOF 6
ENDMDL
MODEL 6
REMARK VINA RESULT:      -6.7     18.234     21.611
REMARK  Name = 45783809
REMARK  9 active torsions:
REMARK  status: ('A' for Active; 'I' for Inactive)
REMARK    1  A    between atoms: O_2  and  C_15
REMARK    2  A    between atoms: O_2  and  C_24
REMARK    3  A    between atoms: N_3  and  C_12
REMARK    4  A    between atoms: N_7  and  C_26
REMARK    5  A    between atoms: N_7  and  C_27
REMARK    6  A    between atoms: N_7  and  C_28
REMARK    7  A    between atoms: C_8  and  C_13
REMARK    8  A    between atoms: C_12  and  C_14
REMARK    9  A    between atoms: C_17  and  C_20
REMARK                            x       y       z     vdW  Elec       q    Type
REMARK                         _______ _______ _______ _____ _____    ______ ____
ROOT
ATOM      3  N   UNL     1      12.718   4.164  -1.535  0.00  0.00    -0.287 NA
ATOM      8  C   UNL     1      13.332   3.872  -0.224  0.00  0.00    +0.146 C 
ATOM      9  C   UNL     1      14.829   4.179  -0.417  0.00  0.00    +0.030 C 
ATOM     10  C   UNL     1      14.969   4.575  -1.879  0.00  0.00    +0.017 C 
ATOM     11  C   UNL     1      13.761   3.942  -2.538  0.00  0.00    +0.085 C 
ENDROOT
BRANCH   8  13
ATOM      1  O   UNL     1      12.590   6.012   0.695  0.00  0.00    -0.336 OA
ATOM      4  N   UNL     1      12.263   4.267   2.061  0.00  0.00    -0.190 NA
ATOM      5  N   UNL     1      11.999   6.530   1.854  0.00  0.00    -0.056 NA
ATOM     13  C   UNL     1      12.711   4.674   0.900  0.00  0.00    +0.245 A 
ATOM     17  C   UNL     1      11.837   5.441   2.611  0.00  0.00    +0.204 A 
BRANCH  17  20
ATOM      6  N   UNL     1      11.096   6.582   6.073  0.00  0.00    -0.240 NA
ATOM     20  C   UNL     1      11.252   5.491   3.920  0.00  0.00    +0.041 A 
ATOM     22  C   UNL     1      10.310   4.550   4.321  0.00  0.00    +0.016 A 
ATOM     23  C   UNL     1      11.608   6.478   4.825  0.00  0.00    +0.124 A 
ATOM     25  C   UNL     1       9.760   4.623   5.595  0.00  0.00    +0.044 A 
ATOM     26  C   UNL     1      10.184   5.649   6.425  0.00  0.00    +0.121 A 
BRANCH  26   7
ATOM      7  N   UNL     1       9.613   5.711   7.721  0.00  0.00    -0.321 N 
ATOM     27  C   UNL     1       8.951   6.918   8.167  0.00  0.00    +0.130 C 
ATOM     28  C   UNL     1       9.681   4.567   8.602  0.00  0.00    +0.130 C 
ENDBRANCH  26   7
ENDBRANCH  17  20
ENDBRANCH   8  13
BRANCH   3  12
ATOM     12  C   UNL     1      11.525   3.371  -1.800  0.00  0.00    +0.124 C 
BRANCH  12  14
ATOM     14  C   UNL     1      10.396   4.215  -2.330  0.00  0.00    +0.008 A 
ATOM     15  C   UNL     1       9.786   3.905  -3.546  0.00  0.00    +0.124 A 
ATOM     16  C   UNL     1       9.961   5.314  -1.591  0.00  0.00    +0.008 A 
ATOM     18  C   UNL     1       8.742   4.697  -4.024  0.00  0.00    +0.046 A 
ATOM     19  C   UNL     1       8.916   6.105  -2.068  0.00  0.00    +0.001 A 
ATOM     21  C   UNL     1       8.307   5.797  -3.285  0.00  0.00    +0.004 A 
BRANCH  15   2
ATOM      2  O   UNL     1      10.200   2.835  -4.281  0.00  0.00    -0.495 OA
ATOM     24  C   UNL     1      11.037   3.105  -5.403  0.00  0.00    +0.277 C 
ENDBRANCH  15   2
ENDBRANCH  12  14
ENDBRANCH   3  12
TORSDOF 6
ENDMDL
MODEL 7
REMARK VINA RESULT:      -6.7     27.426     30.362
REMARK  Name = 45783809
REMARK  9 active torsions:
REMARK  status: ('A' for Active; 'I' for Inactive)
REMARK    1  A    between atoms: O_2  and  C_15
REMARK    2  A    between atoms: O_2  and  C_24
REMARK    3  A    between atoms: N_3  and  C_12
REMARK    4  A    between atoms: N_7  and  C_26
REMARK    5  A    between atoms: N_7  and  C_27
REMARK    6  A    between atoms: N_7  and  C_28
REMARK    7  A    between atoms: C_8  and  C_13
REMARK    8  A    between atoms: C_12  and  C_14
REMARK    9  A    between atoms: C_17  and  C_20
REMARK                            x       y       z     vdW  Elec       q    Type
REMARK                         _______ _______ _______ _____ _____    ______ ____
ROOT
ATOM      3  N   UNL     1      -9.924 -11.943  19.312  0.00  0.00    -0.287 NA
ATOM      8  C   UNL     1      -8.801 -12.531  20.070  0.00  0.00    +0.146 C 
ATOM      9  C   UNL     1      -9.071 -14.047  20.055  0.00  0.00    +0.030 C 
ATOM     10  C   UNL     1     -10.394 -14.208  19.321  0.00  0.00    +0.017 C 
ATOM     11  C   UNL     1     -11.056 -12.855  19.477  0.00  0.00    +0.085 C 
ENDROOT
BRANCH   8  13
ATOM      1  O   UNL     1      -6.570 -11.567  20.324  0.00  0.00    -0.336 OA
ATOM      4  N   UNL     1      -6.997 -12.356  18.272  0.00  0.00    -0.190 NA
ATOM      5  N   UNL     1      -5.414 -11.334  19.569  0.00  0.00    -0.056 NA
ATOM     13  C   UNL     1      -7.452 -12.171  19.485  0.00  0.00    +0.245 A 
ATOM     17  C   UNL     1      -5.743 -11.826  18.371  0.00  0.00    +0.204 A 
BRANCH  17  20
ATOM      6  N   UNL     1      -4.058 -12.844  15.216  0.00  0.00    -0.240 NA
ATOM     20  C   UNL     1      -4.843 -11.807  17.254  0.00  0.00    +0.041 A 
ATOM     22  C   UNL     1      -3.909 -10.788  17.104  0.00  0.00    +0.016 A 
ATOM     23  C   UNL     1      -4.877 -12.803  16.292  0.00  0.00    +0.124 A 
ATOM     25  C   UNL     1      -3.050 -10.795  16.011  0.00  0.00    +0.044 A 
ATOM     26  C   UNL     1      -3.164 -11.837  15.104  0.00  0.00    +0.121 A 
BRANCH  26   7
ATOM      7  N   UNL     1      -2.282 -11.830  13.995  0.00  0.00    -0.321 N 
ATOM     27  C   UNL     1      -1.457 -12.984  13.714  0.00  0.00    +0.130 C 
ATOM     28  C   UNL     1      -2.207 -10.672  13.132  0.00  0.00    +0.130 C 
ENDBRANCH  26   7
ENDBRANCH  17  20
ENDBRANCH   8  13
BRANCH   3  12
ATOM     12  C   UNL     1     -10.248 -10.585  19.727  0.00  0.00    +0.124 C 
BRANCH  12  14
ATOM     14  C   UNL     1     -10.732  -9.745  18.574  0.00  0.00    +0.008 A 
ATOM     15  C   UNL     1      -9.825  -9.145  17.701  0.00  0.00    +0.124 A 
ATOM     16  C   UNL     1     -12.103  -9.571  18.384  0.00  0.00    +0.008 A 
ATOM     18  C   UNL     1     -10.289  -8.369  16.638  0.00  0.00    +0.046 A 
ATOM     19  C   UNL     1     -12.566  -8.796  17.322  0.00  0.00    +0.001 A 
ATOM     21  C   UNL     1     -11.660  -8.195  16.449  0.00  0.00    +0.004 A 
BRANCH  15   2
ATOM      2  O   UNL     1      -8.483  -9.304  17.872  0.00  0.00    -0.495 OA
ATOM     24  C   UNL     1      -7.662  -9.172  16.713  0.00  0.00    +0.277 C 
ENDBRANCH  15   2
ENDBRANCH  12  14
ENDBRANCH   3  12
TORSDOF 6
ENDMDL
MODEL 8
REMARK VINA RESULT:      -6.6      3.123      9.952
REMARK  Name = 45783809
REMARK  9 active torsions:
REMARK  status: ('A' for Active; 'I' for Inactive)
REMARK    1  A    between atoms: O_2  and  C_15
REMARK    2  A    between atoms: O_2  and  C_24
REMARK    3  A    between atoms: N_3  and  C_12
REMARK    4  A    between atoms: N_7  and  C_26
REMARK    5  A    between atoms: N_7  and  C_27
REMARK    6  A    between atoms: N_7  and  C_28
REMARK    7  A    between atoms: C_8  and  C_13
REMARK    8  A    between atoms: C_12  and  C_14
REMARK    9  A    between atoms: C_17  and  C_20
REMARK                            x       y       z     vdW  Elec       q    Type
REMARK                         _______ _______ _______ _____ _____    ______ ____
ROOT
ATOM      3  N   UNL     1      23.331   5.612  22.534  0.00  0.00    -0.287 NA
ATOM      8  C   UNL     1      22.241   6.602  22.642  0.00  0.00    +0.146 C 
ATOM      9  C   UNL     1      22.905   7.952  22.314  0.00  0.00    +0.030 C 
ATOM     10  C   UNL     1      24.376   7.629  22.096  0.00  0.00    +0.017 C 
ATOM     11  C   UNL     1      24.570   6.326  22.844  0.00  0.00    +0.085 C 
ENDROOT
BRANCH   8  13
ATOM      1  O   UNL     1      21.206   5.189  20.938  0.00  0.00    -0.336 OA
ATOM      4  N   UNL     1      19.940   6.920  21.581  0.00  0.00    -0.190 NA
ATOM      5  N   UNL     1      20.022   5.103  20.195  0.00  0.00    -0.056 NA
ATOM     13  C   UNL     1      21.075   6.286  21.728  0.00  0.00    +0.245 A 
ATOM     17  C   UNL     1      19.327   6.158  20.630  0.00  0.00    +0.204 A 
BRANCH  17  20
ATOM      6  N   UNL     1      16.196   5.962  18.634  0.00  0.00    -0.240 NA
ATOM     20  C   UNL     1      18.019   6.477  20.136  0.00  0.00    +0.041 A 
ATOM     22  C   UNL     1      17.308   7.561  20.639  0.00  0.00    +0.016 A 
ATOM     23  C   UNL     1      17.424   5.716  19.143  0.00  0.00    +0.124 A 
ATOM     25  C   UNL     1      16.041   7.846  20.141  0.00  0.00    +0.044 A 
ATOM     26  C   UNL     1      15.536   7.023  19.147  0.00  0.00    +0.121 A 
BRANCH  26   7
ATOM      7  N   UNL     1      14.243   7.326  18.651  0.00  0.00    -0.321 N 
ATOM     27  C   UNL     1      14.090   7.981  17.370  0.00  0.00    +0.130 C 
ATOM     28  C   UNL     1      13.068   6.974  19.417  0.00  0.00    +0.130 C 
ENDBRANCH  26   7
ENDBRANCH  17  20
ENDBRANCH   8  13
BRANCH   3  12
ATOM     12  C   UNL     1      23.139   4.450  23.391  0.00  0.00    +0.124 C 
BRANCH  12  14
ATOM     14  C   UNL     1      23.625   3.183  22.738  0.00  0.00    +0.008 A 
ATOM     15  C   UNL     1      23.894   2.047  23.502  0.00  0.00    +0.124 A 
ATOM     16  C   UNL     1      23.806   3.154  21.356  0.00  0.00    +0.008 A 
ATOM     18  C   UNL     1      24.346   0.881  22.883  0.00  0.00    +0.046 A 
ATOM     19  C   UNL     1      24.257   1.988  20.737  0.00  0.00    +0.001 A 
ATOM     21  C   UNL     1      24.527   0.852  21.500  0.00  0.00    +0.004 A 
BRANCH  15   2
ATOM      2  O   UNL     1      23.725   2.059  24.854  0.00  0.00    -0.495 OA
ATOM     24  C   UNL     1      22.550   1.431  25.364  0.00  0.00    +0.277 C 
ENDBRANCH  15   2
ENDBRANCH  12  14
ENDBRANCH   3  12
TORSDOF 6
ENDMDL
MODEL 9
REMARK VINA RESULT:      -6.6     16.195     19.376
REMARK  Name = 45783809
REMARK  9 active torsions:
REMARK  status: ('A' for Active; 'I' for Inactive)
REMARK    1  A    between atoms: O_2  and  C_15
REMARK    2  A    between atoms: O_2  and  C_24
REMARK    3  A    between atoms: N_3  and  C_12
REMARK    4  A    between atoms: N_7  and  C_26
REMARK    5  A    between atoms: N_7  and  C_27
REMARK    6  A    between atoms: N_7  and  C_28
REMARK    7  A    between atoms: C_8  and  C_13
REMARK    8  A    between atoms: C_12  and  C_14
REMARK    9  A    between atoms: C_17  and  C_20
REMARK                            x       y       z     vdW  Elec       q    Type
REMARK                         _______ _______ _______ _____ _____    ______ ____
ROOT
ATOM      3  N   UNL     1       9.416   7.695   6.192  0.00  0.00    -0.287 NA
ATOM      8  C   UNL     1      10.571   6.783   6.319  0.00  0.00    +0.146 C 
ATOM      9  C   UNL     1      10.397   6.122   7.699  0.00  0.00    +0.030 C 
ATOM     10  C   UNL     1       9.155   6.769   8.296  0.00  0.00    +0.017 C 
ATOM     11  C   UNL     1       9.046   8.084   7.553  0.00  0.00    +0.085 C 
ENDROOT
BRANCH   8  13
ATOM      1  O   UNL     1      10.022   4.584   5.405  0.00  0.00    -0.336 OA
ATOM      4  N   UNL     1      11.221   5.875   4.023  0.00  0.00    -0.190 NA
ATOM      5  N   UNL     1      10.222   3.829   4.243  0.00  0.00    -0.056 NA
ATOM     13  C   UNL     1      10.642   5.774   5.192  0.00  0.00    +0.245 A 
ATOM     17  C   UNL     1      10.936   4.658   3.476  0.00  0.00    +0.204 A 
BRANCH  17  20
ATOM      6  N   UNL     1      10.863   4.001  -0.184  0.00  0.00    -0.240 NA
ATOM     20  C   UNL     1      11.380   4.301   2.159  0.00  0.00    +0.041 A 
ATOM     22  C   UNL     1      12.697   3.920   1.925  0.00  0.00    +0.016 A 
ATOM     23  C   UNL     1      10.510   4.324   1.081  0.00  0.00    +0.124 A 
ATOM     25  C   UNL     1      13.098   3.580   0.638  0.00  0.00    +0.044 A 
ATOM     26  C   UNL     1      12.151   3.635  -0.372  0.00  0.00    +0.121 A 
BRANCH  26   7
ATOM      7  N   UNL     1      12.575   3.287  -1.678  0.00  0.00    -0.321 N 
ATOM     27  C   UNL     1      13.669   3.999  -2.302  0.00  0.00    +0.130 C 
ATOM     28  C   UNL     1      11.923   2.212  -2.393  0.00  0.00    +0.130 C 
ENDBRANCH  26   7
ENDBRANCH  17  20
ENDBRANCH   8  13
BRANCH   3  12
ATOM     12  C   UNL     1       9.687   8.849   5.346  0.00  0.00    +0.124 C 
BRANCH  12  14
ATOM     14  C   UNL     1       8.501   9.209   4.490  0.00  0.00    +0.008 A 
ATOM     15  C   UNL     1       8.382   8.710   3.193  0.00  0.00    +0.124 A 
ATOM     16  C   UNL     1       7.517  10.050   5.007  0.00  0.00    +0.008 A 
ATOM     18  C   UNL     1       7.278   9.053   2.412  0.00  0.00    +0.046 A 
ATOM     19  C   UNL     1       6.413  10.393   4.227  0.00  0.00    +0.001 A 
ATOM     21  C   UNL     1       6.294   9.895   2.930  0.00  0.00    +0.004 A 
BRANCH  15   2
ATOM      2  O   UNL     1       9.336   7.888   2.672  0.00  0.00    -0.495 OA
ATOM     24  C   UNL     1       9.587   7.994   1.272  0.00  0.00    +0.277 C 
ENDBRANCH  15   2
ENDBRANCH  12  14
ENDBRANCH   3  12
TORSDOF 6
ENDMDL
MODEL 10
REMARK VINA RESULT:      -6.5     26.239     30.069
REMARK  Name = 45783809
REMARK  9 active torsions:
REMARK  status: ('A' for Active; 'I' for Inactive)
REMARK    1  A    between atoms: O_2  and  C_15
REMARK    2  A    between atoms: O_2  and  C_24
REMARK    3  A    between atoms: N_3  and  C_12
REMARK    4  A    between atoms: N_7  and  C_26
REMARK    5  A    between atoms: N_7  and  C_27
REMARK    6  A    between atoms: N_7  and  C_28
REMARK    7  A    between atoms: C_8  and  C_13
REMARK    8  A    between atoms: C_12  and  C_14
REMARK    9  A    between atoms: C_17  and  C_20
REMARK                            x       y       z     vdW  Elec       q    Type
REMARK                         _______ _______ _______ _____ _____    ______ ____
ROOT
ATOM      3  N   UNL     1      -3.220 -10.619  14.305  0.00  0.00    -0.287 NA
ATOM      8  C   UNL     1      -3.125 -11.270  15.627  0.00  0.00    +0.146 C 
ATOM      9  C   UNL     1      -1.826 -10.717  16.242  0.00  0.00    +0.030 C 
ATOM     10  C   UNL     1      -1.231  -9.814  15.172  0.00  0.00    +0.017 C 
ATOM     11  C   UNL     1      -1.847 -10.329  13.888  0.00  0.00    +0.085 C 
ENDROOT
BRANCH   8  13
ATOM      1  O   UNL     1      -4.133 -10.990  17.835  0.00  0.00    -0.336 OA
ATOM      4  N   UNL     1      -5.581 -10.797  16.139  0.00  0.00    -0.190 NA
ATOM      5  N   UNL     1      -5.381 -10.736  18.417  0.00  0.00    -0.056 NA
ATOM     13  C   UNL     1      -4.339 -11.010  16.493  0.00  0.00    +0.245 A 
ATOM     17  C   UNL     1      -6.183 -10.635  17.353  0.00  0.00    +0.204 A 
BRANCH  17  20
ATOM      6  N   UNL     1      -9.400  -8.770  17.412  0.00  0.00    -0.240 NA
ATOM     20  C   UNL     1      -7.588 -10.370  17.467  0.00  0.00    +0.041 A 
ATOM     22  C   UNL     1      -8.491 -11.393  17.735  0.00  0.00    +0.016 A 
ATOM     23  C   UNL     1      -8.089  -9.087  17.316  0.00  0.00    +0.124 A 
ATOM     25  C   UNL     1      -9.847 -11.107  17.841  0.00  0.00    +0.044 A 
ATOM     26  C   UNL     1     -10.246  -9.791  17.673  0.00  0.00    +0.121 A 
BRANCH  26   7
ATOM      7  N   UNL     1     -11.632  -9.515  17.782  0.00  0.00    -0.321 N 
ATOM     27  C   UNL     1     -12.300  -9.640  19.059  0.00  0.00    +0.130 C 
ATOM     28  C   UNL     1     -12.385  -9.098  16.620  0.00  0.00    +0.130 C 
ENDBRANCH  26   7
ENDBRANCH  17  20
ENDBRANCH   8  13
BRANCH   3  12
ATOM     12  C   UNL     1      -3.935 -11.419  13.321  0.00  0.00    +0.124 C 
BRANCH  12  14
ATOM     14  C   UNL     1      -4.716 -10.562  12.360  0.00  0.00    +0.008 A 
ATOM     15  C   UNL     1      -4.472 -10.626  10.988  0.00  0.00    +0.124 A 
ATOM     16  C   UNL     1      -5.692  -9.698  12.855  0.00  0.00    +0.008 A 
ATOM     18  C   UNL     1      -5.203  -9.824  10.111  0.00  0.00    +0.046 A 
ATOM     19  C   UNL     1      -6.424  -8.897  11.978  0.00  0.00    +0.001 A 
ATOM     21  C   UNL     1      -6.179  -8.960  10.607  0.00  0.00    +0.004 A 
BRANCH  15   2
ATOM      2  O   UNL     1      -3.521 -11.464  10.487  0.00  0.00    -0.495 OA
ATOM     24  C   UNL     1      -3.953 -12.446   9.548  0.00  0.00    +0.277 C 
ENDBRANCH  15   2
ENDBRANCH  12  14
ENDBRANCH   3  12
TORSDOF 6
ENDMDL
