MODEL 1
REMARK VINA RESULT:      -6.6      0.000      0.000
REMARK  Name = 44717029
REMARK  10 active torsions:
REMARK  status: ('A' for Active; 'I' for Inactive)
REMARK    1  A    between atoms: S_1  and  N_8
REMARK    2  A    between atoms: S_1  and  C_19
REMARK    3  A    between atoms: O_6  and  C_25
REMARK    4  A    between atoms: O_6  and  C_37
REMARK    5  A    between atoms: N_10  and  C_20
REMARK    6  A    between atoms: C_13  and  C_17
REMARK    7  A    between atoms: C_18  and  C_21
REMARK    8  A    between atoms: C_20  and  C_22
REMARK    9  A    between atoms: C_20  and  C_25
REMARK   10  A    between atoms: C_22  and  C_26
REMARK                            x       y       z     vdW  Elec       q    Type
REMARK                         _______ _______ _______ _____ _____    ______ ____
ROOT
ATOM      5  O   UNL     1      10.162  14.200  20.962  0.00  0.00    -0.270 OA
ATOM      8  N   UNL     1      14.990  13.041  19.944  0.00  0.00    -0.162 NA
ATOM      9  N   UNL     1      12.456  13.775  21.122  0.00  0.00    -0.294 N 
ATOM     13  C   UNL     1      13.788  13.218  19.083  0.00  0.00    +0.183 C 
ATOM     14  C   UNL     1      12.716  14.099  19.719  0.00  0.00    +0.138 C 
ATOM     15  C   UNL     1      14.935  13.744  21.252  0.00  0.00    +0.129 C 
ATOM     16  C   UNL     1      13.619  13.415  21.940  0.00  0.00    +0.125 C 
ATOM     18  C   UNL     1      11.156  13.901  21.622  0.00  0.00    +0.248 C 
ENDROOT
BRANCH  18  21
ATOM     11  N   UNL     1      10.543  12.082  24.848  0.00  0.00    -0.263 NA
ATOM     21  C   UNL     1      10.943  13.657  23.058  0.00  0.00    +0.055 A 
ATOM     29  C   UNL     1      10.937  14.707  23.970  0.00  0.00    +0.016 A 
ATOM     30  C   UNL     1      10.744  12.375  23.544  0.00  0.00    +0.123 A 
ATOM     33  C   UNL     1      10.733  14.447  25.320  0.00  0.00    +0.020 A 
ATOM     35  C   UNL     1      10.543  13.128  25.704  0.00  0.00    +0.111 A 
ENDBRANCH  18  21
BRANCH  13  17
ATOM      4  O   UNL     1      12.676  11.210  19.726  0.00  0.00    -0.274 OA
ATOM     10  N   UNL     1      13.613  11.350  17.599  0.00  0.00    -0.301 N 
ATOM     17  C   UNL     1      13.286  11.827  18.858  0.00  0.00    +0.234 C 
ATOM     39  H   UNL     1      14.035  11.983  16.927  0.00  0.00    +0.150 HD
BRANCH  10  20
ATOM     20  C   UNL     1      13.264  10.024  17.141  0.00  0.00    +0.186 C 
BRANCH  20  25
ATOM      7  O   UNL     1      13.814  10.678  14.881  0.00  0.00    -0.249 OA
ATOM     25  C   UNL     1      13.163   9.951  15.623  0.00  0.00    +0.328 C 
BRANCH  25   6
ATOM      6  O   UNL     1      12.266   9.010  15.214  0.00  0.00    -0.467 OA
ATOM     37  C   UNL     1      10.918   9.204  15.656  0.00  0.00    +0.280 C 
ENDBRANCH  25   6
ENDBRANCH  20  25
BRANCH  20  22
ATOM     22  C   UNL     1      14.210   8.956  17.707  0.00  0.00    +0.070 C 
BRANCH  22  26
ATOM     12  N   UNL     1      11.668   7.093  19.816  0.00  0.00    -0.263 NA
ATOM     26  C   UNL     1      13.620   8.109  18.812  0.00  0.00    -0.027 A 
ATOM     32  C   UNL     1      14.422   7.576  19.814  0.00  0.00    +0.006 A 
ATOM     34  C   UNL     1      12.261   7.840  18.857  0.00  0.00    +0.114 A 
ATOM     36  C   UNL     1      13.849   6.802  20.818  0.00  0.00    +0.020 A 
ATOM     38  C   UNL     1      12.480   6.593  20.774  0.00  0.00    +0.111 A 
ENDBRANCH  22  26
ENDBRANCH  20  22
ENDBRANCH  10  20
ENDBRANCH  13  17
BRANCH   8   1
ATOM      1  S   UNL     1      16.508  13.032  19.156  0.00  0.00    +0.062 S 
ATOM      2  O   UNL     1      17.216  14.252  19.481  0.00  0.00    -0.153 OA
ATOM      3  O   UNL     1      16.322  12.623  17.780  0.00  0.00    -0.153 OA
BRANCH   1  19
ATOM     19  C   UNL     1      17.294  11.705  20.014  0.00  0.00    +0.106 A 
ATOM     23  C   UNL     1      18.661  11.759  20.282  0.00  0.00    +0.028 A 
ATOM     24  C   UNL     1      16.546  10.600  20.425  0.00  0.00    +0.028 A 
ATOM     27  C   UNL     1      19.282  10.709  20.959  0.00  0.00    +0.002 A 
ATOM     28  C   UNL     1      17.167   9.550  21.101  0.00  0.00    +0.002 A 
ATOM     31  C   UNL     1      18.535   9.605  21.368  0.00  0.00    +0.000 A 
ENDBRANCH   1  19
ENDBRANCH   8   1
TORSDOF 9
ENDMDL
MODEL 2
REMARK VINA RESULT:      -6.5      2.671      3.805
REMARK  Name = 44717029
REMARK  10 active torsions:
REMARK  status: ('A' for Active; 'I' for Inactive)
REMARK    1  A    between atoms: S_1  and  N_8
REMARK    2  A    between atoms: S_1  and  C_19
REMARK    3  A    between atoms: O_6  and  C_25
REMARK    4  A    between atoms: O_6  and  C_37
REMARK    5  A    between atoms: N_10  and  C_20
REMARK    6  A    between atoms: C_13  and  C_17
REMARK    7  A    between atoms: C_18  and  C_21
REMARK    8  A    between atoms: C_20  and  C_22
REMARK    9  A    between atoms: C_20  and  C_25
REMARK   10  A    between atoms: C_22  and  C_26
REMARK                            x       y       z     vdW  Elec       q    Type
REMARK                         _______ _______ _______ _____ _____    ______ ____
ROOT
ATOM      5  O   UNL     1      10.372  12.012  24.556  0.00  0.00    -0.270 OA
ATOM      8  N   UNL     1      13.332  12.484  20.470  0.00  0.00    -0.162 NA
ATOM      9  N   UNL     1      11.981  12.716  23.013  0.00  0.00    -0.294 N 
ATOM     13  C   UNL     1      12.169  11.608  20.783  0.00  0.00    +0.183 C 
ATOM     14  C   UNL     1      11.254  12.182  21.861  0.00  0.00    +0.138 C 
ATOM     15  C   UNL     1      13.397  13.745  21.253  0.00  0.00    +0.129 C 
ATOM     16  C   UNL     1      13.234  13.425  22.731  0.00  0.00    +0.125 C 
ATOM     18  C   UNL     1      11.419  12.599  24.288  0.00  0.00    +0.248 C 
ENDROOT
BRANCH  18  21
ATOM     11  N   UNL     1      12.281  15.037  27.009  0.00  0.00    -0.263 NA
ATOM     21  C   UNL     1      12.129  13.226  25.415  0.00  0.00    +0.055 A 
ATOM     29  C   UNL     1      13.275  12.649  25.950  0.00  0.00    +0.016 A 
ATOM     30  C   UNL     1      11.677  14.410  25.975  0.00  0.00    +0.123 A 
ATOM     33  C   UNL     1      13.926  13.264  27.014  0.00  0.00    +0.020 A 
ATOM     35  C   UNL     1      13.392  14.447  27.502  0.00  0.00    +0.111 A 
ENDBRANCH  18  21
BRANCH  13  17
ATOM      4  O   UNL     1      13.146  10.133  22.380  0.00  0.00    -0.274 OA
ATOM     10  N   UNL     1      12.903   9.413  20.179  0.00  0.00    -0.301 N 
ATOM     17  C   UNL     1      12.784  10.318  21.221  0.00  0.00    +0.234 C 
ATOM     39  H   UNL     1      12.481   9.636  19.283  0.00  0.00    +0.150 HD
BRANCH  10  20
ATOM     20  C   UNL     1      13.487   8.100  20.335  0.00  0.00    +0.186 C 
BRANCH  20  25
ATOM      7  O   UNL     1      12.053   6.331  19.527  0.00  0.00    -0.249 OA
ATOM     25  C   UNL     1      12.427   7.015  20.474  0.00  0.00    +0.328 C 
BRANCH  25   6
ATOM      6  O   UNL     1      11.952   6.921  21.748  0.00  0.00    -0.467 OA
ATOM     37  C   UNL     1      10.563   7.224  21.915  0.00  0.00    +0.280 C 
ENDBRANCH  25   6
ENDBRANCH  20  25
BRANCH  20  22
ATOM     22  C   UNL     1      14.491   7.784  19.217  0.00  0.00    +0.070 C 
BRANCH  22  26
ATOM     12  N   UNL     1      17.755   5.875  19.497  0.00  0.00    -0.263 NA
ATOM     26  C   UNL     1      15.862   7.366  19.699  0.00  0.00    -0.027 A 
ATOM     32  C   UNL     1      16.492   8.036  20.741  0.00  0.00    +0.006 A 
ATOM     34  C   UNL     1      16.530   6.301  19.114  0.00  0.00    +0.114 A 
ATOM     36  C   UNL     1      17.753   7.627  21.163  0.00  0.00    +0.020 A 
ATOM     38  C   UNL     1      18.336   6.551  20.514  0.00  0.00    +0.111 A 
ENDBRANCH  22  26
ENDBRANCH  20  22
ENDBRANCH  10  20
ENDBRANCH  13  17
BRANCH   8   1
ATOM      1  S   UNL     1      13.799  12.590  18.828  0.00  0.00    +0.062 S 
ATOM      2  O   UNL     1      13.462  13.905  18.325  0.00  0.00    -0.153 OA
ATOM      3  O   UNL     1      13.364  11.395  18.136  0.00  0.00    -0.153 OA
BRANCH   1  19
ATOM     19  C   UNL     1      15.554  12.510  18.999  0.00  0.00    +0.106 A 
ATOM     23  C   UNL     1      16.371  13.308  18.199  0.00  0.00    +0.028 A 
ATOM     24  C   UNL     1      16.124  11.645  19.935  0.00  0.00    +0.028 A 
ATOM     27  C   UNL     1      17.758  13.243  18.334  0.00  0.00    +0.002 A 
ATOM     28  C   UNL     1      17.511  11.580  20.069  0.00  0.00    +0.002 A 
ATOM     31  C   UNL     1      18.327  12.379  19.269  0.00  0.00    +0.000 A 
ENDBRANCH   1  19
ENDBRANCH   8   1
TORSDOF 9
ENDMDL
MODEL 3
REMARK VINA RESULT:      -6.4     27.988     31.100
REMARK  Name = 44717029
REMARK  10 active torsions:
REMARK  status: ('A' for Active; 'I' for Inactive)
REMARK    1  A    between atoms: S_1  and  N_8
REMARK    2  A    between atoms: S_1  and  C_19
REMARK    3  A    between atoms: O_6  and  C_25
REMARK    4  A    between atoms: O_6  and  C_37
REMARK    5  A    between atoms: N_10  and  C_20
REMARK    6  A    between atoms: C_13  and  C_17
REMARK    7  A    between atoms: C_18  and  C_21
REMARK    8  A    between atoms: C_20  and  C_22
REMARK    9  A    between atoms: C_20  and  C_25
REMARK   10  A    between atoms: C_22  and  C_26
REMARK                            x       y       z     vdW  Elec       q    Type
REMARK                         _______ _______ _______ _____ _____    ______ ____
ROOT
ATOM      5  O   UNL     1      -4.710  -8.307  10.578  0.00  0.00    -0.270 OA
ATOM      8  N   UNL     1      -7.820 -11.248  13.291  0.00  0.00    -0.162 NA
ATOM      9  N   UNL     1      -6.373  -9.808  11.247  0.00  0.00    -0.294 N 
ATOM     13  C   UNL     1      -6.783 -10.250  13.671  0.00  0.00    +0.183 C 
ATOM     14  C   UNL     1      -6.509  -9.219  12.579  0.00  0.00    +0.138 C 
ATOM     15  C   UNL     1      -8.399 -11.067  11.935  0.00  0.00    +0.129 C 
ATOM     16  C   UNL     1      -7.271 -10.923  10.925  0.00  0.00    +0.125 C 
ATOM     18  C   UNL     1      -5.474  -9.241  10.339  0.00  0.00    +0.248 C 
ENDROOT
BRANCH  18  21
ATOM     11  N   UNL     1      -4.501 -11.419   7.440  0.00  0.00    -0.263 NA
ATOM     21  C   UNL     1      -5.426  -9.798   8.977  0.00  0.00    +0.055 A 
ATOM     29  C   UNL     1      -6.216  -9.273   7.959  0.00  0.00    +0.016 A 
ATOM     30  C   UNL     1      -4.593 -10.861   8.668  0.00  0.00    +0.123 A 
ATOM     33  C   UNL     1      -6.149  -9.819   6.683  0.00  0.00    +0.020 A 
ATOM     35  C   UNL     1      -5.283 -10.882   6.478  0.00  0.00    +0.111 A 
ENDBRANCH  18  21
BRANCH  13  17
ATOM      4  O   UNL     1      -5.473 -12.240  13.597  0.00  0.00    -0.274 OA
ATOM     10  N   UNL     1      -4.618 -10.367  14.683  0.00  0.00    -0.301 N 
ATOM     17  C   UNL     1      -5.567 -11.071  13.960  0.00  0.00    +0.234 C 
ATOM     39  H   UNL     1      -4.761  -9.375  14.846  0.00  0.00    +0.150 HD
BRANCH  10  20
ATOM     20  C   UNL     1      -3.363 -10.942  15.110  0.00  0.00    +0.186 C 
BRANCH  20  25
ATOM      7  O   UNL     1      -1.171  -9.932  14.975  0.00  0.00    -0.249 OA
ATOM     25  C   UNL     1      -2.174 -10.323  14.386  0.00  0.00    +0.328 C 
BRANCH  25   6
ATOM      6  O   UNL     1      -2.376 -10.247  13.040  0.00  0.00    -0.467 OA
ATOM     37  C   UNL     1      -2.032 -11.421  12.295  0.00  0.00    +0.280 C 
ENDBRANCH  25   6
ENDBRANCH  20  25
BRANCH  20  22
ATOM     22  C   UNL     1      -3.199 -10.888  16.635  0.00  0.00    +0.070 C 
BRANCH  22  26
ATOM     12  N   UNL     1      -5.866 -13.254  17.926  0.00  0.00    -0.263 NA
ATOM     26  C   UNL     1      -4.381 -11.414  17.417  0.00  0.00    -0.027 A 
ATOM     32  C   UNL     1      -5.066 -10.604  18.315  0.00  0.00    +0.006 A 
ATOM     34  C   UNL     1      -4.817 -12.721  17.260  0.00  0.00    +0.114 A 
ATOM     36  C   UNL     1      -6.151 -11.116  19.018  0.00  0.00    +0.020 A 
ATOM     38  C   UNL     1      -6.508 -12.435  18.789  0.00  0.00    +0.111 A 
ENDBRANCH  22  26
ENDBRANCH  20  22
ENDBRANCH  10  20
ENDBRANCH  13  17
BRANCH   8   1
ATOM      1  S   UNL     1      -8.909 -11.733  14.517  0.00  0.00    +0.062 S 
ATOM      2  O   UNL     1      -8.209 -12.570  15.468  0.00  0.00    -0.153 OA
ATOM      3  O   UNL     1     -10.144 -12.176  13.904  0.00  0.00    -0.153 OA
BRANCH   1  19
ATOM     19  C   UNL     1      -9.217 -10.177  15.291  0.00  0.00    +0.106 A 
ATOM     23  C   UNL     1      -8.646  -9.888  16.530  0.00  0.00    +0.028 A 
ATOM     24  C   UNL     1     -10.035  -9.235  14.663  0.00  0.00    +0.028 A 
ATOM     27  C   UNL     1      -8.891  -8.658  17.142  0.00  0.00    +0.002 A 
ATOM     28  C   UNL     1     -10.279  -8.006  15.276  0.00  0.00    +0.002 A 
ATOM     31  C   UNL     1      -9.707  -7.718  16.515  0.00  0.00    +0.000 A 
ENDBRANCH   1  19
ENDBRANCH   8   1
TORSDOF 9
ENDMDL
MODEL 4
REMARK VINA RESULT:      -6.1     28.637     30.675
REMARK  Name = 44717029
REMARK  10 active torsions:
REMARK  status: ('A' for Active; 'I' for Inactive)
REMARK    1  A    between atoms: S_1  and  N_8
REMARK    2  A    between atoms: S_1  and  C_19
REMARK    3  A    between atoms: O_6  and  C_25
REMARK    4  A    between atoms: O_6  and  C_37
REMARK    5  A    between atoms: N_10  and  C_20
REMARK    6  A    between atoms: C_13  and  C_17
REMARK    7  A    between atoms: C_18  and  C_21
REMARK    8  A    between atoms: C_20  and  C_22
REMARK    9  A    between atoms: C_20  and  C_25
REMARK   10  A    between atoms: C_22  and  C_26
REMARK                            x       y       z     vdW  Elec       q    Type
REMARK                         _______ _______ _______ _____ _____    ______ ____
ROOT
ATOM      5  O   UNL     1      -9.262 -11.883  14.107  0.00  0.00    -0.270 OA
ATOM      8  N   UNL     1      -4.977 -10.335  11.888  0.00  0.00    -0.162 NA
ATOM      9  N   UNL     1      -7.513 -10.591  13.249  0.00  0.00    -0.294 N 
ATOM     13  C   UNL     1      -5.621 -11.670  12.026  0.00  0.00    +0.183 C 
ATOM     14  C   UNL     1      -7.128 -11.592  12.254  0.00  0.00    +0.138 C 
ATOM     15  C   UNL     1      -5.902  -9.177  11.995  0.00  0.00    +0.129 C 
ATOM     16  C   UNL     1      -6.756  -9.334  13.244  0.00  0.00    +0.125 C 
ATOM     18  C   UNL     1      -8.609 -10.841  14.080  0.00  0.00    +0.248 C 
ENDROOT
BRANCH  18  21
ATOM     11  N   UNL     1     -10.420  -7.850  15.445  0.00  0.00    -0.263 NA
ATOM     21  C   UNL     1      -9.028  -9.777  15.007  0.00  0.00    +0.055 A 
ATOM     29  C   UNL     1      -8.469  -9.671  16.277  0.00  0.00    +0.016 A 
ATOM     30  C   UNL     1      -9.990  -8.850  14.643  0.00  0.00    +0.123 A 
ATOM     33  C   UNL     1      -8.883  -8.656  17.130  0.00  0.00    +0.020 A 
ATOM     35  C   UNL     1      -9.853  -7.779  16.670  0.00  0.00    +0.111 A 
ENDBRANCH  18  21
BRANCH  13  17
ATOM      4  O   UNL     1      -5.150 -13.456  13.532  0.00  0.00    -0.274 OA
ATOM     10  N   UNL     1      -4.053 -11.422  13.816  0.00  0.00    -0.301 N 
ATOM     17  C   UNL     1      -4.926 -12.298  13.191  0.00  0.00    +0.234 C 
ATOM     39  H   UNL     1      -3.875 -10.518  13.389  0.00  0.00    +0.150 HD
BRANCH  10  20
ATOM     20  C   UNL     1      -3.276 -11.777  14.981  0.00  0.00    +0.186 C 
BRANCH  20  25
ATOM      7  O   UNL     1      -0.947 -11.218  15.302  0.00  0.00    -0.249 OA
ATOM     25  C   UNL     1      -1.786 -11.855  14.674  0.00  0.00    +0.328 C 
BRANCH  25   6
ATOM      6  O   UNL     1      -1.521 -12.688  13.629  0.00  0.00    -0.467 OA
ATOM     37  C   UNL     1      -1.684 -14.086  13.893  0.00  0.00    +0.280 C 
ENDBRANCH  25   6
ENDBRANCH  20  25
BRANCH  20  22
ATOM     22  C   UNL     1      -3.571 -10.849  16.169  0.00  0.00    +0.070 C 
BRANCH  22  26
ATOM     12  N   UNL     1      -6.043 -13.176  17.857  0.00  0.00    -0.263 NA
ATOM     26  C   UNL     1      -4.633 -11.356  17.118  0.00  0.00    -0.027 A 
ATOM     32  C   UNL     1      -5.176 -10.529  18.094  0.00  0.00    +0.006 A 
ATOM     34  C   UNL     1      -5.096 -12.661  17.042  0.00  0.00    +0.114 A 
ATOM     36  C   UNL     1      -6.154 -11.024  18.952  0.00  0.00    +0.020 A 
ATOM     38  C   UNL     1      -6.549 -12.342  18.793  0.00  0.00    +0.111 A 
ENDBRANCH  22  26
ENDBRANCH  20  22
ENDBRANCH  10  20
ENDBRANCH  13  17
BRANCH   8   1
ATOM      1  S   UNL     1      -3.728 -10.197  10.728  0.00  0.00    +0.062 S 
ATOM      2  O   UNL     1      -2.547 -10.873  11.222  0.00  0.00    -0.153 OA
ATOM      3  O   UNL     1      -3.662  -8.826  10.267  0.00  0.00    -0.153 OA
BRANCH   1  19
ATOM     19  C   UNL     1      -4.406 -11.175   9.424  0.00  0.00    +0.106 A 
ATOM     23  C   UNL     1      -3.982 -12.491   9.246  0.00  0.00    +0.028 A 
ATOM     24  C   UNL     1      -5.367 -10.629   8.571  0.00  0.00    +0.028 A 
ATOM     27  C   UNL     1      -4.518 -13.263   8.214  0.00  0.00    +0.002 A 
ATOM     28  C   UNL     1      -5.901 -11.401   7.540  0.00  0.00    +0.002 A 
ATOM     31  C   UNL     1      -5.477 -12.718   7.362  0.00  0.00    +0.000 A 
ENDBRANCH   1  19
ENDBRANCH   8   1
TORSDOF 9
ENDMDL
MODEL 5
REMARK VINA RESULT:      -6.0     27.393     30.897
REMARK  Name = 44717029
REMARK  10 active torsions:
REMARK  status: ('A' for Active; 'I' for Inactive)
REMARK    1  A    between atoms: S_1  and  N_8
REMARK    2  A    between atoms: S_1  and  C_19
REMARK    3  A    between atoms: O_6  and  C_25
REMARK    4  A    between atoms: O_6  and  C_37
REMARK    5  A    between atoms: N_10  and  C_20
REMARK    6  A    between atoms: C_13  and  C_17
REMARK    7  A    between atoms: C_18  and  C_21
REMARK    8  A    between atoms: C_20  and  C_22
REMARK    9  A    between atoms: C_20  and  C_25
REMARK   10  A    between atoms: C_22  and  C_26
REMARK                            x       y       z     vdW  Elec       q    Type
REMARK                         _______ _______ _______ _____ _____    ______ ____
ROOT
ATOM      5  O   UNL     1      -9.956 -12.131  16.092  0.00  0.00    -0.270 OA
ATOM      8  N   UNL     1      -6.260 -12.386  12.634  0.00  0.00    -0.162 NA
ATOM      9  N   UNL     1      -8.498 -11.683  14.320  0.00  0.00    -0.294 N 
ATOM     13  C   UNL     1      -6.750 -13.342  13.665  0.00  0.00    +0.183 C 
ATOM     14  C   UNL     1      -8.198 -13.094  14.078  0.00  0.00    +0.138 C 
ATOM     15  C   UNL     1      -7.253 -11.373  12.195  0.00  0.00    +0.129 C 
ATOM     16  C   UNL     1      -7.867 -10.712  13.419  0.00  0.00    +0.125 C 
ATOM     18  C   UNL     1      -9.412 -11.342  15.322  0.00  0.00    +0.248 C 
ENDROOT
BRANCH  18  21
ATOM     11  N   UNL     1     -11.028  -8.008  14.716  0.00  0.00    -0.263 NA
ATOM     21  C   UNL     1      -9.762  -9.921  15.481  0.00  0.00    +0.055 A 
ATOM     29  C   UNL     1      -9.199  -9.152  16.494  0.00  0.00    +0.016 A 
ATOM     30  C   UNL     1     -10.663  -9.307  14.626  0.00  0.00    +0.123 A 
ATOM     33  C   UNL     1      -9.547  -7.813  16.619  0.00  0.00    +0.020 A 
ATOM     35  C   UNL     1     -10.459  -7.293  15.712  0.00  0.00    +0.111 A 
ENDBRANCH  18  21
BRANCH  13  17
ATOM      4  O   UNL     1      -5.948 -13.779  15.867  0.00  0.00    -0.274 OA
ATOM     10  N   UNL     1      -4.841 -12.207  14.555  0.00  0.00    -0.301 N 
ATOM     17  C   UNL     1      -5.816 -13.155  14.818  0.00  0.00    +0.234 C 
ATOM     39  H   UNL     1      -4.769 -11.824  13.617  0.00  0.00    +0.150 HD
BRANCH  10  20
ATOM     20  C   UNL     1      -3.830 -11.825  15.514  0.00  0.00    +0.186 C 
BRANCH  20  25
ATOM      7  O   UNL     1      -1.831 -12.617  14.411  0.00  0.00    -0.249 OA
ATOM     25  C   UNL     1      -2.459 -11.668  14.869  0.00  0.00    +0.328 C 
BRANCH  25   6
ATOM      6  O   UNL     1      -2.030 -10.374  14.884  0.00  0.00    -0.467 OA
ATOM     37  C   UNL     1      -0.835 -10.126  15.632  0.00  0.00    +0.280 C 
ENDBRANCH  25   6
ENDBRANCH  20  25
BRANCH  20  22
ATOM     22  C   UNL     1      -4.239 -10.576  16.308  0.00  0.00    +0.070 C 
BRANCH  22  26
ATOM     12  N   UNL     1      -4.639 -11.920  19.831  0.00  0.00    -0.263 NA
ATOM     26  C   UNL     1      -4.838 -10.859  17.667  0.00  0.00    -0.027 A 
ATOM     32  C   UNL     1      -6.086 -10.358  18.019  0.00  0.00    +0.006 A 
ATOM     34  C   UNL     1      -4.161 -11.628  18.601  0.00  0.00    +0.114 A 
ATOM     36  C   UNL     1      -6.612 -10.637  19.277  0.00  0.00    +0.020 A 
ATOM     38  C   UNL     1      -5.856 -11.416  20.138  0.00  0.00    +0.111 A 
ENDBRANCH  22  26
ENDBRANCH  20  22
ENDBRANCH  10  20
ENDBRANCH  13  17
BRANCH   8   1
ATOM      1  S   UNL     1      -5.241 -13.021  11.416  0.00  0.00    +0.062 S 
ATOM      2  O   UNL     1      -6.056 -13.637  10.391  0.00  0.00    -0.153 OA
ATOM      3  O   UNL     1      -4.156 -13.748  12.041  0.00  0.00    -0.153 OA
BRANCH   1  19
ATOM     19  C   UNL     1      -4.579 -11.524  10.755  0.00  0.00    +0.106 A 
ATOM     23  C   UNL     1      -5.002 -11.065   9.508  0.00  0.00    +0.028 A 
ATOM     24  C   UNL     1      -3.631 -10.800  11.481  0.00  0.00    +0.028 A 
ATOM     27  C   UNL     1      -4.477  -9.882   8.985  0.00  0.00    +0.002 A 
ATOM     28  C   UNL     1      -3.107  -9.618  10.957  0.00  0.00    +0.002 A 
ATOM     31  C   UNL     1      -3.530  -9.160   9.710  0.00  0.00    +0.000 A 
ENDBRANCH   1  19
ENDBRANCH   8   1
TORSDOF 9
ENDMDL
MODEL 6
REMARK VINA RESULT:      -6.0      3.263      8.196
REMARK  Name = 44717029
REMARK  10 active torsions:
REMARK  status: ('A' for Active; 'I' for Inactive)
REMARK    1  A    between atoms: S_1  and  N_8
REMARK    2  A    between atoms: S_1  and  C_19
REMARK    3  A    between atoms: O_6  and  C_25
REMARK    4  A    between atoms: O_6  and  C_37
REMARK    5  A    between atoms: N_10  and  C_20
REMARK    6  A    between atoms: C_13  and  C_17
REMARK    7  A    between atoms: C_18  and  C_21
REMARK    8  A    between atoms: C_20  and  C_22
REMARK    9  A    between atoms: C_20  and  C_25
REMARK   10  A    between atoms: C_22  and  C_26
REMARK                            x       y       z     vdW  Elec       q    Type
REMARK                         _______ _______ _______ _____ _____    ______ ____
ROOT
ATOM      5  O   UNL     1      19.109  10.239  21.856  0.00  0.00    -0.270 OA
ATOM      8  N   UNL     1      14.714   8.636  19.908  0.00  0.00    -0.162 NA
ATOM      9  N   UNL     1      17.430   8.975  20.831  0.00  0.00    -0.294 N 
ATOM     13  C   UNL     1      15.153   9.938  20.481  0.00  0.00    +0.183 C 
ATOM     14  C   UNL     1      16.662  10.148  20.413  0.00  0.00    +0.138 C 
ATOM     15  C   UNL     1      15.808   7.781  19.379  0.00  0.00    +0.129 C 
ATOM     16  C   UNL     1      16.903   7.666  20.428  0.00  0.00    +0.125 C 
ATOM     18  C   UNL     1      18.641   9.157  21.506  0.00  0.00    +0.248 C 
ENDROOT
BRANCH  18  21
ATOM     11  N   UNL     1      20.485   5.914  21.088  0.00  0.00    -0.263 NA
ATOM     21  C   UNL     1      19.435   7.961  21.831  0.00  0.00    +0.055 A 
ATOM     29  C   UNL     1      19.882   7.727  23.128  0.00  0.00    +0.016 A 
ATOM     30  C   UNL     1      19.761   7.031  20.857  0.00  0.00    +0.123 A 
ATOM     33  C   UNL     1      20.629   6.589  23.406  0.00  0.00    +0.020 A 
ATOM     35  C   UNL     1      20.901   5.721  22.360  0.00  0.00    +0.111 A 
ENDBRANCH  18  21
BRANCH  13  17
ATOM      4  O   UNL     1      14.656   8.862  22.549  0.00  0.00    -0.274 OA
ATOM     10  N   UNL     1      14.241  11.143  22.336  0.00  0.00    -0.301 N 
ATOM     17  C   UNL     1      14.670   9.901  21.896  0.00  0.00    +0.234 C 
ATOM     39  H   UNL     1      14.389  11.953  21.742  0.00  0.00    +0.150 HD
BRANCH  10  20
ATOM     20  C   UNL     1      13.707  11.371  23.659  0.00  0.00    +0.186 C 
BRANCH  20  25
ATOM      7  O   UNL     1      13.813  13.100  25.344  0.00  0.00    -0.249 OA
ATOM     25  C   UNL     1      14.118  12.728  24.216  0.00  0.00    +0.328 C 
BRANCH  25   6
ATOM      6  O   UNL     1      14.832  13.458  23.313  0.00  0.00    -0.467 OA
ATOM     37  C   UNL     1      16.064  14.005  23.795  0.00  0.00    +0.280 C 
ENDBRANCH  25   6
ENDBRANCH  20  25
BRANCH  20  22
ATOM     22  C   UNL     1      12.186  11.167  23.705  0.00  0.00    +0.070 C 
BRANCH  22  26
ATOM     12  N   UNL     1       9.779  14.091  23.536  0.00  0.00    -0.263 NA
ATOM     26  C   UNL     1      11.376  12.317  23.151  0.00  0.00    -0.027 A 
ATOM     32  C   UNL     1      11.454  12.668  21.809  0.00  0.00    +0.006 A 
ATOM     34  C   UNL     1      10.531  13.054  23.967  0.00  0.00    +0.114 A 
ATOM     36  C   UNL     1      10.695  13.731  21.328  0.00  0.00    +0.020 A 
ATOM     38  C   UNL     1       9.880  14.403  22.225  0.00  0.00    +0.111 A 
ENDBRANCH  22  26
ENDBRANCH  20  22
ENDBRANCH  10  20
ENDBRANCH  13  17
BRANCH   8   1
ATOM      1  S   UNL     1      13.259   8.639  19.009  0.00  0.00    +0.062 S 
ATOM      2  O   UNL     1      13.337   7.626  17.978  0.00  0.00    -0.153 OA
ATOM      3  O   UNL     1      12.909  10.006  18.684  0.00  0.00    -0.153 OA
BRANCH   1  19
ATOM     19  C   UNL     1      12.132   8.070  20.242  0.00  0.00    +0.106 A 
ATOM     23  C   UNL     1      12.069   6.713  20.559  0.00  0.00    +0.028 A 
ATOM     24  C   UNL     1      11.301   8.979  20.900  0.00  0.00    +0.028 A 
ATOM     27  C   UNL     1      11.176   6.264  21.533  0.00  0.00    +0.002 A 
ATOM     28  C   UNL     1      10.409   8.529  21.874  0.00  0.00    +0.002 A 
ATOM     31  C   UNL     1      10.347   7.172  22.190  0.00  0.00    +0.000 A 
ENDBRANCH   1  19
ENDBRANCH   8   1
TORSDOF 9
ENDMDL
MODEL 7
REMARK VINA RESULT:      -5.8     28.829     31.138
REMARK  Name = 44717029
REMARK  10 active torsions:
REMARK  status: ('A' for Active; 'I' for Inactive)
REMARK    1  A    between atoms: S_1  and  N_8
REMARK    2  A    between atoms: S_1  and  C_19
REMARK    3  A    between atoms: O_6  and  C_25
REMARK    4  A    between atoms: O_6  and  C_37
REMARK    5  A    between atoms: N_10  and  C_20
REMARK    6  A    between atoms: C_13  and  C_17
REMARK    7  A    between atoms: C_18  and  C_21
REMARK    8  A    between atoms: C_20  and  C_22
REMARK    9  A    between atoms: C_20  and  C_25
REMARK   10  A    between atoms: C_22  and  C_26
REMARK                            x       y       z     vdW  Elec       q    Type
REMARK                         _______ _______ _______ _____ _____    ______ ____
ROOT
ATOM      5  O   UNL     1     -10.460  -8.291  17.277  0.00  0.00    -0.270 OA
ATOM      8  N   UNL     1      -6.220 -11.051  17.580  0.00  0.00    -0.162 NA
ATOM      9  N   UNL     1      -8.820  -9.834  17.906  0.00  0.00    -0.294 N 
ATOM     13  C   UNL     1      -6.614  -9.888  16.737  0.00  0.00    +0.183 C 
ATOM     14  C   UNL     1      -7.720  -9.040  17.358  0.00  0.00    +0.138 C 
ATOM     15  C   UNL     1      -6.964 -11.179  18.860  0.00  0.00    +0.129 C 
ATOM     16  C   UNL     1      -8.456 -11.085  18.582  0.00  0.00    +0.125 C 
ATOM     18  C   UNL     1     -10.124  -9.335  17.834  0.00  0.00    +0.248 C 
ENDROOT
BRANCH  18  21
ATOM     11  N   UNL     1     -12.921 -11.797  18.290  0.00  0.00    -0.263 NA
ATOM     21  C   UNL     1     -11.196 -10.113  18.476  0.00  0.00    +0.055 A 
ATOM     29  C   UNL     1     -11.510  -9.930  19.819  0.00  0.00    +0.016 A 
ATOM     30  C   UNL     1     -11.925 -11.050  17.762  0.00  0.00    +0.123 A 
ATOM     33  C   UNL     1     -12.528 -10.678  20.398  0.00  0.00    +0.020 A 
ATOM     35  C   UNL     1     -13.197 -11.590  19.597  0.00  0.00    +0.111 A 
ENDBRANCH  18  21
BRANCH  13  17
ATOM      4  O   UNL     1      -7.411 -11.673  15.373  0.00  0.00    -0.274 OA
ATOM     10  N   UNL     1      -6.988  -9.604  14.391  0.00  0.00    -0.301 N 
ATOM     17  C   UNL     1      -7.056 -10.500  15.446  0.00  0.00    +0.234 C 
ATOM     39  H   UNL     1      -6.772  -8.631  14.586  0.00  0.00    +0.150 HD
BRANCH  10  20
ATOM     20  C   UNL     1      -7.339  -9.954  13.034  0.00  0.00    +0.186 C 
BRANCH  20  25
ATOM      7  O   UNL     1      -9.326 -10.951  12.087  0.00  0.00    -0.249 OA
ATOM     25  C   UNL     1      -8.842 -10.128  12.857  0.00  0.00    +0.328 C 
BRANCH  25   6
ATOM      6  O   UNL     1      -9.553  -9.261  13.632  0.00  0.00    -0.467 OA
ATOM     37  C   UNL     1     -10.794  -9.761  14.143  0.00  0.00    +0.280 C 
ENDBRANCH  25   6
ENDBRANCH  20  25
BRANCH  20  22
ATOM     22  C   UNL     1      -6.751  -8.963  12.018  0.00  0.00    +0.070 C 
BRANCH  22  26
ATOM     12  N   UNL     1      -3.571  -8.915   9.955  0.00  0.00    -0.263 NA
ATOM     26  C   UNL     1      -5.361  -9.305  11.533  0.00  0.00    -0.027 A 
ATOM     32  C   UNL     1      -4.599 -10.279  12.167  0.00  0.00    +0.006 A 
ATOM     34  C   UNL     1      -4.806  -8.657  10.441  0.00  0.00    +0.114 A 
ATOM     36  C   UNL     1      -3.323 -10.573  11.696  0.00  0.00    +0.020 A 
ATOM     38  C   UNL     1      -2.860  -9.869  10.597  0.00  0.00    +0.111 A 
ENDBRANCH  22  26
ENDBRANCH  20  22
ENDBRANCH  10  20
ENDBRANCH  13  17
BRANCH   8   1
ATOM      1  S   UNL     1      -4.555 -11.436  17.634  0.00  0.00    +0.062 S 
ATOM      2  O   UNL     1      -4.214 -11.878  18.970  0.00  0.00    -0.153 OA
ATOM      3  O   UNL     1      -3.805 -10.381  16.986  0.00  0.00    -0.153 OA
BRANCH   1  19
ATOM     19  C   UNL     1      -4.529 -12.848  16.575  0.00  0.00    +0.106 A 
ATOM     23  C   UNL     1      -5.058 -14.061  17.015  0.00  0.00    +0.028 A 
ATOM     24  C   UNL     1      -3.977 -12.750  15.296  0.00  0.00    +0.028 A 
ATOM     27  C   UNL     1      -5.036 -15.177  16.177  0.00  0.00    +0.002 A 
ATOM     28  C   UNL     1      -3.955 -13.866  14.460  0.00  0.00    +0.002 A 
ATOM     31  C   UNL     1      -4.485 -15.079  14.900  0.00  0.00    +0.000 A 
ENDBRANCH   1  19
ENDBRANCH   8   1
TORSDOF 9
ENDMDL
MODEL 8
REMARK VINA RESULT:      -5.7     28.129     31.147
REMARK  Name = 44717029
REMARK  10 active torsions:
REMARK  status: ('A' for Active; 'I' for Inactive)
REMARK    1  A    between atoms: S_1  and  N_8
REMARK    2  A    between atoms: S_1  and  C_19
REMARK    3  A    between atoms: O_6  and  C_25
REMARK    4  A    between atoms: O_6  and  C_37
REMARK    5  A    between atoms: N_10  and  C_20
REMARK    6  A    between atoms: C_13  and  C_17
REMARK    7  A    between atoms: C_18  and  C_21
REMARK    8  A    between atoms: C_20  and  C_22
REMARK    9  A    between atoms: C_20  and  C_25
REMARK   10  A    between atoms: C_22  and  C_26
REMARK                            x       y       z     vdW  Elec       q    Type
REMARK                         _______ _______ _______ _____ _____    ______ ____
ROOT
ATOM      5  O   UNL     1      -1.365  -9.821  11.393  0.00  0.00    -0.270 OA
ATOM      8  N   UNL     1      -4.091 -11.733  15.214  0.00  0.00    -0.162 NA
ATOM      9  N   UNL     1      -3.110 -10.475  12.805  0.00  0.00    -0.294 N 
ATOM     13  C   UNL     1      -2.627 -11.595  14.984  0.00  0.00    +0.183 C 
ATOM     14  C   UNL     1      -2.272 -10.481  14.004  0.00  0.00    +0.138 C 
ATOM     15  C   UNL     1      -4.938 -10.774  14.458  0.00  0.00    +0.129 C 
ATOM     16  C   UNL     1      -4.530 -10.794  12.993  0.00  0.00    +0.125 C 
ATOM     18  C   UNL     1      -2.549 -10.094  11.582  0.00  0.00    +0.248 C 
ENDROOT
BRANCH  18  21
ATOM     11  N   UNL     1      -4.791  -8.649   8.941  0.00  0.00    -0.263 NA
ATOM     21  C   UNL     1      -3.438 -10.009  10.413  0.00  0.00    +0.055 A 
ATOM     29  C   UNL     1      -3.773 -11.145   9.682  0.00  0.00    +0.016 A 
ATOM     30  C   UNL     1      -3.969  -8.797  10.004  0.00  0.00    +0.123 A 
ATOM     33  C   UNL     1      -4.616 -11.035   8.583  0.00  0.00    +0.020 A 
ATOM     35  C   UNL     1      -5.094  -9.775   8.257  0.00  0.00    +0.111 A 
ENDBRANCH  18  21
BRANCH  13  17
ATOM      4  O   UNL     1      -1.143 -13.091  13.869  0.00  0.00    -0.274 OA
ATOM     10  N   UNL     1      -3.150 -13.914  14.715  0.00  0.00    -0.301 N 
ATOM     17  C   UNL     1      -2.206 -12.933  14.464  0.00  0.00    +0.234 C 
ATOM     39  H   UNL     1      -3.949 -13.690  15.300  0.00  0.00    +0.150 HD
BRANCH  10  20
ATOM     20  C   UNL     1      -2.994 -15.288  14.294  0.00  0.00    +0.186 C 
BRANCH  20  25
ATOM      7  O   UNL     1      -4.724 -16.600  15.354  0.00  0.00    -0.249 OA
ATOM     25  C   UNL     1      -3.544 -16.268  15.322  0.00  0.00    +0.328 C 
BRANCH  25   6
ATOM      6  O   UNL     1      -2.582 -16.699  16.185  0.00  0.00    -0.467 OA
ATOM     37  C   UNL     1      -1.332 -17.063  15.589  0.00  0.00    +0.280 C 
ENDBRANCH  25   6
ENDBRANCH  20  25
BRANCH  20  22
ATOM     22  C   UNL     1      -3.584 -15.528  12.897  0.00  0.00    +0.070 C 
BRANCH  22  26
ATOM     12  N   UNL     1      -0.332 -16.672  11.317  0.00  0.00    -0.263 NA
ATOM     26  C   UNL     1      -2.610 -16.091  11.887  0.00  0.00    -0.027 A 
ATOM     32  C   UNL     1      -3.042 -16.535  10.643  0.00  0.00    +0.006 A 
ATOM     34  C   UNL     1      -1.256 -16.181  12.173  0.00  0.00    +0.114 A 
ATOM     36  C   UNL     1      -2.121 -17.047   9.734  0.00  0.00    +0.020 A 
ATOM     38  C   UNL     1      -0.790 -17.093  10.116  0.00  0.00    +0.111 A 
ENDBRANCH  22  26
ENDBRANCH  20  22
ENDBRANCH  10  20
ENDBRANCH  13  17
BRANCH   8   1
ATOM      1  S   UNL     1      -4.592 -12.086  16.810  0.00  0.00    +0.062 S 
ATOM      2  O   UNL     1      -3.722 -11.400  17.742  0.00  0.00    -0.153 OA
ATOM      3  O   UNL     1      -4.832 -13.509  16.925  0.00  0.00    -0.153 OA
BRANCH   1  19
ATOM     19  C   UNL     1      -6.157 -11.269  16.832  0.00  0.00    +0.106 A 
ATOM     23  C   UNL     1      -6.249  -9.947  17.266  0.00  0.00    +0.028 A 
ATOM     24  C   UNL     1      -7.303 -11.948  16.415  0.00  0.00    +0.028 A 
ATOM     27  C   UNL     1      -7.487  -9.303  17.284  0.00  0.00    +0.002 A 
ATOM     28  C   UNL     1      -8.540 -11.304  16.433  0.00  0.00    +0.002 A 
ATOM     31  C   UNL     1      -8.631  -9.981  16.867  0.00  0.00    +0.000 A 
ENDBRANCH   1  19
ENDBRANCH   8   1
TORSDOF 9
ENDMDL
MODEL 9
REMARK VINA RESULT:      -5.6     15.020     18.622
REMARK  Name = 44717029
REMARK  10 active torsions:
REMARK  status: ('A' for Active; 'I' for Inactive)
REMARK    1  A    between atoms: S_1  and  N_8
REMARK    2  A    between atoms: S_1  and  C_19
REMARK    3  A    between atoms: O_6  and  C_25
REMARK    4  A    between atoms: O_6  and  C_37
REMARK    5  A    between atoms: N_10  and  C_20
REMARK    6  A    between atoms: C_13  and  C_17
REMARK    7  A    between atoms: C_18  and  C_21
REMARK    8  A    between atoms: C_20  and  C_22
REMARK    9  A    between atoms: C_20  and  C_25
REMARK   10  A    between atoms: C_22  and  C_26
REMARK                            x       y       z     vdW  Elec       q    Type
REMARK                         _______ _______ _______ _____ _____    ______ ____
ROOT
ATOM      5  O   UNL     1      17.528  -6.577  30.661  0.00  0.00    -0.270 OA
ATOM      8  N   UNL     1      17.811  -5.570  25.703  0.00  0.00    -0.162 NA
ATOM      9  N   UNL     1      17.108  -6.443  28.365  0.00  0.00    -0.294 N 
ATOM     13  C   UNL     1      18.739  -5.322  26.841  0.00  0.00    +0.183 C 
ATOM     14  C   UNL     1      18.518  -6.271  28.015  0.00  0.00    +0.138 C 
ATOM     15  C   UNL     1      16.847  -6.681  25.908  0.00  0.00    +0.129 C 
ATOM     16  C   UNL     1      16.156  -6.501  27.251  0.00  0.00    +0.125 C 
ATOM     18  C   UNL     1      16.754  -6.620  29.707  0.00  0.00    +0.248 C 
ENDROOT
BRANCH  18  21
ATOM     11  N   UNL     1      13.562  -8.485  30.359  0.00  0.00    -0.263 NA
ATOM     21  C   UNL     1      15.340  -6.882  30.017  0.00  0.00    +0.055 A 
ATOM     29  C   UNL     1      14.453  -5.837  30.258  0.00  0.00    +0.016 A 
ATOM     30  C   UNL     1      14.848  -8.175  30.079  0.00  0.00    +0.123 A 
ATOM     33  C   UNL     1      13.123  -6.114  30.548  0.00  0.00    +0.020 A 
ATOM     35  C   UNL     1      12.731  -7.443  30.586  0.00  0.00    +0.111 A 
ENDBRANCH  18  21
BRANCH  13  17
ATOM      4  O   UNL     1      17.533  -3.267  26.768  0.00  0.00    -0.274 OA
ATOM     10  N   UNL     1      19.417  -3.423  28.127  0.00  0.00    -0.301 N 
ATOM     17  C   UNL     1      18.476  -3.903  27.231  0.00  0.00    +0.234 C 
ATOM     39  H   UNL     1      20.098  -4.067  28.517  0.00  0.00    +0.150 HD
BRANCH  10  20
ATOM     20  C   UNL     1      19.401  -2.073  28.643  0.00  0.00    +0.186 C 
BRANCH  20  25
ATOM      7  O   UNL     1      18.640  -0.965  30.651  0.00  0.00    -0.249 OA
ATOM     25  C   UNL     1      18.611  -1.964  29.940  0.00  0.00    +0.328 C 
BRANCH  25   6
ATOM      6  O   UNL     1      17.902  -3.097  30.205  0.00  0.00    -0.467 OA
ATOM     37  C   UNL     1      16.490  -2.922  30.365  0.00  0.00    +0.280 C 
ENDBRANCH  25   6
ENDBRANCH  20  25
BRANCH  20  22
ATOM     22  C   UNL     1      20.818  -1.498  28.782  0.00  0.00    +0.070 C 
BRANCH  22  26
ATOM     12  N   UNL     1      22.891   0.839  26.633  0.00  0.00    -0.263 NA
ATOM     26  C   UNL     1      21.310  -0.729  27.577  0.00  0.00    -0.027 A 
ATOM     32  C   UNL     1      20.683  -0.851  26.343  0.00  0.00    +0.006 A 
ATOM     34  C   UNL     1      22.401   0.122  27.669  0.00  0.00    +0.114 A 
ATOM     36  C   UNL     1      21.158  -0.129  25.253  0.00  0.00    +0.020 A 
ATOM     38  C   UNL     1      22.255   0.695  25.448  0.00  0.00    +0.111 A 
ENDBRANCH  22  26
ENDBRANCH  20  22
ENDBRANCH  10  20
ENDBRANCH  13  17
BRANCH   8   1
ATOM      1  S   UNL     1      18.464  -5.418  24.129  0.00  0.00    +0.062 S 
ATOM      2  O   UNL     1      17.920  -6.463  23.289  0.00  0.00    -0.153 OA
ATOM      3  O   UNL     1      19.893  -5.212  24.229  0.00  0.00    -0.153 OA
BRANCH   1  19
ATOM     19  C   UNL     1      17.730  -3.890  23.635  0.00  0.00    +0.106 A 
ATOM     23  C   UNL     1      18.520  -2.752  23.485  0.00  0.00    +0.028 A 
ATOM     24  C   UNL     1      16.356  -3.823  23.397  0.00  0.00    +0.028 A 
ATOM     27  C   UNL     1      17.939  -1.544  23.096  0.00  0.00    +0.002 A 
ATOM     28  C   UNL     1      15.775  -2.615  23.008  0.00  0.00    +0.002 A 
ATOM     31  C   UNL     1      16.567  -1.477  22.858  0.00  0.00    +0.000 A 
ENDBRANCH   1  19
ENDBRANCH   8   1
TORSDOF 9
ENDMDL
MODEL 10
REMARK VINA RESULT:      -5.6     28.246     31.203
REMARK  Name = 44717029
REMARK  10 active torsions:
REMARK  status: ('A' for Active; 'I' for Inactive)
REMARK    1  A    between atoms: S_1  and  N_8
REMARK    2  A    between atoms: S_1  and  C_19
REMARK    3  A    between atoms: O_6  and  C_25
REMARK    4  A    between atoms: O_6  and  C_37
REMARK    5  A    between atoms: N_10  and  C_20
REMARK    6  A    between atoms: C_13  and  C_17
REMARK    7  A    between atoms: C_18  and  C_21
REMARK    8  A    between atoms: C_20  and  C_22
REMARK    9  A    between atoms: C_20  and  C_25
REMARK   10  A    between atoms: C_22  and  C_26
REMARK                            x       y       z     vdW  Elec       q    Type
REMARK                         _______ _______ _______ _____ _____    ______ ____
ROOT
ATOM      5  O   UNL     1      -1.440  -9.978  11.466  0.00  0.00    -0.270 OA
ATOM      8  N   UNL     1      -4.184 -11.764  15.334  0.00  0.00    -0.162 NA
ATOM      9  N   UNL     1      -3.181 -10.509  12.933  0.00  0.00    -0.294 N 
ATOM     13  C   UNL     1      -2.724 -11.770  15.040  0.00  0.00    +0.183 C 
ATOM     14  C   UNL     1      -2.297 -10.655  14.089  0.00  0.00    +0.138 C 
ATOM     15  C   UNL     1      -4.957 -10.689  14.659  0.00  0.00    +0.129 C 
ATOM     16  C   UNL     1      -4.617 -10.686  13.177  0.00  0.00    +0.125 C 
ATOM     18  C   UNL     1      -2.637 -10.135  11.701  0.00  0.00    +0.248 C 
ENDROOT
BRANCH  18  21
ATOM     11  N   UNL     1      -4.709 -10.775   8.636  0.00  0.00    -0.263 NA
ATOM     21  C   UNL     1      -3.563  -9.905  10.580  0.00  0.00    +0.055 A 
ATOM     29  C   UNL     1      -4.160  -8.664  10.385  0.00  0.00    +0.016 A 
ATOM     30  C   UNL     1      -3.868 -10.918   9.685  0.00  0.00    +0.123 A 
ATOM     33  C   UNL     1      -5.030  -8.476   9.317  0.00  0.00    +0.020 A 
ATOM     35  C   UNL     1      -5.269  -9.555   8.479  0.00  0.00    +0.111 A 
ENDBRANCH  18  21
BRANCH  13  17
ATOM      4  O   UNL     1      -1.409 -13.395  13.896  0.00  0.00    -0.274 OA
ATOM     10  N   UNL     1      -3.561 -13.963  14.580  0.00  0.00    -0.301 N 
ATOM     17  C   UNL     1      -2.471 -13.119  14.447  0.00  0.00    +0.234 C 
ATOM     39  H   UNL     1      -4.352 -13.660  15.140  0.00  0.00    +0.150 HD
BRANCH  10  20
ATOM     20  C   UNL     1      -3.580 -15.315  14.071  0.00  0.00    +0.186 C 
BRANCH  20  25
ATOM      7  O   UNL     1      -3.314 -16.414  16.206  0.00  0.00    -0.249 OA
ATOM     25  C   UNL     1      -2.946 -16.303  15.041  0.00  0.00    +0.328 C 
BRANCH  25   6
ATOM      6  O   UNL     1      -1.935 -17.011  14.465  0.00  0.00    -0.467 OA
ATOM     37  C   UNL     1      -0.710 -17.057  15.204  0.00  0.00    +0.280 C 
ENDBRANCH  25   6
ENDBRANCH  20  25
BRANCH  20  22
ATOM     22  C   UNL     1      -4.993 -15.748  13.651  0.00  0.00    +0.070 C 
BRANCH  22  26
ATOM     12  N   UNL     1      -6.177 -13.378  10.938  0.00  0.00    -0.263 NA
ATOM     26  C   UNL     1      -5.795 -14.682  12.938  0.00  0.00    -0.027 A 
ATOM     32  C   UNL     1      -6.847 -14.032  13.572  0.00  0.00    +0.006 A 
ATOM     34  C   UNL     1      -5.502 -14.322  11.632  0.00  0.00    +0.114 A 
ATOM     36  C   UNL     1      -7.565 -13.055  12.891  0.00  0.00    +0.020 A 
ATOM     38  C   UNL     1      -7.193 -12.767  11.587  0.00  0.00    +0.111 A 
ENDBRANCH  22  26
ENDBRANCH  20  22
ENDBRANCH  10  20
ENDBRANCH  13  17
BRANCH   8   1
ATOM      1  S   UNL     1      -4.649 -12.134  16.938  0.00  0.00    +0.062 S 
ATOM      2  O   UNL     1      -3.790 -11.418  17.857  0.00  0.00    -0.153 OA
ATOM      3  O   UNL     1      -4.837 -13.564  17.057  0.00  0.00    -0.153 OA
BRANCH   1  19
ATOM     19  C   UNL     1      -6.241 -11.373  16.982  0.00  0.00    +0.106 A 
ATOM     23  C   UNL     1      -6.375 -10.059  17.428  0.00  0.00    +0.028 A 
ATOM     24  C   UNL     1      -7.367 -12.089  16.571  0.00  0.00    +0.028 A 
ATOM     27  C   UNL     1      -7.635  -9.459  17.464  0.00  0.00    +0.002 A 
ATOM     28  C   UNL     1      -8.626 -11.488  16.607  0.00  0.00    +0.002 A 
ATOM     31  C   UNL     1      -8.759 -10.173  17.053  0.00  0.00    +0.000 A 
ENDBRANCH   1  19
ENDBRANCH   8   1
TORSDOF 9
ENDMDL
