MODEL 1
REMARK VINA RESULT:      -6.4      0.000      0.000
REMARK  Name = 7127944
REMARK  12 active torsions:
REMARK  status: ('A' for Active; 'I' for Inactive)
REMARK    1  A    between atoms: S_1  and  C_20
REMARK    2  A    between atoms: S_1  and  C_31
REMARK    3  A    between atoms: N_7  and  C_12
REMARK    4  A    between atoms: N_8  and  C_18
REMARK    5  A    between atoms: N_9  and  C_24
REMARK    6  A    between atoms: C_13  and  C_16
REMARK    7  A    between atoms: C_17  and  C_20
REMARK    8  A    between atoms: C_18  and  C_21
REMARK    9  A    between atoms: C_18  and  C_23
REMARK   10  A    between atoms: C_21  and  C_22
REMARK   11  A    between atoms: C_24  and  C_29
REMARK   12  A    between atoms: C_24  and  C_30
REMARK                            x       y       z     vdW  Elec       q    Type
REMARK                         _______ _______ _______ _____ _____    ______ ____
ROOT
ATOM      2  O   UNL     1      14.793  10.438  23.074  0.00  0.00    -0.274 OA
ATOM      8  N   UNL     1      12.997  11.905  23.267  0.00  0.00    -0.302 N 
ATOM     16  C   UNL     1      14.338  11.573  23.178  0.00  0.00    +0.234 C 
ATOM     36  H   UNL     1      12.742  12.873  23.446  0.00  0.00    +0.150 HD
ENDROOT
BRANCH  16  13
ATOM      3  O   UNL     1      14.129  13.447  25.761  0.00  0.00    -0.275 OA
ATOM      6  N   UNL     1      15.939  12.817  24.464  0.00  0.00    -0.287 N 
ATOM     12  C   UNL     1      17.500  12.045  22.848  0.00  0.00    +0.094 C 
ATOM     13  C   UNL     1      15.224  12.781  23.197  0.00  0.00    +0.164 C 
ATOM     14  C   UNL     1      16.313  12.695  22.130  0.00  0.00    +0.055 C 
ATOM     15  C   UNL     1      17.366  12.550  24.282  0.00  0.00    +0.131 C 
ATOM     17  C   UNL     1      15.336  13.232  25.642  0.00  0.00    +0.226 C 
BRANCH  12   7
ATOM      4  O   UNL     1      18.759  10.350  20.881  0.00  0.00    -0.253 OA
ATOM      7  N   UNL     1      17.446  10.607  22.779  0.00  0.00    -0.295 N 
ATOM      9  N   UNL     1      17.872   8.498  21.959  0.00  0.00    -0.297 N 
ATOM     19  C   UNL     1      18.088   9.863  21.790  0.00  0.00    +0.300 C 
ATOM     35  H   UNL     1      16.962  10.101  23.514  0.00  0.00    +0.151 HD
ATOM     37  H   UNL     1      17.361   8.188  22.781  0.00  0.00    +0.150 HD
BRANCH   9  24
ATOM     24  C   UNL     1      18.424   7.501  21.072  0.00  0.00    +0.068 C 
ATOM     29  C   UNL     1      19.429   6.626  21.810  0.00  0.00    +0.027 C 
ATOM     30  C   UNL     1      17.310   6.664  20.457  0.00  0.00    +0.027 C 
ENDBRANCH   9  24
ENDBRANCH  12   7
BRANCH  17  20
ATOM     20  C   UNL     1      16.259  13.400  26.822  0.00  0.00    +0.164 C 
BRANCH  20   1
ATOM      1  S   UNL     1      16.045  11.970  27.893  0.00  0.00    -0.155 S 
ATOM     31  C   UNL     1      14.857  12.673  29.064  0.00  0.00    +0.085 C 
ENDBRANCH  20   1
ENDBRANCH  17  20
ENDBRANCH  16  13
BRANCH   8  18
ATOM     18  C   UNL     1      11.936  10.924  23.248  0.00  0.00    +0.163 C 
BRANCH  18  23
ATOM      5  O   UNL     1      10.943  10.915  25.465  0.00  0.00    -0.274 OA
ATOM     11  N   UNL     1      10.023  12.270  23.854  0.00  0.00    -0.328 N 
ATOM     23  C   UNL     1      10.927  11.334  24.310  0.00  0.00    +0.231 C 
ATOM     39  H   UNL     1       9.303  12.641  24.467  0.00  0.00    +0.145 HD
ATOM     40  H   UNL     1      10.037  12.624  22.903  0.00  0.00    +0.145 HD
ENDBRANCH  18  23
BRANCH  18  21
ATOM     21  C   UNL     1      11.259  10.828  21.874  0.00  0.00    +0.069 C 
BRANCH  21  22
ATOM     10  N   UNL     1      11.262   7.401  20.542  0.00  0.00    -0.360 N 
ATOM     22  C   UNL     1      11.498   9.511  21.191  0.00  0.00    -0.020 A 
ATOM     25  C   UNL     1      12.565   9.197  20.303  0.00  0.00    +0.003 A 
ATOM     26  C   UNL     1      10.714   8.388  21.318  0.00  0.00    +0.087 A 
ATOM     27  C   UNL     1      12.393   7.868  19.911  0.00  0.00    +0.047 A 
ATOM     28  C   UNL     1      13.663   9.919  19.794  0.00  0.00    +0.010 A 
ATOM     32  C   UNL     1      13.269   7.222  19.031  0.00  0.00    +0.026 A 
ATOM     33  C   UNL     1      14.547   9.284  18.914  0.00  0.00    +0.001 A 
ATOM     34  C   UNL     1      14.351   7.958  18.539  0.00  0.00    +0.002 A 
ATOM     38  H   UNL     1      10.891   6.467  20.446  0.00  0.00    +0.165 HD
ENDBRANCH  21  22
ENDBRANCH  18  21
ENDBRANCH   8  18
TORSDOF 9
ENDMDL
MODEL 2
REMARK VINA RESULT:      -6.3     28.235     30.936
REMARK  Name = 7127944
REMARK  12 active torsions:
REMARK  status: ('A' for Active; 'I' for Inactive)
REMARK    1  A    between atoms: S_1  and  C_20
REMARK    2  A    between atoms: S_1  and  C_31
REMARK    3  A    between atoms: N_7  and  C_12
REMARK    4  A    between atoms: N_8  and  C_18
REMARK    5  A    between atoms: N_9  and  C_24
REMARK    6  A    between atoms: C_13  and  C_16
REMARK    7  A    between atoms: C_17  and  C_20
REMARK    8  A    between atoms: C_18  and  C_21
REMARK    9  A    between atoms: C_18  and  C_23
REMARK   10  A    between atoms: C_21  and  C_22
REMARK   11  A    between atoms: C_24  and  C_29
REMARK   12  A    between atoms: C_24  and  C_30
REMARK                            x       y       z     vdW  Elec       q    Type
REMARK                         _______ _______ _______ _____ _____    ______ ____
ROOT
ATOM      2  O   UNL     1      -6.270  -9.660  15.239  0.00  0.00    -0.274 OA
ATOM      8  N   UNL     1      -6.325 -11.129  17.044  0.00  0.00    -0.302 N 
ATOM     16  C   UNL     1      -6.876 -10.415  15.994  0.00  0.00    +0.234 C 
ATOM     36  H   UNL     1      -6.942 -11.649  17.661  0.00  0.00    +0.150 HD
ENDROOT
BRANCH  16  13
ATOM      3  O   UNL     1      -8.842  -8.417  17.536  0.00  0.00    -0.275 OA
ATOM      6  N   UNL     1      -9.002  -9.433  15.462  0.00  0.00    -0.287 N 
ATOM     12  C   UNL     1      -8.851 -10.730  13.478  0.00  0.00    +0.094 C 
ATOM     13  C   UNL     1      -8.344 -10.674  15.840  0.00  0.00    +0.164 C 
ATOM     14  C   UNL     1      -8.625 -11.639  14.690  0.00  0.00    +0.055 C 
ATOM     15  C   UNL     1      -9.489  -9.483  14.083  0.00  0.00    +0.131 C 
ATOM     17  C   UNL     1      -9.269  -8.428  16.381  0.00  0.00    +0.226 C 
BRANCH  12   7
ATOM      4  O   UNL     1      -8.551  -9.585  10.846  0.00  0.00    -0.253 OA
ATOM      7  N   UNL     1      -7.617 -10.425  12.799  0.00  0.00    -0.295 N 
ATOM      9  N   UNL     1      -6.247  -9.678  11.106  0.00  0.00    -0.297 N 
ATOM     19  C   UNL     1      -7.562  -9.869  11.521  0.00  0.00    +0.300 C 
ATOM     35  H   UNL     1      -6.740 -10.572  13.290  0.00  0.00    +0.151 HD
ATOM     37  H   UNL     1      -5.499  -9.879  11.763  0.00  0.00    +0.150 HD
BRANCH   9  24
ATOM     24  C   UNL     1      -5.906  -9.117   9.820  0.00  0.00    +0.068 C 
ATOM     29  C   UNL     1      -4.832  -8.047   9.972  0.00  0.00    +0.027 C 
ATOM     30  C   UNL     1      -5.459 -10.216   8.864  0.00  0.00    +0.027 C 
ENDBRANCH   9  24
ENDBRANCH  12   7
BRANCH  17  20
ATOM     20  C   UNL     1     -10.128  -7.296  15.876  0.00  0.00    +0.164 C 
BRANCH  20   1
ATOM      1  S   UNL     1     -11.821  -7.623  16.390  0.00  0.00    -0.155 S 
ATOM     31  C   UNL     1     -12.641  -6.252  15.540  0.00  0.00    +0.085 C 
ENDBRANCH  20   1
ENDBRANCH  17  20
ENDBRANCH  16  13
BRANCH   8  18
ATOM     18  C   UNL     1      -4.922 -11.072  17.389  0.00  0.00    +0.163 C 
BRANCH  18  23
ATOM      5  O   UNL     1      -5.668 -11.238  19.695  0.00  0.00    -0.274 OA
ATOM     11  N   UNL     1      -3.648 -12.171  19.123  0.00  0.00    -0.328 N 
ATOM     23  C   UNL     1      -4.805 -11.471  18.852  0.00  0.00    +0.231 C 
ATOM     39  H   UNL     1      -3.452 -12.510  20.060  0.00  0.00    +0.145 HD
ATOM     40  H   UNL     1      -2.955 -12.376  18.411  0.00  0.00    +0.145 HD
ENDBRANCH  18  23
BRANCH  18  21
ATOM     21  C   UNL     1      -4.070 -11.996  16.510  0.00  0.00    +0.069 C 
BRANCH  21  22
ATOM     10  N   UNL     1      -1.519  -9.922  14.866  0.00  0.00    -0.360 N 
ATOM     22  C   UNL     1      -3.142 -11.249  15.594  0.00  0.00    -0.020 A 
ATOM     25  C   UNL     1      -3.146 -11.281  14.172  0.00  0.00    +0.003 A 
ATOM     26  C   UNL     1      -2.131 -10.405  15.992  0.00  0.00    +0.087 A 
ATOM     27  C   UNL     1      -2.119 -10.441  13.740  0.00  0.00    +0.047 A 
ATOM     28  C   UNL     1      -3.928 -11.948  13.208  0.00  0.00    +0.010 A 
ATOM     32  C   UNL     1      -1.833 -10.232  12.386  0.00  0.00    +0.026 A 
ATOM     33  C   UNL     1      -3.653 -11.748  11.849  0.00  0.00    +0.001 A 
ATOM     34  C   UNL     1      -2.621 -10.903  11.448  0.00  0.00    +0.002 A 
ATOM     38  H   UNL     1      -0.741  -9.278  14.861  0.00  0.00    +0.165 HD
ENDBRANCH  21  22
ENDBRANCH  18  21
ENDBRANCH   8  18
TORSDOF 9
ENDMDL
MODEL 3
REMARK VINA RESULT:      -6.1     16.183     18.652
REMARK  Name = 7127944
REMARK  12 active torsions:
REMARK  status: ('A' for Active; 'I' for Inactive)
REMARK    1  A    between atoms: S_1  and  C_20
REMARK    2  A    between atoms: S_1  and  C_31
REMARK    3  A    between atoms: N_7  and  C_12
REMARK    4  A    between atoms: N_8  and  C_18
REMARK    5  A    between atoms: N_9  and  C_24
REMARK    6  A    between atoms: C_13  and  C_16
REMARK    7  A    between atoms: C_17  and  C_20
REMARK    8  A    between atoms: C_18  and  C_21
REMARK    9  A    between atoms: C_18  and  C_23
REMARK   10  A    between atoms: C_21  and  C_22
REMARK   11  A    between atoms: C_24  and  C_29
REMARK   12  A    between atoms: C_24  and  C_30
REMARK                            x       y       z     vdW  Elec       q    Type
REMARK                         _______ _______ _______ _____ _____    ______ ____
ROOT
ATOM      2  O   UNL     1      12.613   8.238   3.754  0.00  0.00    -0.274 OA
ATOM      8  N   UNL     1      12.045   6.091   4.451  0.00  0.00    -0.302 N 
ATOM     16  C   UNL     1      12.722   7.296   4.534  0.00  0.00    +0.234 C 
ATOM     36  H   UNL     1      12.286   5.347   5.100  0.00  0.00    +0.150 HD
ENDROOT
BRANCH  16  13
ATOM      3  O   UNL     1      15.860   7.070   3.958  0.00  0.00    -0.275 OA
ATOM      6  N   UNL     1      14.665   8.343   5.478  0.00  0.00    -0.287 N 
ATOM     12  C   UNL     1      13.114   9.383   6.946  0.00  0.00    +0.094 C 
ATOM     13  C   UNL     1      13.625   7.358   5.729  0.00  0.00    +0.164 C 
ATOM     14  C   UNL     1      12.884   7.869   6.963  0.00  0.00    +0.055 C 
ATOM     15  C   UNL     1      14.501   9.525   6.326  0.00  0.00    +0.131 C 
ATOM     17  C   UNL     1      15.754   8.077   4.661  0.00  0.00    +0.226 C 
BRANCH  12   7
ATOM      4  O   UNL     1      10.431  10.044   7.778  0.00  0.00    -0.253 OA
ATOM      7  N   UNL     1      12.109  10.069   6.173  0.00  0.00    -0.295 N 
ATOM      9  N   UNL     1      10.065  11.019   5.705  0.00  0.00    -0.297 N 
ATOM     19  C   UNL     1      10.831  10.350   6.655  0.00  0.00    +0.300 C 
ATOM     35  H   UNL     1      12.354  10.413   5.250  0.00  0.00    +0.151 HD
ATOM     37  H   UNL     1      10.507  11.289   4.831  0.00  0.00    +0.150 HD
BRANCH   9  24
ATOM     24  C   UNL     1       8.701  11.429   5.945  0.00  0.00    +0.068 C 
ATOM     29  C   UNL     1       8.608  12.946   6.039  0.00  0.00    +0.027 C 
ATOM     30  C   UNL     1       7.785  10.885   4.856  0.00  0.00    +0.027 C 
ENDBRANCH   9  24
ENDBRANCH  12   7
BRANCH  17  20
ATOM     20  C   UNL     1      16.840   9.123   4.661  0.00  0.00    +0.164 C 
BRANCH  20   1
ATOM      1  S   UNL     1      18.256   8.442   3.785  0.00  0.00    -0.155 S 
ATOM     31  C   UNL     1      19.356   8.176   5.198  0.00  0.00    +0.085 C 
ENDBRANCH  20   1
ENDBRANCH  17  20
ENDBRANCH  16  13
BRANCH   8  18
ATOM     18  C   UNL     1      11.097   5.786   3.403  0.00  0.00    +0.163 C 
BRANCH  18  23
ATOM      5  O   UNL     1      11.008   3.683   2.191  0.00  0.00    -0.274 OA
ATOM     11  N   UNL     1      13.019   4.785   2.333  0.00  0.00    -0.328 N 
ATOM     23  C   UNL     1      11.674   4.631   2.600  0.00  0.00    +0.231 C 
ATOM     39  H   UNL     1      13.525   4.091   1.792  0.00  0.00    +0.145 HD
ATOM     40  H   UNL     1      13.551   5.585   2.658  0.00  0.00    +0.145 HD
ENDBRANCH  18  23
BRANCH  18  21
ATOM     21  C   UNL     1       9.716   5.417   3.959  0.00  0.00    +0.069 C 
BRANCH  21  22
ATOM     10  N   UNL     1       8.793   7.670   6.714  0.00  0.00    -0.360 N 
ATOM     22  C   UNL     1       9.397   6.111   5.253  0.00  0.00    -0.020 A 
ATOM     25  C   UNL     1       9.472   5.550   6.558  0.00  0.00    +0.003 A 
ATOM     26  C   UNL     1       8.977   7.415   5.381  0.00  0.00    +0.087 A 
ATOM     27  C   UNL     1       9.088   6.548   7.456  0.00  0.00    +0.047 A 
ATOM     28  C   UNL     1       9.830   4.284   7.063  0.00  0.00    +0.010 A 
ATOM     32  C   UNL     1       9.046   6.343   8.839  0.00  0.00    +0.026 A 
ATOM     33  C   UNL     1       9.792   4.065   8.445  0.00  0.00    +0.001 A 
ATOM     34  C   UNL     1       9.405   5.079   9.317  0.00  0.00    +0.002 A 
ATOM     38  H   UNL     1       8.487   8.552   7.098  0.00  0.00    +0.165 HD
ENDBRANCH  21  22
ENDBRANCH  18  21
ENDBRANCH   8  18
TORSDOF 9
ENDMDL
MODEL 4
REMARK VINA RESULT:      -6.1     28.821     31.246
REMARK  Name = 7127944
REMARK  12 active torsions:
REMARK  status: ('A' for Active; 'I' for Inactive)
REMARK    1  A    between atoms: S_1  and  C_20
REMARK    2  A    between atoms: S_1  and  C_31
REMARK    3  A    between atoms: N_7  and  C_12
REMARK    4  A    between atoms: N_8  and  C_18
REMARK    5  A    between atoms: N_9  and  C_24
REMARK    6  A    between atoms: C_13  and  C_16
REMARK    7  A    between atoms: C_17  and  C_20
REMARK    8  A    between atoms: C_18  and  C_21
REMARK    9  A    between atoms: C_18  and  C_23
REMARK   10  A    between atoms: C_21  and  C_22
REMARK   11  A    between atoms: C_24  and  C_29
REMARK   12  A    between atoms: C_24  and  C_30
REMARK                            x       y       z     vdW  Elec       q    Type
REMARK                         _______ _______ _______ _____ _____    ______ ____
ROOT
ATOM      2  O   UNL     1      -7.055  -9.440  16.103  0.00  0.00    -0.274 OA
ATOM      8  N   UNL     1      -7.695 -11.191  17.496  0.00  0.00    -0.302 N 
ATOM     16  C   UNL     1      -7.903 -10.213  16.539  0.00  0.00    +0.234 C 
ATOM     36  H   UNL     1      -8.495 -11.710  17.849  0.00  0.00    +0.150 HD
ENDROOT
BRANCH  16  13
ATOM      3  O   UNL     1      -9.745  -7.813  17.578  0.00  0.00    -0.275 OA
ATOM      6  N   UNL     1      -9.615  -8.870  15.523  0.00  0.00    -0.287 N 
ATOM     12  C   UNL     1      -9.263 -10.258  13.627  0.00  0.00    +0.094 C 
ATOM     13  C   UNL     1      -9.317 -10.196  16.043  0.00  0.00    +0.164 C 
ATOM     14  C   UNL     1      -9.506 -11.139  14.856  0.00  0.00    +0.055 C 
ATOM     15  C   UNL     1      -9.769  -8.887  14.068  0.00  0.00    +0.131 C 
ATOM     17  C   UNL     1      -9.886  -7.793  16.355  0.00  0.00    +0.226 C 
BRANCH  12   7
ATOM      4  O   UNL     1      -8.173  -9.955  10.973  0.00  0.00    -0.253 OA
ATOM      7  N   UNL     1      -7.871 -10.223  13.259  0.00  0.00    -0.295 N 
ATOM      9  N   UNL     1      -6.038 -10.071  11.873  0.00  0.00    -0.297 N 
ATOM     19  C   UNL     1      -7.429 -10.072  11.946  0.00  0.00    +0.300 C 
ATOM     35  H   UNL     1      -7.171 -10.257  13.994  0.00  0.00    +0.151 HD
ATOM     37  H   UNL     1      -5.510 -10.103  12.741  0.00  0.00    +0.150 HD
BRANCH   9  24
ATOM     24  C   UNL     1      -5.319  -9.930  10.630  0.00  0.00    +0.068 C 
ATOM     29  C   UNL     1      -4.709  -8.539  10.519  0.00  0.00    +0.027 C 
ATOM     30  C   UNL     1      -4.252 -11.011  10.510  0.00  0.00    +0.027 C 
ENDBRANCH   9  24
ENDBRANCH  12   7
BRANCH  17  20
ATOM     20  C   UNL     1     -10.368  -6.542  15.664  0.00  0.00    +0.164 C 
BRANCH  20   1
ATOM      1  S   UNL     1     -12.151  -6.450  15.881  0.00  0.00    -0.155 S 
ATOM     31  C   UNL     1     -12.570  -5.540  14.373  0.00  0.00    +0.085 C 
ENDBRANCH  20   1
ENDBRANCH  17  20
ENDBRANCH  16  13
BRANCH   8  18
ATOM     18  C   UNL     1      -6.412 -11.430  18.117  0.00  0.00    +0.163 C 
BRANCH  18  23
ATOM      5  O   UNL     1      -6.068 -11.031  20.489  0.00  0.00    -0.274 OA
ATOM     11  N   UNL     1      -7.680 -12.539  19.851  0.00  0.00    -0.328 N 
ATOM     23  C   UNL     1      -6.666 -11.636  19.603  0.00  0.00    +0.231 C 
ATOM     39  H   UNL     1      -7.961 -12.757  20.801  0.00  0.00    +0.145 HD
ATOM     40  H   UNL     1      -8.181 -13.013  19.107  0.00  0.00    +0.145 HD
ENDBRANCH  18  23
BRANCH  18  21
ATOM     21  C   UNL     1      -5.696 -12.648  17.521  0.00  0.00    +0.069 C 
BRANCH  21  22
ATOM     10  N   UNL     1      -4.860 -12.373  13.951  0.00  0.00    -0.360 N 
ATOM     22  C   UNL     1      -5.127 -12.387  16.155  0.00  0.00    -0.020 A 
ATOM     25  C   UNL     1      -3.938 -11.665  15.855  0.00  0.00    +0.003 A 
ATOM     26  C   UNL     1      -5.672 -12.809  14.965  0.00  0.00    +0.087 A 
ATOM     27  C   UNL     1      -3.794 -11.672  14.467  0.00  0.00    +0.047 A 
ATOM     28  C   UNL     1      -2.968 -11.005  16.635  0.00  0.00    +0.010 A 
ATOM     32  C   UNL     1      -2.723 -11.048  13.816  0.00  0.00    +0.026 A 
ATOM     33  C   UNL     1      -1.891 -10.377  15.997  0.00  0.00    +0.001 A 
ATOM     34  C   UNL     1      -1.773 -10.399  14.610  0.00  0.00    +0.002 A 
ATOM     38  H   UNL     1      -5.021 -12.542  12.968  0.00  0.00    +0.165 HD
ENDBRANCH  21  22
ENDBRANCH  18  21
ENDBRANCH   8  18
TORSDOF 9
ENDMDL
MODEL 5
REMARK VINA RESULT:      -5.9     18.481     22.111
REMARK  Name = 7127944
REMARK  12 active torsions:
REMARK  status: ('A' for Active; 'I' for Inactive)
REMARK    1  A    between atoms: S_1  and  C_20
REMARK    2  A    between atoms: S_1  and  C_31
REMARK    3  A    between atoms: N_7  and  C_12
REMARK    4  A    between atoms: N_8  and  C_18
REMARK    5  A    between atoms: N_9  and  C_24
REMARK    6  A    between atoms: C_13  and  C_16
REMARK    7  A    between atoms: C_17  and  C_20
REMARK    8  A    between atoms: C_18  and  C_21
REMARK    9  A    between atoms: C_18  and  C_23
REMARK   10  A    between atoms: C_21  and  C_22
REMARK   11  A    between atoms: C_24  and  C_29
REMARK   12  A    between atoms: C_24  and  C_30
REMARK                            x       y       z     vdW  Elec       q    Type
REMARK                         _______ _______ _______ _____ _____    ______ ____
ROOT
ATOM      2  O   UNL     1      12.895   5.906   2.407  0.00  0.00    -0.274 OA
ATOM      8  N   UNL     1      10.579   5.683   2.415  0.00  0.00    -0.302 N 
ATOM     16  C   UNL     1      11.874   5.276   2.147  0.00  0.00    +0.234 C 
ATOM     36  H   UNL     1       9.806   5.121   2.069  0.00  0.00    +0.150 HD
ENDROOT
BRANCH  16  13
ATOM      3  O   UNL     1       9.633   4.672  -0.054  0.00  0.00    -0.275 OA
ATOM      6  N   UNL     1      11.872   4.093   0.057  0.00  0.00    -0.287 N 
ATOM     12  C   UNL     1      14.137   3.611   0.586  0.00  0.00    +0.094 C 
ATOM     13  C   UNL     1      11.922   3.924   1.501  0.00  0.00    +0.164 C 
ATOM     14  C   UNL     1      13.251   3.221   1.772  0.00  0.00    +0.055 C 
ATOM     15  C   UNL     1      13.147   3.742  -0.568  0.00  0.00    +0.131 C 
ATOM     17  C   UNL     1      10.691   4.379  -0.613  0.00  0.00    +0.226 C 
BRANCH  12   7
ATOM      4  O   UNL     1      16.474   4.574  -0.806  0.00  0.00    -0.253 OA
ATOM      7  N   UNL     1      14.845   4.842   0.827  0.00  0.00    -0.295 N 
ATOM      9  N   UNL     1      16.456   6.462   0.542  0.00  0.00    -0.297 N 
ATOM     19  C   UNL     1      15.971   5.233   0.104  0.00  0.00    +0.300 C 
ATOM     35  H   UNL     1      14.481   5.486   1.523  0.00  0.00    +0.151 HD
ATOM     37  H   UNL     1      15.931   6.962   1.254  0.00  0.00    +0.150 HD
BRANCH   9  24
ATOM     24  C   UNL     1      17.616   7.098  -0.037  0.00  0.00    +0.068 C 
ATOM     29  C   UNL     1      17.211   7.978  -1.213  0.00  0.00    +0.027 C 
ATOM     30  C   UNL     1      18.363   7.900   1.021  0.00  0.00    +0.027 C 
ENDBRANCH   9  24
ENDBRANCH  12   7
BRANCH  17  20
ATOM     20  C   UNL     1      10.768   4.328  -2.118  0.00  0.00    +0.164 C 
BRANCH  20   1
ATOM      1  S   UNL     1      10.453   5.986  -2.739  0.00  0.00    -0.155 S 
ATOM     31  C   UNL     1       8.737   5.764  -3.270  0.00  0.00    +0.085 C 
ENDBRANCH  20   1
ENDBRANCH  17  20
ENDBRANCH  16  13
BRANCH   8  18
ATOM     18  C   UNL     1      10.261   6.940   3.055  0.00  0.00    +0.163 C 
BRANCH  18  23
ATOM      5  O   UNL     1      11.161   9.001   2.137  0.00  0.00    -0.274 OA
ATOM     11  N   UNL     1       9.686   7.783   0.864  0.00  0.00    -0.328 N 
ATOM     23  C   UNL     1      10.421   8.029   2.006  0.00  0.00    +0.231 C 
ATOM     39  H   UNL     1       9.714   8.425   0.079  0.00  0.00    +0.145 HD
ATOM     40  H   UNL     1       9.097   6.963   0.762  0.00  0.00    +0.145 HD
ENDBRANCH  18  23
BRANCH  18  21
ATOM     21  C   UNL     1       8.840   6.954   3.632  0.00  0.00    +0.069 C 
BRANCH  21  22
ATOM     10  N   UNL     1       8.533   8.058   7.125  0.00  0.00    -0.360 N 
ATOM     22  C   UNL     1       8.810   7.142   5.122  0.00  0.00    -0.020 A 
ATOM     25  C   UNL     1       9.181   6.182   6.105  0.00  0.00    +0.003 A 
ATOM     26  C   UNL     1       8.416   8.284   5.780  0.00  0.00    +0.087 A 
ATOM     27  C   UNL     1       8.998   6.782   7.353  0.00  0.00    +0.047 A 
ATOM     28  C   UNL     1       9.657   4.857   6.053  0.00  0.00    +0.010 A 
ATOM     32  C   UNL     1       9.268   6.120   8.556  0.00  0.00    +0.026 A 
ATOM     33  C   UNL     1       9.931   4.183   7.249  0.00  0.00    +0.001 A 
ATOM     34  C   UNL     1       9.739   4.806   8.479  0.00  0.00    +0.002 A 
ATOM     38  H   UNL     1       8.311   8.729   7.847  0.00  0.00    +0.165 HD
ENDBRANCH  21  22
ENDBRANCH  18  21
ENDBRANCH   8  18
TORSDOF 9
ENDMDL
MODEL 6
REMARK VINA RESULT:      -5.9     16.381     19.773
REMARK  Name = 7127944
REMARK  12 active torsions:
REMARK  status: ('A' for Active; 'I' for Inactive)
REMARK    1  A    between atoms: S_1  and  C_20
REMARK    2  A    between atoms: S_1  and  C_31
REMARK    3  A    between atoms: N_7  and  C_12
REMARK    4  A    between atoms: N_8  and  C_18
REMARK    5  A    between atoms: N_9  and  C_24
REMARK    6  A    between atoms: C_13  and  C_16
REMARK    7  A    between atoms: C_17  and  C_20
REMARK    8  A    between atoms: C_18  and  C_21
REMARK    9  A    between atoms: C_18  and  C_23
REMARK   10  A    between atoms: C_21  and  C_22
REMARK   11  A    between atoms: C_24  and  C_29
REMARK   12  A    between atoms: C_24  and  C_30
REMARK                            x       y       z     vdW  Elec       q    Type
REMARK                         _______ _______ _______ _____ _____    ______ ____
ROOT
ATOM      2  O   UNL     1      11.530   8.633   3.882  0.00  0.00    -0.274 OA
ATOM      8  N   UNL     1      13.262   7.121   4.243  0.00  0.00    -0.302 N 
ATOM     16  C   UNL     1      12.142   7.610   3.592  0.00  0.00    +0.234 C 
ATOM     36  H   UNL     1      13.629   6.213   3.973  0.00  0.00    +0.150 HD
ENDROOT
BRANCH  16  13
ATOM      3  O   UNL     1      14.430   6.934   1.461  0.00  0.00    -0.275 OA
ATOM      6  N   UNL     1      12.693   5.658   2.307  0.00  0.00    -0.287 N 
ATOM     12  C   UNL     1      10.753   4.725   3.312  0.00  0.00    +0.094 C 
ATOM     13  C   UNL     1      11.739   6.749   2.433  0.00  0.00    +0.164 C 
ATOM     14  C   UNL     1      10.392   6.072   2.680  0.00  0.00    +0.055 C 
ATOM     15  C   UNL     1      12.088   4.373   2.660  0.00  0.00    +0.131 C 
ATOM     17  C   UNL     1      13.950   5.835   1.747  0.00  0.00    +0.226 C 
BRANCH  12   7
ATOM      4  O   UNL     1       8.630   5.268   5.190  0.00  0.00    -0.253 OA
ATOM      7  N   UNL     1      10.865   4.818   4.746  0.00  0.00    -0.295 N 
ATOM      9  N   UNL     1      10.169   5.120   6.920  0.00  0.00    -0.297 N 
ATOM     19  C   UNL     1       9.782   5.085   5.583  0.00  0.00    +0.300 C 
ATOM     35  H   UNL     1      11.764   4.630   5.178  0.00  0.00    +0.151 HD
ATOM     37  H   UNL     1      11.131   4.887   7.150  0.00  0.00    +0.150 HD
BRANCH   9  24
ATOM     24  C   UNL     1       9.242   5.377   7.997  0.00  0.00    +0.068 C 
ATOM     29  C   UNL     1       9.697   4.678   9.271  0.00  0.00    +0.027 C 
ATOM     30  C   UNL     1       9.088   6.877   8.215  0.00  0.00    +0.027 C 
ENDBRANCH   9  24
ENDBRANCH  12   7
BRANCH  17  20
ATOM     20  C   UNL     1      14.740   4.573   1.508  0.00  0.00    +0.164 C 
BRANCH  20   1
ATOM      1  S   UNL     1      14.595   4.160  -0.237  0.00  0.00    -0.155 S 
ATOM     31  C   UNL     1      16.346   4.239  -0.690  0.00  0.00    +0.085 C 
ENDBRANCH  20   1
ENDBRANCH  17  20
ENDBRANCH  16  13
BRANCH   8  18
ATOM     18  C   UNL     1      13.865   7.779   5.380  0.00  0.00    +0.163 C 
BRANCH  18  23
ATOM      5  O   UNL     1      12.166   7.348   7.063  0.00  0.00    -0.274 OA
ATOM     11  N   UNL     1      14.160   6.214   7.198  0.00  0.00    -0.328 N 
ATOM     23  C   UNL     1      13.295   7.126   6.630  0.00  0.00    +0.231 C 
ATOM     39  H   UNL     1      13.897   5.696   8.030  0.00  0.00    +0.145 HD
ATOM     40  H   UNL     1      15.081   6.025   6.816  0.00  0.00    +0.145 HD
ENDBRANCH  18  23
BRANCH  18  21
ATOM     21  C   UNL     1      15.395   7.671   5.369  0.00  0.00    +0.069 C 
BRANCH  21  22
ATOM     10  N   UNL     1      16.445  11.123   6.073  0.00  0.00    -0.360 N 
ATOM     22  C   UNL     1      16.080   8.963   5.711  0.00  0.00    -0.020 A 
ATOM     25  C   UNL     1      17.440   9.126   6.097  0.00  0.00    +0.003 A 
ATOM     26  C   UNL     1      15.494  10.208   5.706  0.00  0.00    +0.087 A 
ATOM     27  C   UNL     1      17.643  10.490   6.318  0.00  0.00    +0.047 A 
ATOM     28  C   UNL     1      18.521   8.241   6.280  0.00  0.00    +0.010 A 
ATOM     32  C   UNL     1      18.878  11.015   6.714  0.00  0.00    +0.026 A 
ATOM     33  C   UNL     1      19.763   8.753   6.675  0.00  0.00    +0.001 A 
ATOM     34  C   UNL     1      19.936  10.118   6.889  0.00  0.00    +0.002 A 
ATOM     38  H   UNL     1      16.290  12.118   6.153  0.00  0.00    +0.165 HD
ENDBRANCH  21  22
ENDBRANCH  18  21
ENDBRANCH   8  18
TORSDOF 9
ENDMDL
MODEL 7
REMARK VINA RESULT:      -5.7     16.673     19.050
REMARK  Name = 7127944
REMARK  12 active torsions:
REMARK  status: ('A' for Active; 'I' for Inactive)
REMARK    1  A    between atoms: S_1  and  C_20
REMARK    2  A    between atoms: S_1  and  C_31
REMARK    3  A    between atoms: N_7  and  C_12
REMARK    4  A    between atoms: N_8  and  C_18
REMARK    5  A    between atoms: N_9  and  C_24
REMARK    6  A    between atoms: C_13  and  C_16
REMARK    7  A    between atoms: C_17  and  C_20
REMARK    8  A    between atoms: C_18  and  C_21
REMARK    9  A    between atoms: C_18  and  C_23
REMARK   10  A    between atoms: C_21  and  C_22
REMARK   11  A    between atoms: C_24  and  C_29
REMARK   12  A    between atoms: C_24  and  C_30
REMARK                            x       y       z     vdW  Elec       q    Type
REMARK                         _______ _______ _______ _____ _____    ______ ____
ROOT
ATOM      2  O   UNL     1      13.292   7.946   4.916  0.00  0.00    -0.274 OA
ATOM      8  N   UNL     1      13.937   9.713   6.287  0.00  0.00    -0.302 N 
ATOM     16  C   UNL     1      13.141   8.643   5.914  0.00  0.00    +0.234 C 
ATOM     36  H   UNL     1      13.660  10.277   7.085  0.00  0.00    +0.150 HD
ENDROOT
BRANCH  16  13
ATOM      3  O   UNL     1      11.044  11.019   6.350  0.00  0.00    -0.275 OA
ATOM      6  N   UNL     1      10.768   8.722   6.274  0.00  0.00    -0.287 N 
ATOM     12  C   UNL     1      10.912   6.351   6.245  0.00  0.00    +0.094 C 
ATOM     13  C   UNL     1      12.039   8.387   6.898  0.00  0.00    +0.164 C 
ATOM     14  C   UNL     1      11.932   6.904   7.245  0.00  0.00    +0.055 C 
ATOM     15  C   UNL     1       9.965   7.526   6.019  0.00  0.00    +0.131 C 
ATOM     17  C   UNL     1      10.340  10.034   6.126  0.00  0.00    +0.226 C 
BRANCH  12   7
ATOM      4  O   UNL     1       9.900   4.421   4.354  0.00  0.00    -0.253 OA
ATOM      7  N   UNL     1      11.539   5.925   5.020  0.00  0.00    -0.295 N 
ATOM      9  N   UNL     1      11.791   4.755   3.053  0.00  0.00    -0.297 N 
ATOM     19  C   UNL     1      10.978   4.982   4.160  0.00  0.00    +0.300 C 
ATOM     35  H   UNL     1      12.409   6.366   4.738  0.00  0.00    +0.151 HD
ATOM     37  H   UNL     1      12.630   5.319   2.946  0.00  0.00    +0.150 HD
BRANCH   9  24
ATOM     24  C   UNL     1      11.446   3.824   2.005  0.00  0.00    +0.068 C 
ATOM     29  C   UNL     1      10.615   4.513   0.930  0.00  0.00    +0.027 C 
ATOM     30  C   UNL     1      12.705   3.201   1.414  0.00  0.00    +0.027 C 
ENDBRANCH   9  24
ENDBRANCH  12   7
BRANCH  17  20
ATOM     20  C   UNL     1       8.922  10.205   5.644  0.00  0.00    +0.164 C 
BRANCH  20   1
ATOM      1  S   UNL     1       8.978  11.097   4.083  0.00  0.00    -0.155 S 
ATOM     31  C   UNL     1       9.335   9.708   2.979  0.00  0.00    +0.085 C 
ENDBRANCH  20   1
ENDBRANCH  17  20
ENDBRANCH  16  13
BRANCH   8  18
ATOM     18  C   UNL     1      15.081  10.151   5.519  0.00  0.00    +0.163 C 
BRANCH  18  23
ATOM      5  O   UNL     1      15.794  12.353   4.780  0.00  0.00    -0.274 OA
ATOM     11  N   UNL     1      13.825  12.170   5.950  0.00  0.00    -0.328 N 
ATOM     23  C   UNL     1      14.973  11.662   5.378  0.00  0.00    +0.231 C 
ATOM     39  H   UNL     1      13.622  13.164   5.914  0.00  0.00    +0.145 HD
ATOM     40  H   UNL     1      13.145  11.583   6.422  0.00  0.00    +0.145 HD
ENDBRANCH  18  23
BRANCH  18  21
ATOM     21  C   UNL     1      16.409   9.768   6.186  0.00  0.00    +0.069 C 
BRANCH  21  22
ATOM     10  N   UNL     1      18.111   7.911   3.509  0.00  0.00    -0.360 N 
ATOM     22  C   UNL     1      17.320   8.990   5.281  0.00  0.00    -0.020 A 
ATOM     25  C   UNL     1      18.630   8.528   5.589  0.00  0.00    +0.003 A 
ATOM     26  C   UNL     1      17.029   8.596   3.995  0.00  0.00    +0.087 A 
ATOM     27  C   UNL     1      19.103   7.854   4.461  0.00  0.00    +0.047 A 
ATOM     28  C   UNL     1      19.461   8.619   6.723  0.00  0.00    +0.010 A 
ATOM     32  C   UNL     1      20.371   7.264   4.411  0.00  0.00    +0.026 A 
ATOM     33  C   UNL     1      20.732   8.032   6.687  0.00  0.00    +0.001 A 
ATOM     34  C   UNL     1      21.178   7.367   5.548  0.00  0.00    +0.002 A 
ATOM     38  H   UNL     1      18.172   7.505   2.586  0.00  0.00    +0.165 HD
ENDBRANCH  21  22
ENDBRANCH  18  21
ENDBRANCH   8  18
TORSDOF 9
ENDMDL
MODEL 8
REMARK VINA RESULT:      -5.7     30.274     32.610
REMARK  Name = 7127944
REMARK  12 active torsions:
REMARK  status: ('A' for Active; 'I' for Inactive)
REMARK    1  A    between atoms: S_1  and  C_20
REMARK    2  A    between atoms: S_1  and  C_31
REMARK    3  A    between atoms: N_7  and  C_12
REMARK    4  A    between atoms: N_8  and  C_18
REMARK    5  A    between atoms: N_9  and  C_24
REMARK    6  A    between atoms: C_13  and  C_16
REMARK    7  A    between atoms: C_17  and  C_20
REMARK    8  A    between atoms: C_18  and  C_21
REMARK    9  A    between atoms: C_18  and  C_23
REMARK   10  A    between atoms: C_21  and  C_22
REMARK   11  A    between atoms: C_24  and  C_29
REMARK   12  A    between atoms: C_24  and  C_30
REMARK                            x       y       z     vdW  Elec       q    Type
REMARK                         _______ _______ _______ _____ _____    ______ ____
ROOT
ATOM      2  O   UNL     1      -9.782 -10.738  15.460  0.00  0.00    -0.274 OA
ATOM      8  N   UNL     1      -8.071  -9.261  14.904  0.00  0.00    -0.302 N 
ATOM     16  C   UNL     1      -9.335  -9.600  15.357  0.00  0.00    +0.234 C 
ATOM     36  H   UNL     1      -7.844  -8.280  14.771  0.00  0.00    +0.150 HD
ENDROOT
BRANCH  16  13
ATOM      3  O   UNL     1     -11.310  -8.420  13.134  0.00  0.00    -0.275 OA
ATOM      6  N   UNL     1     -11.535  -8.640  15.427  0.00  0.00    -0.287 N 
ATOM     12  C   UNL     1     -11.340  -8.929  17.777  0.00  0.00    +0.094 C 
ATOM     13  C   UNL     1     -10.137  -8.396  15.750  0.00  0.00    +0.164 C 
ATOM     14  C   UNL     1     -10.112  -8.175  17.261  0.00  0.00    +0.055 C 
ATOM     15  C   UNL     1     -12.345  -8.794  16.636  0.00  0.00    +0.131 C 
ATOM     17  C   UNL     1     -12.021  -8.550  14.131  0.00  0.00    +0.226 C 
BRANCH  12   7
ATOM      4  O   UNL     1     -10.496 -10.031  20.307  0.00  0.00    -0.253 OA
ATOM      7  N   UNL     1     -11.040 -10.308  18.067  0.00  0.00    -0.295 N 
ATOM      9  N   UNL     1     -10.414 -12.131  19.326  0.00  0.00    -0.297 N 
ATOM     19  C   UNL     1     -10.637 -10.757  19.324  0.00  0.00    +0.300 C 
ATOM     35  H   UNL     1     -11.177 -11.001  17.337  0.00  0.00    +0.151 HD
ATOM     37  H   UNL     1     -10.625 -12.656  18.482  0.00  0.00    +0.150 HD
BRANCH   9  24
ATOM     24  C   UNL     1      -9.988 -12.854  20.501  0.00  0.00    +0.068 C 
ATOM     29  C   UNL     1     -11.126 -13.707  21.046  0.00  0.00    +0.027 C 
ATOM     30  C   UNL     1      -8.763 -13.703  20.185  0.00  0.00    +0.027 C 
ENDBRANCH   9  24
ENDBRANCH  12   7
BRANCH  17  20
ATOM     20  C   UNL     1     -13.520  -8.635  13.991  0.00  0.00    +0.164 C 
BRANCH  20   1
ATOM      1  S   UNL     1     -14.070  -7.175  13.095  0.00  0.00    -0.155 S 
ATOM     31  C   UNL     1     -13.566  -5.909  14.287  0.00  0.00    +0.085 C 
ENDBRANCH  20   1
ENDBRANCH  17  20
ENDBRANCH  16  13
BRANCH   8  18
ATOM     18  C   UNL     1      -7.094 -10.240  14.484  0.00  0.00    +0.163 C 
BRANCH  18  23
ATOM      5  O   UNL     1      -7.720 -11.440  12.466  0.00  0.00    -0.274 OA
ATOM     11  N   UNL     1      -6.890  -9.307  12.264  0.00  0.00    -0.328 N 
ATOM     23  C   UNL     1      -7.261 -10.424  12.983  0.00  0.00    +0.231 C 
ATOM     39  H   UNL     1      -6.966  -9.292  11.252  0.00  0.00    +0.145 HD
ATOM     40  H   UNL     1      -6.534  -8.467  12.707  0.00  0.00    +0.145 HD
ENDBRANCH  18  23
BRANCH  18  21
ATOM     21  C   UNL     1      -5.660  -9.807  14.816  0.00  0.00    +0.069 C 
BRANCH  21  22
ATOM     10  N   UNL     1      -3.667 -11.977  17.015  0.00  0.00    -0.360 N 
ATOM     22  C   UNL     1      -5.038 -10.621  15.915  0.00  0.00    -0.020 A 
ATOM     25  C   UNL     1      -5.501 -10.730  17.256  0.00  0.00    +0.003 A 
ATOM     26  C   UNL     1      -3.909 -11.398  15.797  0.00  0.00    +0.087 A 
ATOM     27  C   UNL     1      -4.624 -11.586  17.924  0.00  0.00    +0.047 A 
ATOM     28  C   UNL     1      -6.586 -10.180  17.967  0.00  0.00    +0.010 A 
ATOM     32  C   UNL     1      -4.779 -11.922  19.274  0.00  0.00    +0.026 A 
ATOM     33  C   UNL     1      -6.753 -10.508  19.318  0.00  0.00    +0.001 A 
ATOM     34  C   UNL     1      -5.862 -11.365  19.959  0.00  0.00    +0.002 A 
ATOM     38  H   UNL     1      -2.899 -12.601  17.216  0.00  0.00    +0.165 HD
ENDBRANCH  21  22
ENDBRANCH  18  21
ENDBRANCH   8  18
TORSDOF 9
ENDMDL
MODEL 9
REMARK VINA RESULT:      -5.7     28.781     31.971
REMARK  Name = 7127944
REMARK  12 active torsions:
REMARK  status: ('A' for Active; 'I' for Inactive)
REMARK    1  A    between atoms: S_1  and  C_20
REMARK    2  A    between atoms: S_1  and  C_31
REMARK    3  A    between atoms: N_7  and  C_12
REMARK    4  A    between atoms: N_8  and  C_18
REMARK    5  A    between atoms: N_9  and  C_24
REMARK    6  A    between atoms: C_13  and  C_16
REMARK    7  A    between atoms: C_17  and  C_20
REMARK    8  A    between atoms: C_18  and  C_21
REMARK    9  A    between atoms: C_18  and  C_23
REMARK   10  A    between atoms: C_21  and  C_22
REMARK   11  A    between atoms: C_24  and  C_29
REMARK   12  A    between atoms: C_24  and  C_30
REMARK                            x       y       z     vdW  Elec       q    Type
REMARK                         _______ _______ _______ _____ _____    ______ ____
ROOT
ATOM      2  O   UNL     1      -5.757 -11.632  13.669  0.00  0.00    -0.274 OA
ATOM      8  N   UNL     1      -3.666 -10.638  13.904  0.00  0.00    -0.302 N 
ATOM     16  C   UNL     1      -4.880 -10.867  13.280  0.00  0.00    +0.234 C 
ATOM     36  H   UNL     1      -2.977 -10.053  13.440  0.00  0.00    +0.150 HD
ENDROOT
BRANCH  16  13
ATOM      3  O   UNL     1      -3.696 -12.107  10.580  0.00  0.00    -0.275 OA
ATOM      6  N   UNL     1      -5.613 -10.877  10.993  0.00  0.00    -0.287 N 
ATOM     12  C   UNL     1      -7.391  -9.520  11.793  0.00  0.00    +0.094 C 
ATOM     13  C   UNL     1      -5.044 -10.041  12.039  0.00  0.00    +0.164 C 
ATOM     14  C   UNL     1      -6.058  -8.917  12.245  0.00  0.00    +0.055 C 
ATOM     15  C   UNL     1      -6.986 -10.482  10.680  0.00  0.00    +0.131 C 
ATOM     17  C   UNL     1      -4.852 -11.798  10.288  0.00  0.00    +0.226 C 
BRANCH  12   7
ATOM      4  O   UNL     1     -10.221  -9.506  12.359  0.00  0.00    -0.253 OA
ATOM      7  N   UNL     1      -8.065 -10.200  12.870  0.00  0.00    -0.295 N 
ATOM      9  N   UNL     1      -9.829 -10.886  14.182  0.00  0.00    -0.297 N 
ATOM     19  C   UNL     1      -9.443 -10.140  13.072  0.00  0.00    +0.300 C 
ATOM     35  H   UNL     1      -7.521 -10.796  13.487  0.00  0.00    +0.151 HD
ATOM     37  H   UNL     1      -9.121 -11.432  14.666  0.00  0.00    +0.150 HD
BRANCH   9  24
ATOM     24  C   UNL     1     -11.202 -10.994  14.615  0.00  0.00    +0.068 C 
ATOM     29  C   UNL     1     -11.459 -12.358  15.242  0.00  0.00    +0.027 C 
ATOM     30  C   UNL     1     -11.541  -9.868  15.583  0.00  0.00    +0.027 C 
ENDBRANCH   9  24
ENDBRANCH  12   7
BRANCH  17  20
ATOM     20  C   UNL     1      -5.538 -12.440   9.108  0.00  0.00    +0.164 C 
BRANCH  20   1
ATOM      1  S   UNL     1      -4.861 -11.701   7.613  0.00  0.00    -0.155 S 
ATOM     31  C   UNL     1      -3.967 -13.138   6.971  0.00  0.00    +0.085 C 
ENDBRANCH  20   1
ENDBRANCH  17  20
ENDBRANCH  16  13
BRANCH   8  18
ATOM     18  C   UNL     1      -3.272 -11.293  15.132  0.00  0.00    +0.163 C 
BRANCH  18  23
ATOM      5  O   UNL     1      -1.425 -12.484  14.096  0.00  0.00    -0.274 OA
ATOM     11  N   UNL     1      -0.980 -11.095  15.871  0.00  0.00    -0.328 N 
ATOM     23  C   UNL     1      -1.820 -11.713  14.968  0.00  0.00    +0.231 C 
ATOM     39  H   UNL     1       0.019 -11.277  15.862  0.00  0.00    +0.145 HD
ATOM     40  H   UNL     1      -1.318 -10.443  16.572  0.00  0.00    +0.145 HD
ENDBRANCH  18  23
BRANCH  18  21
ATOM     21  C   UNL     1      -3.433 -10.380  16.354  0.00  0.00    +0.069 C 
BRANCH  21  22
ATOM     10  N   UNL     1      -5.591 -11.888  18.920  0.00  0.00    -0.360 N 
ATOM     22  C   UNL     1      -4.520 -10.832  17.288  0.00  0.00    -0.020 A 
ATOM     25  C   UNL     1      -5.875 -10.397  17.285  0.00  0.00    +0.003 A 
ATOM     26  C   UNL     1      -4.376 -11.748  18.304  0.00  0.00    +0.087 A 
ATOM     27  C   UNL     1      -6.524 -11.074  18.319  0.00  0.00    +0.047 A 
ATOM     28  C   UNL     1      -6.612  -9.488  16.501  0.00  0.00    +0.010 A 
ATOM     32  C   UNL     1      -7.881 -10.888  18.608  0.00  0.00    +0.026 A 
ATOM     33  C   UNL     1      -7.971  -9.293  16.778  0.00  0.00    +0.001 A 
ATOM     34  C   UNL     1      -8.593  -9.982  17.816  0.00  0.00    +0.002 A 
ATOM     38  H   UNL     1      -5.776 -12.500  19.702  0.00  0.00    +0.165 HD
ENDBRANCH  21  22
ENDBRANCH  18  21
ENDBRANCH   8  18
TORSDOF 9
ENDMDL
MODEL 10
REMARK VINA RESULT:      -5.7      3.235      5.951
REMARK  Name = 7127944
REMARK  12 active torsions:
REMARK  status: ('A' for Active; 'I' for Inactive)
REMARK    1  A    between atoms: S_1  and  C_20
REMARK    2  A    between atoms: S_1  and  C_31
REMARK    3  A    between atoms: N_7  and  C_12
REMARK    4  A    between atoms: N_8  and  C_18
REMARK    5  A    between atoms: N_9  and  C_24
REMARK    6  A    between atoms: C_13  and  C_16
REMARK    7  A    between atoms: C_17  and  C_20
REMARK    8  A    between atoms: C_18  and  C_21
REMARK    9  A    between atoms: C_18  and  C_23
REMARK   10  A    between atoms: C_21  and  C_22
REMARK   11  A    between atoms: C_24  and  C_29
REMARK   12  A    between atoms: C_24  and  C_30
REMARK                            x       y       z     vdW  Elec       q    Type
REMARK                         _______ _______ _______ _____ _____    ______ ____
ROOT
ATOM      2  O   UNL     1      15.443   8.967  19.420  0.00  0.00    -0.274 OA
ATOM      8  N   UNL     1      13.723   8.682  20.962  0.00  0.00    -0.302 N 
ATOM     16  C   UNL     1      15.024   8.953  20.574  0.00  0.00    +0.234 C 
ATOM     36  H   UNL     1      13.513   8.605  21.953  0.00  0.00    +0.150 HD
ENDROOT
BRANCH  16  13
ATOM      3  O   UNL     1      17.097   6.672  21.431  0.00  0.00    -0.275 OA
ATOM      6  N   UNL     1      17.289   8.978  21.371  0.00  0.00    -0.287 N 
ATOM     12  C   UNL     1      17.057  11.341  21.277  0.00  0.00    +0.094 C 
ATOM     13  C   UNL     1      15.911   9.264  21.741  0.00  0.00    +0.164 C 
ATOM     14  C   UNL     1      15.891  10.754  22.078  0.00  0.00    +0.055 C 
ATOM     15  C   UNL     1      18.076  10.206  21.250  0.00  0.00    +0.131 C 
ATOM     17  C   UNL     1      17.790   7.685  21.326  0.00  0.00    +0.226 C 
BRANCH  12   7
ATOM      4  O   UNL     1      15.735  13.788  20.509  0.00  0.00    -0.253 OA
ATOM      7  N   UNL     1      16.653  11.730  19.949  0.00  0.00    -0.295 N 
ATOM      9  N   UNL     1      15.738  13.059  18.306  0.00  0.00    -0.297 N 
ATOM     19  C   UNL     1      16.016  12.937  19.665  0.00  0.00    +0.300 C 
ATOM     35  H   UNL     1      16.886  11.122  19.170  0.00  0.00    +0.151 HD
ATOM     37  H   UNL     1      16.072  12.333  17.679  0.00  0.00    +0.150 HD
BRANCH   9  24
ATOM     24  C   UNL     1      15.081  14.214  17.741  0.00  0.00    +0.068 C 
ATOM     29  C   UNL     1      15.409  14.343  16.259  0.00  0.00    +0.027 C 
ATOM     30  C   UNL     1      13.577  14.132  17.970  0.00  0.00    +0.027 C 
ENDBRANCH   9  24
ENDBRANCH  12   7
BRANCH  17  20
ATOM     20  C   UNL     1      19.279   7.572  21.120  0.00  0.00    +0.164 C 
BRANCH  20   1
ATOM      1  S   UNL     1      20.004   7.011  22.668  0.00  0.00    -0.155 S 
ATOM     31  C   UNL     1      21.476   8.065  22.685  0.00  0.00    +0.085 C 
ENDBRANCH  20   1
ENDBRANCH  17  20
ENDBRANCH  16  13
BRANCH   8  18
ATOM     18  C   UNL     1      12.666   8.373  20.025  0.00  0.00    +0.163 C 
BRANCH  18  23
ATOM      5  O   UNL     1      12.056   6.194  19.141  0.00  0.00    -0.274 OA
ATOM     11  N   UNL     1      12.734   6.341  21.331  0.00  0.00    -0.328 N 
ATOM     23  C   UNL     1      12.431   6.872  20.095  0.00  0.00    +0.231 C 
ATOM     39  H   UNL     1      12.635   5.346  21.509  0.00  0.00    +0.145 HD
ATOM     40  H   UNL     1      13.064   6.911  22.103  0.00  0.00    +0.145 HD
ENDBRANCH  18  23
BRANCH  18  21
ATOM     21  C   UNL     1      11.372   9.135  20.340  0.00  0.00    +0.069 C 
BRANCH  21  22
ATOM     10  N   UNL     1      11.202  10.169  23.863  0.00  0.00    -0.360 N 
ATOM     22  C   UNL     1      11.396   9.810  21.681  0.00  0.00    -0.020 A 
ATOM     25  C   UNL     1      11.782  11.154  21.947  0.00  0.00    +0.003 A 
ATOM     26  C   UNL     1      11.046   9.230  22.878  0.00  0.00    +0.087 A 
ATOM     27  C   UNL     1      11.651  11.353  23.323  0.00  0.00    +0.047 A 
ATOM     28  C   UNL     1      12.231  12.223  21.147  0.00  0.00    +0.010 A 
ATOM     32  C   UNL     1      11.948  12.573  23.941  0.00  0.00    +0.026 A 
ATOM     33  C   UNL     1      12.531  13.449  21.752  0.00  0.00    +0.001 A 
ATOM     34  C   UNL     1      12.392  13.619  23.127  0.00  0.00    +0.002 A 
ATOM     38  H   UNL     1      11.015  10.015  24.844  0.00  0.00    +0.165 HD
ENDBRANCH  21  22
ENDBRANCH  18  21
ENDBRANCH   8  18
TORSDOF 9
ENDMDL
