MODEL 1
REMARK VINA RESULT:      -7.2      0.000      0.000
REMARK  Name = 38029498
REMARK  9 active torsions:
REMARK  status: ('A' for Active; 'I' for Inactive)
REMARK    1  A    between atoms: N_4  and  C_14
REMARK    2  A    between atoms: C_7  and  C_11
REMARK    3  A    between atoms: C_8  and  C_14
REMARK    4  A    between atoms: C_10  and  C_15
REMARK    5  A    between atoms: C_11  and  C_16
REMARK    6  A    between atoms: C_11  and  C_17
REMARK    7  A    between atoms: C_12  and  C_18
REMARK    8  A    between atoms: C_15  and  C_19
REMARK    9  A    between atoms: C_20  and  C_21
REMARK                            x       y       z     vdW  Elec       q    Type
REMARK                         _______ _______ _______ _____ _____    ______ ____
ROOT
ATOM      7  C   UNL     1      -3.255 -12.050  12.599  0.00  0.00    +0.000 C 
ATOM      8  C   UNL     1      -2.089 -11.036  12.486  0.00  0.00    +0.032 C 
ATOM      9  C   UNL     1      -3.815 -12.379  11.206  0.00  0.00    +0.012 C 
ATOM     10  C   UNL     1      -4.329 -11.126  10.473  0.00  0.00    +0.023 C 
ATOM     12  C   UNL     1      -3.336  -9.983  10.549  0.00  0.00    -0.073 C 
ATOM     13  C   UNL     1      -2.334  -9.966  11.447  0.00  0.00    -0.022 C 
ATOM     18  C   UNL     1      -3.495  -8.880   9.541  0.00  0.00    +0.039 C 
ENDROOT
BRANCH   7  11
ATOM     11  C   UNL     1      -2.821 -13.339  13.302  0.00  0.00    -0.013 C 
ATOM     16  C   UNL     1      -2.536 -14.433  12.278  0.00  0.00    +0.007 C 
ATOM     17  C   UNL     1      -3.890 -13.791  14.292  0.00  0.00    +0.007 C 
ENDBRANCH   7  11
BRANCH   8  14
ATOM     14  C   UNL     1      -1.797 -10.376  13.838  0.00  0.00    +0.112 C 
BRANCH  14   4
ATOM      3  O   UNL     1      -2.059 -10.972  16.635  0.00  0.00    -0.270 OA
ATOM      4  N   UNL     1      -2.988 -10.279  14.623  0.00  0.00    -0.311 N 
ATOM     20  C   UNL     1      -3.027 -10.589  15.982  0.00  0.00    +0.244 C 
ATOM     32  H   UNL     1      -3.806  -9.881  14.175  0.00  0.00    +0.149 HD
BRANCH  20  21
ATOM      1  F   UNL     1      -8.019 -10.109  18.508  0.00  0.00    -0.205 F 
ATOM     21  C   UNL     1      -4.348 -10.462  16.650  0.00  0.00    +0.037 A 
ATOM     23  C   UNL     1      -5.406  -9.838  15.991  0.00  0.00    +0.016 A 
ATOM     24  C   UNL     1      -4.530 -10.967  17.938  0.00  0.00    +0.016 A 
ATOM     26  C   UNL     1      -6.646  -9.718  16.618  0.00  0.00    +0.039 A 
ATOM     27  C   UNL     1      -5.770 -10.848  18.565  0.00  0.00    +0.039 A 
ATOM     29  C   UNL     1      -6.828 -10.222  17.905  0.00  0.00    +0.123 A 
ENDBRANCH  20  21
ENDBRANCH  14   4
ENDBRANCH   8  14
BRANCH  10  15
ATOM     15  C   UNL     1      -5.701 -10.698  11.005  0.00  0.00    +0.104 C 
BRANCH  15  19
ATOM      2  O   UNL     1      -7.302 -11.462   9.376  0.00  0.00    -0.275 OA
ATOM      5  N   UNL     1      -6.852  -9.166   9.586  0.00  0.00    -0.270 N 
ATOM      6  N   UNL     1      -7.681  -7.240   8.465  0.00  0.00    -0.240 NA
ATOM     19  C   UNL     1      -6.716 -10.517   9.894  0.00  0.00    +0.219 C 
ATOM     22  C   UNL     1      -7.695  -8.585   8.611  0.00  0.00    +0.125 A 
ATOM     25  C   UNL     1      -8.489  -9.438   7.861  0.00  0.00    +0.044 A 
ATOM     28  C   UNL     1      -9.320  -8.875   6.899  0.00  0.00    +0.005 A 
ATOM     30  C   UNL     1      -8.503  -6.730   7.521  0.00  0.00    +0.113 A 
ATOM     31  C   UNL     1      -9.334  -7.497   6.719  0.00  0.00    +0.020 A 
ATOM     33  H   UNL     1      -6.292  -8.495  10.106  0.00  0.00    +0.156 HD
ENDBRANCH  15  19
ENDBRANCH  10  15
TORSDOF 6
ENDMDL
MODEL 2
REMARK VINA RESULT:      -7.0      5.920      8.595
REMARK  Name = 38029498
REMARK  9 active torsions:
REMARK  status: ('A' for Active; 'I' for Inactive)
REMARK    1  A    between atoms: N_4  and  C_14
REMARK    2  A    between atoms: C_7  and  C_11
REMARK    3  A    between atoms: C_8  and  C_14
REMARK    4  A    between atoms: C_10  and  C_15
REMARK    5  A    between atoms: C_11  and  C_16
REMARK    6  A    between atoms: C_11  and  C_17
REMARK    7  A    between atoms: C_12  and  C_18
REMARK    8  A    between atoms: C_15  and  C_19
REMARK    9  A    between atoms: C_20  and  C_21
REMARK                            x       y       z     vdW  Elec       q    Type
REMARK                         _______ _______ _______ _____ _____    ______ ____
ROOT
ATOM      7  C   UNL     1     -12.113  -9.631  18.810  0.00  0.00    +0.000 C 
ATOM      8  C   UNL     1     -10.898 -10.544  18.509  0.00  0.00    +0.032 C 
ATOM      9  C   UNL     1     -12.991  -9.476  17.558  0.00  0.00    +0.012 C 
ATOM     10  C   UNL     1     -12.214  -8.877  16.371  0.00  0.00    +0.023 C 
ATOM     12  C   UNL     1     -10.872  -9.555  16.177  0.00  0.00    -0.073 C 
ATOM     13  C   UNL     1     -10.306 -10.307  17.139  0.00  0.00    -0.022 C 
ATOM     18  C   UNL     1     -10.216  -9.386  14.835  0.00  0.00    +0.039 C 
ENDROOT
BRANCH   7  11
ATOM     11  C   UNL     1     -12.954 -10.169  19.971  0.00  0.00    -0.013 C 
ATOM     16  C   UNL     1     -13.278 -11.644  19.754  0.00  0.00    +0.007 C 
ATOM     17  C   UNL     1     -14.233  -9.353  20.124  0.00  0.00    +0.007 C 
ENDBRANCH   7  11
BRANCH   8  14
ATOM     14  C   UNL     1      -9.806 -10.380  19.571  0.00  0.00    +0.112 C 
BRANCH  14   4
ATOM      3  O   UNL     1      -7.648 -12.168  20.199  0.00  0.00    -0.270 OA
ATOM      4  N   UNL     1      -8.508 -10.395  18.972  0.00  0.00    -0.311 N 
ATOM     20  C   UNL     1      -7.515 -11.302  19.338  0.00  0.00    +0.244 C 
ATOM     32  H   UNL     1      -8.353  -9.769  18.189  0.00  0.00    +0.149 HD
BRANCH  20  21
ATOM      1  F   UNL     1      -2.586 -10.803  16.693  0.00  0.00    -0.205 F 
ATOM     21  C   UNL     1      -6.210 -11.170  18.638  0.00  0.00    +0.037 A 
ATOM     23  C   UNL     1      -5.088 -11.840  19.123  0.00  0.00    +0.016 A 
ATOM     24  C   UNL     1      -6.108 -10.375  17.496  0.00  0.00    +0.016 A 
ATOM     26  C   UNL     1      -3.863 -11.716  18.467  0.00  0.00    +0.039 A 
ATOM     27  C   UNL     1      -4.884 -10.252  16.839  0.00  0.00    +0.039 A 
ATOM     29  C   UNL     1      -3.761 -10.922  17.325  0.00  0.00    +0.123 A 
ENDBRANCH  20  21
ENDBRANCH  14   4
ENDBRANCH   8  14
BRANCH  10  15
ATOM     15  C   UNL     1     -12.045  -7.362  16.530  0.00  0.00    +0.104 C 
BRANCH  15  19
ATOM      2  O   UNL     1     -14.234  -6.642  15.831  0.00  0.00    -0.275 OA
ATOM      5  N   UNL     1     -12.328  -5.834  14.722  0.00  0.00    -0.270 N 
ATOM      6  N   UNL     1     -12.023  -4.334  12.903  0.00  0.00    -0.240 NA
ATOM     19  C   UNL     1     -13.020  -6.583  15.671  0.00  0.00    +0.219 C 
ATOM     22  C   UNL     1     -12.871  -4.977  13.736  0.00  0.00    +0.125 A 
ATOM     25  C   UNL     1     -14.250  -4.851  13.689  0.00  0.00    +0.044 A 
ATOM     28  C   UNL     1     -14.793  -4.012  12.722  0.00  0.00    +0.005 A 
ATOM     30  C   UNL     1     -12.588  -3.527  11.977  0.00  0.00    +0.113 A 
ATOM     31  C   UNL     1     -13.954  -3.333  11.846  0.00  0.00    +0.020 A 
ATOM     33  H   UNL     1     -11.312  -5.889  14.712  0.00  0.00    +0.156 HD
ENDBRANCH  15  19
ENDBRANCH  10  15
TORSDOF 6
ENDMDL
MODEL 3
REMARK VINA RESULT:      -7.0      2.099      2.726
REMARK  Name = 38029498
REMARK  9 active torsions:
REMARK  status: ('A' for Active; 'I' for Inactive)
REMARK    1  A    between atoms: N_4  and  C_14
REMARK    2  A    between atoms: C_7  and  C_11
REMARK    3  A    between atoms: C_8  and  C_14
REMARK    4  A    between atoms: C_10  and  C_15
REMARK    5  A    between atoms: C_11  and  C_16
REMARK    6  A    between atoms: C_11  and  C_17
REMARK    7  A    between atoms: C_12  and  C_18
REMARK    8  A    between atoms: C_15  and  C_19
REMARK    9  A    between atoms: C_20  and  C_21
REMARK                            x       y       z     vdW  Elec       q    Type
REMARK                         _______ _______ _______ _____ _____    ______ ____
ROOT
ATOM      7  C   UNL     1      -3.098 -12.114  13.749  0.00  0.00    +0.000 C 
ATOM      8  C   UNL     1      -1.805 -11.299  14.005  0.00  0.00    +0.032 C 
ATOM      9  C   UNL     1      -3.246 -12.428  12.252  0.00  0.00    +0.012 C 
ATOM     10  C   UNL     1      -3.296 -11.152  11.391  0.00  0.00    +0.023 C 
ATOM     12  C   UNL     1      -2.203 -10.173  11.772  0.00  0.00    -0.073 C 
ATOM     13  C   UNL     1      -1.540 -10.263  12.939  0.00  0.00    -0.022 C 
ATOM     18  C   UNL     1      -1.861  -9.114  10.762  0.00  0.00    +0.039 C 
ENDROOT
BRANCH   7  11
ATOM     11  C   UNL     1      -3.119 -13.415  14.557  0.00  0.00    -0.013 C 
ATOM     16  C   UNL     1      -2.437 -14.536  13.777  0.00  0.00    +0.007 C 
ATOM     17  C   UNL     1      -4.552 -13.798  14.912  0.00  0.00    +0.007 C 
ENDBRANCH   7  11
BRANCH   8  14
ATOM     14  C   UNL     1      -1.842 -10.621  15.379  0.00  0.00    +0.112 C 
BRANCH  14   4
ATOM      3  O   UNL     1      -3.193 -11.470  17.767  0.00  0.00    -0.270 OA
ATOM      4  N   UNL     1      -3.186 -10.310  15.755  0.00  0.00    -0.311 N 
ATOM     20  C   UNL     1      -3.766 -10.766  16.939  0.00  0.00    +0.244 C 
ATOM     32  H   UNL     1      -3.692  -9.658  15.167  0.00  0.00    +0.149 HD
BRANCH  20  21
ATOM      1  F   UNL     1      -9.113  -9.296  17.823  0.00  0.00    -0.205 F 
ATOM     21  C   UNL     1      -5.181 -10.377  17.173  0.00  0.00    +0.037 A 
ATOM     23  C   UNL     1      -5.771 -10.608  18.414  0.00  0.00    +0.016 A 
ATOM     24  C   UNL     1      -5.919  -9.780  16.150  0.00  0.00    +0.016 A 
ATOM     26  C   UNL     1      -7.100 -10.243  18.635  0.00  0.00    +0.039 A 
ATOM     27  C   UNL     1      -7.247  -9.416  16.370  0.00  0.00    +0.039 A 
ATOM     29  C   UNL     1      -7.838  -9.648  17.612  0.00  0.00    +0.123 A 
ENDBRANCH  20  21
ENDBRANCH  14   4
ENDBRANCH   8  14
BRANCH  10  15
ATOM     15  C   UNL     1      -4.676 -10.490  11.464  0.00  0.00    +0.104 C 
BRANCH  15  19
ATOM      2  O   UNL     1      -6.106  -9.354   9.893  0.00  0.00    -0.275 OA
ATOM      5  N   UNL     1      -4.676 -11.063   9.150  0.00  0.00    -0.270 N 
ATOM      6  N   UNL     1      -4.268 -12.025   7.014  0.00  0.00    -0.240 NA
ATOM     19  C   UNL     1      -5.253 -10.213  10.091  0.00  0.00    +0.219 C 
ATOM     22  C   UNL     1      -4.942 -11.121   7.763  0.00  0.00    +0.125 A 
ATOM     25  C   UNL     1      -5.884 -10.242   7.255  0.00  0.00    +0.044 A 
ATOM     28  C   UNL     1      -6.154 -10.293   5.892  0.00  0.00    +0.005 A 
ATOM     30  C   UNL     1      -4.557 -12.045   5.694  0.00  0.00    +0.113 A 
ATOM     31  C   UNL     1      -5.482 -11.208   5.089  0.00  0.00    +0.020 A 
ATOM     33  H   UNL     1      -3.976 -11.730   9.469  0.00  0.00    +0.156 HD
ENDBRANCH  15  19
ENDBRANCH  10  15
TORSDOF 6
ENDMDL
MODEL 4
REMARK VINA RESULT:      -7.0      4.387      7.077
REMARK  Name = 38029498
REMARK  9 active torsions:
REMARK  status: ('A' for Active; 'I' for Inactive)
REMARK    1  A    between atoms: N_4  and  C_14
REMARK    2  A    between atoms: C_7  and  C_11
REMARK    3  A    between atoms: C_8  and  C_14
REMARK    4  A    between atoms: C_10  and  C_15
REMARK    5  A    between atoms: C_11  and  C_16
REMARK    6  A    between atoms: C_11  and  C_17
REMARK    7  A    between atoms: C_12  and  C_18
REMARK    8  A    between atoms: C_15  and  C_19
REMARK    9  A    between atoms: C_20  and  C_21
REMARK                            x       y       z     vdW  Elec       q    Type
REMARK                         _______ _______ _______ _____ _____    ______ ____
ROOT
ATOM      7  C   UNL     1      -5.724 -10.755  17.934  0.00  0.00    +0.000 C 
ATOM      8  C   UNL     1      -5.243 -11.431  16.625  0.00  0.00    +0.032 C 
ATOM      9  C   UNL     1      -7.224 -11.008  18.148  0.00  0.00    +0.012 C 
ATOM     10  C   UNL     1      -8.077 -10.474  16.981  0.00  0.00    +0.023 C 
ATOM     12  C   UNL     1      -7.508 -10.880  15.636  0.00  0.00    -0.073 C 
ATOM     13  C   UNL     1      -6.243 -11.317  15.499  0.00  0.00    -0.022 C 
ATOM     18  C   UNL     1      -8.440 -10.813  14.459  0.00  0.00    +0.039 C 
ENDROOT
BRANCH   7  11
ATOM     11  C   UNL     1      -4.936 -11.248  19.151  0.00  0.00    -0.013 C 
ATOM     16  C   UNL     1      -4.383 -12.647  18.896  0.00  0.00    +0.007 C 
ATOM     17  C   UNL     1      -5.816 -11.233  20.396  0.00  0.00    +0.007 C 
ENDBRANCH   7  11
BRANCH   8  14
ATOM     14  C   UNL     1      -3.895 -10.860  16.170  0.00  0.00    +0.112 C 
BRANCH  14   4
ATOM      3  O   UNL     1      -2.391 -11.814  13.918  0.00  0.00    -0.270 OA
ATOM      4  N   UNL     1      -3.975 -10.380  14.826  0.00  0.00    -0.311 N 
ATOM     20  C   UNL     1      -3.205 -10.903  13.788  0.00  0.00    +0.244 C 
ATOM     32  H   UNL     1      -4.692  -9.692  14.622  0.00  0.00    +0.149 HD
BRANCH  20  21
ATOM      1  F   UNL     1      -3.888  -8.539   8.741  0.00  0.00    -0.205 F 
ATOM     21  C   UNL     1      -3.386 -10.278  12.452  0.00  0.00    +0.037 A 
ATOM     23  C   UNL     1      -4.667  -9.979  11.990  0.00  0.00    +0.016 A 
ATOM     24  C   UNL     1      -2.274  -9.989  11.660  0.00  0.00    +0.016 A 
ATOM     26  C   UNL     1      -4.837  -9.392  10.736  0.00  0.00    +0.039 A 
ATOM     27  C   UNL     1      -2.444  -9.402  10.407  0.00  0.00    +0.039 A 
ATOM     29  C   UNL     1      -3.726  -9.104   9.944  0.00  0.00    +0.123 A 
ENDBRANCH  20  21
ENDBRANCH  14   4
ENDBRANCH   8  14
BRANCH  10  15
ATOM     15  C   UNL     1      -8.246  -8.954  17.070  0.00  0.00    +0.104 C 
BRANCH  15  19
ATOM      2  O   UNL     1     -10.577  -8.992  17.674  0.00  0.00    -0.275 OA
ATOM      5  N   UNL     1      -9.838  -7.579  15.950  0.00  0.00    -0.270 N 
ATOM      6  N   UNL     1     -10.953  -6.033  14.528  0.00  0.00    -0.240 NA
ATOM     19  C   UNL     1      -9.696  -8.530  16.957  0.00  0.00    +0.219 C 
ATOM     22  C   UNL     1     -11.027  -6.935  15.533  0.00  0.00    +0.125 A 
ATOM     25  C   UNL     1     -12.200  -7.274  16.187  0.00  0.00    +0.044 A 
ATOM     28  C   UNL     1     -13.374  -6.647  15.783  0.00  0.00    +0.005 A 
ATOM     30  C   UNL     1     -12.115  -5.444  14.164  0.00  0.00    +0.113 A 
ATOM     31  C   UNL     1     -13.340  -5.714  14.753  0.00  0.00    +0.020 A 
ATOM     33  H   UNL     1      -9.008  -7.293  15.437  0.00  0.00    +0.156 HD
ENDBRANCH  15  19
ENDBRANCH  10  15
TORSDOF 6
ENDMDL
MODEL 5
REMARK VINA RESULT:      -6.9     28.164     31.613
REMARK  Name = 38029498
REMARK  9 active torsions:
REMARK  status: ('A' for Active; 'I' for Inactive)
REMARK    1  A    between atoms: N_4  and  C_14
REMARK    2  A    between atoms: C_7  and  C_11
REMARK    3  A    between atoms: C_8  and  C_14
REMARK    4  A    between atoms: C_10  and  C_15
REMARK    5  A    between atoms: C_11  and  C_16
REMARK    6  A    between atoms: C_11  and  C_17
REMARK    7  A    between atoms: C_12  and  C_18
REMARK    8  A    between atoms: C_15  and  C_19
REMARK    9  A    between atoms: C_20  and  C_21
REMARK                            x       y       z     vdW  Elec       q    Type
REMARK                         _______ _______ _______ _____ _____    ______ ____
ROOT
ATOM      7  C   UNL     1      17.672   7.952  21.086  0.00  0.00    +0.000 C 
ATOM      8  C   UNL     1      17.462   6.982  19.897  0.00  0.00    +0.032 C 
ATOM      9  C   UNL     1      19.169   8.228  21.295  0.00  0.00    +0.012 C 
ATOM     10  C   UNL     1      19.967   6.940  21.571  0.00  0.00    +0.023 C 
ATOM     12  C   UNL     1      19.613   5.839  20.591  0.00  0.00    -0.073 C 
ATOM     13  C   UNL     1      18.496   5.881  19.843  0.00  0.00    -0.022 C 
ATOM     18  C   UNL     1      20.595   4.708  20.460  0.00  0.00    +0.039 C 
ENDROOT
BRANCH   7  11
ATOM     11  C   UNL     1      16.924   9.272  20.882  0.00  0.00    -0.013 C 
ATOM     16  C   UNL     1      17.893  10.449  20.956  0.00  0.00    +0.007 C 
ATOM     17  C   UNL     1      15.814   9.421  21.917  0.00  0.00    +0.007 C 
ENDBRANCH   7  11
BRANCH   8  14
ATOM     14  C   UNL     1      16.060   6.364  19.927  0.00  0.00    +0.112 C 
BRANCH  14   4
ATOM      3  O   UNL     1      13.387   7.321  20.355  0.00  0.00    -0.270 OA
ATOM      4  N   UNL     1      15.211   6.985  18.959  0.00  0.00    -0.311 N 
ATOM     20  C   UNL     1      13.920   7.423  19.253  0.00  0.00    +0.244 C 
ATOM     32  H   UNL     1      15.615   7.187  18.051  0.00  0.00    +0.149 HD
BRANCH  20  21
ATOM      1  F   UNL     1      11.030   9.695  15.009  0.00  0.00    -0.205 F 
ATOM     21  C   UNL     1      13.155   8.024  18.130  0.00  0.00    +0.037 A 
ATOM     23  C   UNL     1      13.829   8.529  17.019  0.00  0.00    +0.016 A 
ATOM     24  C   UNL     1      11.763   8.084  18.187  0.00  0.00    +0.016 A 
ATOM     26  C   UNL     1      13.112   9.094  15.964  0.00  0.00    +0.039 A 
ATOM     27  C   UNL     1      11.045   8.648  17.133  0.00  0.00    +0.039 A 
ATOM     29  C   UNL     1      11.720   9.154  16.021  0.00  0.00    +0.123 A 
ENDBRANCH  20  21
ENDBRANCH  14   4
ENDBRANCH   8  14
BRANCH  10  15
ATOM     15  C   UNL     1      19.777   6.470  23.017  0.00  0.00    +0.104 C 
BRANCH  15  19
ATOM      2  O   UNL     1      21.703   7.760  23.672  0.00  0.00    -0.275 OA
ATOM      5  N   UNL     1      20.018   7.295  25.241  0.00  0.00    -0.270 N 
ATOM      6  N   UNL     1      19.739   7.849  27.536  0.00  0.00    -0.240 NA
ATOM     19  C   UNL     1      20.632   7.255  23.992  0.00  0.00    +0.219 C 
ATOM     22  C   UNL     1      20.491   7.926  26.415  0.00  0.00    +0.125 A 
ATOM     25  C   UNL     1      21.705   8.588  26.340  0.00  0.00    +0.044 A 
ATOM     28  C   UNL     1      22.180   9.210  27.489  0.00  0.00    +0.005 A 
ATOM     30  C   UNL     1      20.232   8.466  28.633  0.00  0.00    +0.113 A 
ATOM     31  C   UNL     1      21.435   9.153  28.662  0.00  0.00    +0.020 A 
ATOM     33  H   UNL     1      19.122   6.824  25.353  0.00  0.00    +0.156 HD
ENDBRANCH  15  19
ENDBRANCH  10  15
TORSDOF 6
ENDMDL
MODEL 6
REMARK VINA RESULT:      -6.9     23.548     26.124
REMARK  Name = 38029498
REMARK  9 active torsions:
REMARK  status: ('A' for Active; 'I' for Inactive)
REMARK    1  A    between atoms: N_4  and  C_14
REMARK    2  A    between atoms: C_7  and  C_11
REMARK    3  A    between atoms: C_8  and  C_14
REMARK    4  A    between atoms: C_10  and  C_15
REMARK    5  A    between atoms: C_11  and  C_16
REMARK    6  A    between atoms: C_11  and  C_17
REMARK    7  A    between atoms: C_12  and  C_18
REMARK    8  A    between atoms: C_15  and  C_19
REMARK    9  A    between atoms: C_20  and  C_21
REMARK                            x       y       z     vdW  Elec       q    Type
REMARK                         _______ _______ _______ _____ _____    ______ ____
ROOT
ATOM      7  C   UNL     1       9.141   8.263   5.807  0.00  0.00    +0.000 C 
ATOM      8  C   UNL     1       8.988   8.288   7.348  0.00  0.00    +0.032 C 
ATOM      9  C   UNL     1       8.574   6.955   5.233  0.00  0.00    +0.012 C 
ATOM     10  C   UNL     1       9.275   5.712   5.813  0.00  0.00    +0.023 C 
ATOM     12  C   UNL     1       9.402   5.789   7.321  0.00  0.00    -0.073 C 
ATOM     13  C   UNL     1       9.258   6.947   7.991  0.00  0.00    -0.022 C 
ATOM     18  C   UNL     1       9.655   4.497   8.046  0.00  0.00    +0.039 C 
ENDROOT
BRANCH   7  11
ATOM     11  C   UNL     1       8.452   9.461   5.148  0.00  0.00    -0.013 C 
ATOM     16  C   UNL     1       7.385   8.986   4.166  0.00  0.00    +0.007 C 
ATOM     17  C   UNL     1       9.477  10.345   4.446  0.00  0.00    +0.007 C 
ENDBRANCH   7  11
BRANCH   8  14
ATOM     14  C   UNL     1       9.899   9.347   7.978  0.00  0.00    +0.112 C 
BRANCH  14   4
ATOM      3  O   UNL     1      11.755  11.287   6.957  0.00  0.00    -0.270 OA
ATOM      4  N   UNL     1      11.265   9.118   7.623  0.00  0.00    -0.311 N 
ATOM     20  C   UNL     1      12.100  10.121   7.133  0.00  0.00    +0.244 C 
ATOM     32  H   UNL     1      11.648   8.201   7.827  0.00  0.00    +0.149 HD
BRANCH  20  21
ATOM      1  F   UNL     1      17.340   8.589   5.819  0.00  0.00    -0.205 F 
ATOM     21  C   UNL     1      13.487   9.716   6.785  0.00  0.00    +0.037 A 
ATOM     23  C   UNL     1      13.788   8.371   6.578  0.00  0.00    +0.016 A 
ATOM     24  C   UNL     1      14.487  10.681   6.667  0.00  0.00    +0.016 A 
ATOM     26  C   UNL     1      15.090   7.989   6.251  0.00  0.00    +0.039 A 
ATOM     27  C   UNL     1      15.788  10.300   6.340  0.00  0.00    +0.039 A 
ATOM     29  C   UNL     1      16.090   8.954   6.133  0.00  0.00    +0.123 A 
ENDBRANCH  20  21
ENDBRANCH  14   4
ENDBRANCH   8  14
BRANCH  10  15
ATOM     15  C   UNL     1      10.642   5.492   5.157  0.00  0.00    +0.104 C 
BRANCH  15  19
ATOM      2  O   UNL     1       9.626   5.820   2.998  0.00  0.00    -0.275 OA
ATOM      5  N   UNL     1      11.600   4.561   3.183  0.00  0.00    -0.270 N 
ATOM      6  N   UNL     1      12.959   3.430   1.593  0.00  0.00    -0.240 NA
ATOM     19  C   UNL     1      10.538   5.328   3.654  0.00  0.00    +0.219 C 
ATOM     22  C   UNL     1      11.864   4.183   1.846  0.00  0.00    +0.125 A 
ATOM     25  C   UNL     1      10.976   4.612   0.873  0.00  0.00    +0.044 A 
ATOM     28  C   UNL     1      11.226   4.243  -0.444  0.00  0.00    +0.005 A 
ATOM     30  C   UNL     1      13.169   3.092   0.301  0.00  0.00    +0.113 A 
ATOM     31  C   UNL     1      12.342   3.470  -0.745  0.00  0.00    +0.020 A 
ATOM     33  H   UNL     1      12.284   4.220   3.855  0.00  0.00    +0.156 HD
ENDBRANCH  15  19
ENDBRANCH  10  15
TORSDOF 6
ENDMDL
MODEL 7
REMARK VINA RESULT:      -6.7     21.053     23.851
REMARK  Name = 38029498
REMARK  9 active torsions:
REMARK  status: ('A' for Active; 'I' for Inactive)
REMARK    1  A    between atoms: N_4  and  C_14
REMARK    2  A    between atoms: C_7  and  C_11
REMARK    3  A    between atoms: C_8  and  C_14
REMARK    4  A    between atoms: C_10  and  C_15
REMARK    5  A    between atoms: C_11  and  C_16
REMARK    6  A    between atoms: C_11  and  C_17
REMARK    7  A    between atoms: C_12  and  C_18
REMARK    8  A    between atoms: C_15  and  C_19
REMARK    9  A    between atoms: C_20  and  C_21
REMARK                            x       y       z     vdW  Elec       q    Type
REMARK                         _______ _______ _______ _____ _____    ______ ____
ROOT
ATOM      7  C   UNL     1     -13.815   7.851  21.245  0.00  0.00    +0.000 C 
ATOM      8  C   UNL     1     -14.910   8.896  20.913  0.00  0.00    +0.032 C 
ATOM      9  C   UNL     1     -14.358   6.426  21.051  0.00  0.00    +0.012 C 
ATOM     10  C   UNL     1     -15.586   6.144  21.937  0.00  0.00    +0.023 C 
ATOM     12  C   UNL     1     -16.600   7.269  21.868  0.00  0.00    -0.073 C 
ATOM     13  C   UNL     1     -16.282   8.488  21.396  0.00  0.00    -0.022 C 
ATOM     18  C   UNL     1     -17.998   6.948  22.315  0.00  0.00    +0.039 C 
ENDROOT
BRANCH   7  11
ATOM     11  C   UNL     1     -12.561   8.049  20.389  0.00  0.00    -0.013 C 
ATOM     16  C   UNL     1     -12.926   8.066  18.907  0.00  0.00    +0.007 C 
ATOM     17  C   UNL     1     -11.539   6.956  20.682  0.00  0.00    +0.007 C 
ENDBRANCH   7  11
BRANCH   8  14
ATOM     14  C   UNL     1     -14.554  10.271  21.488  0.00  0.00    +0.112 C 
BRANCH  14   4
ATOM      3  O   UNL     1     -12.454  11.803  22.708  0.00  0.00    -0.270 OA
ATOM      4  N   UNL     1     -14.082  10.152  22.832  0.00  0.00    -0.311 N 
ATOM     20  C   UNL     1     -13.053  10.940  23.346  0.00  0.00    +0.244 C 
ATOM     32  H   UNL     1     -14.589   9.525  23.447  0.00  0.00    +0.149 HD
BRANCH  20  21
ATOM      1  F   UNL     1     -11.568   9.943  28.669  0.00  0.00    -0.205 F 
ATOM     21  C   UNL     1     -12.660  10.676  24.755  0.00  0.00    +0.037 A 
ATOM     23  C   UNL     1     -13.636  10.400  25.711  0.00  0.00    +0.016 A 
ATOM     24  C   UNL     1     -11.314  10.705  25.121  0.00  0.00    +0.016 A 
ATOM     26  C   UNL     1     -13.268  10.152  27.033  0.00  0.00    +0.039 A 
ATOM     27  C   UNL     1     -10.946  10.458  26.443  0.00  0.00    +0.039 A 
ATOM     29  C   UNL     1     -11.923  10.182  27.400  0.00  0.00    +0.123 A 
ENDBRANCH  20  21
ENDBRANCH  14   4
ENDBRANCH   8  14
BRANCH  10  15
ATOM     15  C   UNL     1     -15.170   5.867  23.386  0.00  0.00    +0.104 C 
BRANCH  15  19
ATOM      2  O   UNL     1     -15.789   3.561  23.074  0.00  0.00    -0.275 OA
ATOM      5  N   UNL     1     -15.720   4.471  25.238  0.00  0.00    -0.270 N 
ATOM      6  N   UNL     1     -16.156   3.567  27.394  0.00  0.00    -0.240 NA
ATOM     19  C   UNL     1     -15.595   4.489  23.851  0.00  0.00    +0.219 C 
ATOM     22  C   UNL     1     -16.094   3.379  26.056  0.00  0.00    +0.125 A 
ATOM     25  C   UNL     1     -16.377   2.177  25.428  0.00  0.00    +0.044 A 
ATOM     28  C   UNL     1     -16.747   1.099  26.223  0.00  0.00    +0.005 A 
ATOM     30  C   UNL     1     -16.520   2.496  28.134  0.00  0.00    +0.113 A 
ATOM     31  C   UNL     1     -16.823   1.252  27.603  0.00  0.00    +0.020 A 
ATOM     33  H   UNL     1     -15.524   5.328  25.751  0.00  0.00    +0.156 HD
ENDBRANCH  15  19
ENDBRANCH  10  15
TORSDOF 6
ENDMDL
MODEL 8
REMARK VINA RESULT:      -6.7      3.516      8.812
REMARK  Name = 38029498
REMARK  9 active torsions:
REMARK  status: ('A' for Active; 'I' for Inactive)
REMARK    1  A    between atoms: N_4  and  C_14
REMARK    2  A    between atoms: C_7  and  C_11
REMARK    3  A    between atoms: C_8  and  C_14
REMARK    4  A    between atoms: C_10  and  C_15
REMARK    5  A    between atoms: C_11  and  C_16
REMARK    6  A    between atoms: C_11  and  C_17
REMARK    7  A    between atoms: C_12  and  C_18
REMARK    8  A    between atoms: C_15  and  C_19
REMARK    9  A    between atoms: C_20  and  C_21
REMARK                            x       y       z     vdW  Elec       q    Type
REMARK                         _______ _______ _______ _____ _____    ______ ____
ROOT
ATOM      7  C   UNL     1      -6.152  -9.445   9.680  0.00  0.00    +0.000 C 
ATOM      8  C   UNL     1      -7.525  -9.392   8.964  0.00  0.00    +0.032 C 
ATOM      9  C   UNL     1      -6.154 -10.536  10.761  0.00  0.00    +0.012 C 
ATOM     10  C   UNL     1      -7.248 -10.306  11.821  0.00  0.00    +0.023 C 
ATOM     12  C   UNL     1      -8.586  -9.980  11.187  0.00  0.00    -0.073 C 
ATOM     13  C   UNL     1      -8.691  -9.586   9.905  0.00  0.00    -0.022 C 
ATOM     18  C   UNL     1      -9.804 -10.161  12.048  0.00  0.00    +0.039 C 
ENDROOT
BRANCH   7  11
ATOM     11  C   UNL     1      -5.007  -9.692   8.695  0.00  0.00    -0.013 C 
ATOM     16  C   UNL     1      -4.866 -11.183   8.405  0.00  0.00    +0.007 C 
ATOM     17  C   UNL     1      -3.702  -9.123   9.242  0.00  0.00    +0.007 C 
ENDBRANCH   7  11
BRANCH   8  14
ATOM     14  C   UNL     1      -7.700  -8.075   8.199  0.00  0.00    +0.112 C 
BRANCH  14   4
ATOM      3  O   UNL     1      -9.714  -6.439   6.969  0.00  0.00    -0.270 OA
ATOM      4  N   UNL     1      -8.631  -7.220   8.868  0.00  0.00    -0.311 N 
ATOM     20  C   UNL     1      -9.581  -6.457   8.190  0.00  0.00    +0.244 C 
ATOM     32  H   UNL     1      -8.643  -7.252   9.881  0.00  0.00    +0.149 HD
BRANCH  20  21
ATOM      1  F   UNL     1     -12.897  -3.216  11.356  0.00  0.00    -0.205 F 
ATOM     21  C   UNL     1     -10.459  -5.599   9.028  0.00  0.00    +0.037 A 
ATOM     23  C   UNL     1     -11.352  -6.182   9.925  0.00  0.00    +0.016 A 
ATOM     24  C   UNL     1     -10.390  -4.210   8.916  0.00  0.00    +0.016 A 
ATOM     26  C   UNL     1     -12.176  -5.377  10.712  0.00  0.00    +0.039 A 
ATOM     27  C   UNL     1     -11.213  -3.406   9.702  0.00  0.00    +0.039 A 
ATOM     29  C   UNL     1     -12.108  -3.989  10.600  0.00  0.00    +0.123 A 
ENDBRANCH  20  21
ENDBRANCH  14   4
ENDBRANCH   8  14
BRANCH  10  15
ATOM     15  C   UNL     1      -6.832  -9.217  12.816  0.00  0.00    +0.104 C 
BRANCH  15  19
ATOM      2  O   UNL     1      -4.929 -10.270  13.849  0.00  0.00    -0.275 OA
ATOM      5  N   UNL     1      -6.771  -9.639  15.162  0.00  0.00    -0.270 N 
ATOM      6  N   UNL     1      -7.243  -9.810  17.486  0.00  0.00    -0.240 NA
ATOM     19  C   UNL     1      -6.043  -9.777  13.983  0.00  0.00    +0.219 C 
ATOM     22  C   UNL     1      -6.386 -10.035  16.464  0.00  0.00    +0.125 A 
ATOM     25  C   UNL     1      -5.145 -10.633  16.610  0.00  0.00    +0.044 A 
ATOM     28  C   UNL     1      -4.759 -11.027  17.886  0.00  0.00    +0.005 A 
ATOM     30  C   UNL     1      -6.833 -10.206  18.711  0.00  0.00    +0.113 A 
ATOM     31  C   UNL     1      -5.612 -10.813  18.963  0.00  0.00    +0.020 A 
ATOM     33  H   UNL     1      -7.691  -9.206  15.113  0.00  0.00    +0.156 HD
ENDBRANCH  15  19
ENDBRANCH  10  15
TORSDOF 6
ENDMDL
MODEL 9
REMARK VINA RESULT:      -6.6      3.636      6.179
REMARK  Name = 38029498
REMARK  9 active torsions:
REMARK  status: ('A' for Active; 'I' for Inactive)
REMARK    1  A    between atoms: N_4  and  C_14
REMARK    2  A    between atoms: C_7  and  C_11
REMARK    3  A    between atoms: C_8  and  C_14
REMARK    4  A    between atoms: C_10  and  C_15
REMARK    5  A    between atoms: C_11  and  C_16
REMARK    6  A    between atoms: C_11  and  C_17
REMARK    7  A    between atoms: C_12  and  C_18
REMARK    8  A    between atoms: C_15  and  C_19
REMARK    9  A    between atoms: C_20  and  C_21
REMARK                            x       y       z     vdW  Elec       q    Type
REMARK                         _______ _______ _______ _____ _____    ______ ____
ROOT
ATOM      7  C   UNL     1      -7.251 -12.603  17.290  0.00  0.00    +0.000 C 
ATOM      8  C   UNL     1      -6.521 -12.320  18.626  0.00  0.00    +0.032 C 
ATOM      9  C   UNL     1      -6.250 -13.065  16.219  0.00  0.00    +0.012 C 
ATOM     10  C   UNL     1      -5.149 -12.019  15.961  0.00  0.00    +0.023 C 
ATOM     12  C   UNL     1      -4.560 -11.490  17.254  0.00  0.00    -0.073 C 
ATOM     13  C   UNL     1      -5.182 -11.646  18.437  0.00  0.00    -0.022 C 
ATOM     18  C   UNL     1      -3.220 -10.817  17.162  0.00  0.00    +0.039 C 
ENDROOT
BRANCH   7  11
ATOM     11  C   UNL     1      -8.354 -13.653  17.456  0.00  0.00    -0.013 C 
ATOM     16  C   UNL     1      -7.843 -15.031  17.045  0.00  0.00    +0.007 C 
ATOM     17  C   UNL     1      -9.583 -13.267  16.639  0.00  0.00    +0.007 C 
ENDBRANCH   7  11
BRANCH   8  14
ATOM     14  C   UNL     1      -7.390 -11.474  19.563  0.00  0.00    +0.112 C 
BRANCH  14   4
ATOM      3  O   UNL     1     -10.249 -11.209  19.516  0.00  0.00    -0.270 OA
ATOM      4  N   UNL     1      -8.146 -10.512  18.823  0.00  0.00    -0.311 N 
ATOM     20  C   UNL     1      -9.539 -10.453  18.858  0.00  0.00    +0.244 C 
ATOM     32  H   UNL     1      -7.625  -9.796  18.328  0.00  0.00    +0.149 HD
BRANCH  20  21
ATOM      1  F   UNL     1     -11.950  -6.518  15.660  0.00  0.00    -0.205 F 
ATOM     21  C   UNL     1     -10.177  -9.411  18.012  0.00  0.00    +0.037 A 
ATOM     23  C   UNL     1      -9.387  -8.483  17.335  0.00  0.00    +0.016 A 
ATOM     24  C   UNL     1     -11.566  -9.362  17.895  0.00  0.00    +0.016 A 
ATOM     26  C   UNL     1      -9.986  -7.505  16.540  0.00  0.00    +0.039 A 
ATOM     27  C   UNL     1     -12.165  -8.385  17.101  0.00  0.00    +0.039 A 
ATOM     29  C   UNL     1     -11.375  -7.455  16.424  0.00  0.00    +0.123 A 
ENDBRANCH  20  21
ENDBRANCH  14   4
ENDBRANCH   8  14
BRANCH  10  15
ATOM     15  C   UNL     1      -5.669 -10.874  15.085  0.00  0.00    +0.104 C 
BRANCH  15  19
ATOM      2  O   UNL     1      -3.658 -11.064  13.773  0.00  0.00    -0.275 OA
ATOM      5  N   UNL     1      -5.535  -9.964  12.886  0.00  0.00    -0.270 N 
ATOM      6  N   UNL     1      -5.956  -8.895  10.805  0.00  0.00    -0.240 NA
ATOM     19  C   UNL     1      -4.814 -10.661  13.852  0.00  0.00    +0.219 C 
ATOM     22  C   UNL     1      -5.096  -9.570  11.601  0.00  0.00    +0.125 A 
ATOM     25  C   UNL     1      -3.802  -9.903  11.237  0.00  0.00    +0.044 A 
ATOM     28  C   UNL     1      -3.361  -9.518   9.975  0.00  0.00    +0.005 A 
ATOM     30  C   UNL     1      -5.493  -8.538   9.586  0.00  0.00    +0.113 A 
ATOM     31  C   UNL     1      -4.216  -8.823   9.128  0.00  0.00    +0.020 A 
ATOM     33  H   UNL     1      -6.492  -9.694  13.101  0.00  0.00    +0.156 HD
ENDBRANCH  15  19
ENDBRANCH  10  15
TORSDOF 6
ENDMDL
MODEL 10
REMARK VINA RESULT:      -6.5     28.262     31.622
REMARK  Name = 38029498
REMARK  9 active torsions:
REMARK  status: ('A' for Active; 'I' for Inactive)
REMARK    1  A    between atoms: N_4  and  C_14
REMARK    2  A    between atoms: C_7  and  C_11
REMARK    3  A    between atoms: C_8  and  C_14
REMARK    4  A    between atoms: C_10  and  C_15
REMARK    5  A    between atoms: C_11  and  C_16
REMARK    6  A    between atoms: C_11  and  C_17
REMARK    7  A    between atoms: C_12  and  C_18
REMARK    8  A    between atoms: C_15  and  C_19
REMARK    9  A    between atoms: C_20  and  C_21
REMARK                            x       y       z     vdW  Elec       q    Type
REMARK                         _______ _______ _______ _____ _____    ______ ____
ROOT
ATOM      7  C   UNL     1      19.263   8.740  21.774  0.00  0.00    +0.000 C 
ATOM      8  C   UNL     1      18.045   8.376  20.889  0.00  0.00    +0.032 C 
ATOM      9  C   UNL     1      20.551   8.141  21.187  0.00  0.00    +0.012 C 
ATOM     10  C   UNL     1      20.478   6.607  21.065  0.00  0.00    +0.023 C 
ATOM     12  C   UNL     1      19.174   6.154  20.438  0.00  0.00    -0.073 C 
ATOM     13  C   UNL     1      18.102   6.963  20.357  0.00  0.00    -0.022 C 
ATOM     18  C   UNL     1      19.144   4.764  19.867  0.00  0.00    +0.039 C 
ENDROOT
BRANCH   7  11
ATOM     11  C   UNL     1      19.420  10.255  21.931  0.00  0.00    -0.013 C 
ATOM     16  C   UNL     1      20.314  10.814  20.829  0.00  0.00    +0.007 C 
ATOM     17  C   UNL     1      19.984  10.592  23.307  0.00  0.00    +0.007 C 
ENDBRANCH   7  11
BRANCH   8  14
ATOM     14  C   UNL     1      16.729   8.583  21.647  0.00  0.00    +0.112 C 
BRANCH  14   4
ATOM      3  O   UNL     1      14.152   7.364  21.990  0.00  0.00    -0.270 OA
ATOM      4  N   UNL     1      15.626   8.650  20.739  0.00  0.00    -0.311 N 
ATOM     20  C   UNL     1      14.404   8.025  20.985  0.00  0.00    +0.244 C 
ATOM     32  H   UNL     1      15.728   9.253  19.931  0.00  0.00    +0.149 HD
BRANCH  20  21
ATOM      1  F   UNL     1      10.484   8.562  17.001  0.00  0.00    -0.205 F 
ATOM     21  C   UNL     1      13.366   8.167  19.931  0.00  0.00    +0.037 A 
ATOM     23  C   UNL     1      12.063   8.521  20.278  0.00  0.00    +0.016 A 
ATOM     24  C   UNL     1      13.696   7.945  18.594  0.00  0.00    +0.016 A 
ATOM     26  C   UNL     1      11.089   8.655  19.289  0.00  0.00    +0.039 A 
ATOM     27  C   UNL     1      12.722   8.078  17.604  0.00  0.00    +0.039 A 
ATOM     29  C   UNL     1      11.418   8.433  17.952  0.00  0.00    +0.123 A 
ENDBRANCH  20  21
ENDBRANCH  14   4
ENDBRANCH   8  14
BRANCH  10  15
ATOM     15  C   UNL     1      20.697   5.933  22.424  0.00  0.00    +0.104 C 
BRANCH  15  19
ATOM      2  O   UNL     1      21.875   3.977  23.189  0.00  0.00    -0.275 OA
ATOM      5  N   UNL     1      22.653   5.150  21.308  0.00  0.00    -0.270 N 
ATOM      6  N   UNL     1      24.500   4.830  19.846  0.00  0.00    -0.240 NA
ATOM     19  C   UNL     1      21.797   4.892  22.376  0.00  0.00    +0.219 C 
ATOM     22  C   UNL     1      23.797   4.413  20.924  0.00  0.00    +0.125 A 
ATOM     25  C   UNL     1      24.127   3.302  21.682  0.00  0.00    +0.044 A 
ATOM     28  C   UNL     1      25.252   2.572  21.312  0.00  0.00    +0.005 A 
ATOM     30  C   UNL     1      25.586   4.096  19.517  0.00  0.00    +0.113 A 
ATOM     31  C   UNL     1      26.001   2.969  20.210  0.00  0.00    +0.020 A 
ATOM     33  H   UNL     1      22.457   5.954  20.717  0.00  0.00    +0.156 HD
ENDBRANCH  15  19
ENDBRANCH  10  15
TORSDOF 6
ENDMDL
