MODEL 1
REMARK VINA RESULT:      -6.5      0.000      0.000
REMARK  Name = 56775464
REMARK  9 active torsions:
REMARK  status: ('A' for Active; 'I' for Inactive)
REMARK    1  A    between atoms: N_4  and  C_6
REMARK    2  A    between atoms: N_4  and  C_11
REMARK    3  A    between atoms: C_6  and  C_9
REMARK    4  A    between atoms: C_9  and  C_10
REMARK    5  A    between atoms: C_11  and  C_15
REMARK    6  A    between atoms: C_12  and  C_14
REMARK    7  A    between atoms: C_12  and  C_16
REMARK    8  A    between atoms: C_12  and  C_17
REMARK    9  A    between atoms: C_12  and  C_18
REMARK                            x       y       z     vdW  Elec       q    Type
REMARK                         _______ _______ _______ _____ _____    ______ ____
ROOT
ATOM      2  O   UNL     1      12.701   8.490  16.719  0.00  0.00    -0.376 OA
ATOM      6  C   UNL     1      12.410   8.429  18.833  0.00  0.00    +0.072 C 
ATOM      7  C   UNL     1      12.544   7.430  17.690  0.00  0.00    +0.184 C 
ATOM      8  C   UNL     1      12.678   9.486  17.768  0.00  0.00    +0.184 C 
ENDROOT
BRANCH   6   4
ATOM      4  N   UNL     1      13.583   8.320  19.691  0.00  0.00    -0.302 NA
ATOM     24  H   UNL     1      14.419   8.784  19.340  0.00  0.00    +0.123 HD
BRANCH   4  11
ATOM     11  C   UNL     1      13.872   6.912  19.955  0.00  0.00    +0.120 C 
BRANCH  11  15
ATOM      1  F   UNL     1      15.296   7.237  22.382  0.00  0.00    -0.205 F 
ATOM     15  C   UNL     1      15.351   6.657  20.081  0.00  0.00    +0.002 A 
ATOM     19  C   UNL     1      15.990   6.838  21.307  0.00  0.00    +0.128 A 
ATOM     20  C   UNL     1      16.082   6.241  18.968  0.00  0.00    +0.008 A 
ATOM     21  C   UNL     1      17.360   6.602  21.421  0.00  0.00    +0.038 A 
ATOM     22  C   UNL     1      17.452   6.005  19.082  0.00  0.00    +0.000 A 
ATOM     23  C   UNL     1      18.091   6.186  20.308  0.00  0.00    +0.003 A 
ENDBRANCH  11  15
ENDBRANCH   4  11
ENDBRANCH   6   4
BRANCH   6   9
ATOM      9  C   UNL     1      11.097   8.486  19.623  0.00  0.00    +0.085 C 
BRANCH   9  10
ATOM      3  O   UNL     1      11.477   9.273  23.086  0.00  0.00    -0.359 OA
ATOM      5  N   UNL     1      11.257   8.377  22.047  0.00  0.00    -0.083 NA
ATOM     10  C   UNL     1      11.293   9.121  20.937  0.00  0.00    +0.086 A 
ATOM     13  C   UNL     1      11.529  10.478  21.211  0.00  0.00    +0.071 A 
ATOM     14  C   UNL     1      11.638  10.521  22.576  0.00  0.00    +0.143 A 
BRANCH  14  12
ATOM     12  C   UNL     1      11.892  11.649  23.589  0.00  0.00    +0.023 C 
ATOM     16  C   UNL     1      11.104  11.493  24.911  0.00  0.00    +0.019 C 
ATOM     17  C   UNL     1      13.392  11.689  23.956  0.00  0.00    +0.019 C 
ATOM     18  C   UNL     1      11.483  13.003  22.972  0.00  0.00    +0.019 C 
ENDBRANCH  14  12
ENDBRANCH   9  10
ENDBRANCH   6   9
TORSDOF 6
ENDMDL
MODEL 2
REMARK VINA RESULT:      -5.9     26.592     27.731
REMARK  Name = 56775464
REMARK  9 active torsions:
REMARK  status: ('A' for Active; 'I' for Inactive)
REMARK    1  A    between atoms: N_4  and  C_6
REMARK    2  A    between atoms: N_4  and  C_11
REMARK    3  A    between atoms: C_6  and  C_9
REMARK    4  A    between atoms: C_9  and  C_10
REMARK    5  A    between atoms: C_11  and  C_15
REMARK    6  A    between atoms: C_12  and  C_14
REMARK    7  A    between atoms: C_12  and  C_16
REMARK    8  A    between atoms: C_12  and  C_17
REMARK    9  A    between atoms: C_12  and  C_18
REMARK                            x       y       z     vdW  Elec       q    Type
REMARK                         _______ _______ _______ _____ _____    ______ ____
ROOT
ATOM      2  O   UNL     1      -1.946 -14.230  14.196  0.00  0.00    -0.376 OA
ATOM      6  C   UNL     1      -2.734 -12.248  14.099  0.00  0.00    +0.072 C 
ATOM      7  C   UNL     1      -1.454 -12.968  13.690  0.00  0.00    +0.184 C 
ATOM      8  C   UNL     1      -3.221 -13.629  14.521  0.00  0.00    +0.184 C 
ENDROOT
BRANCH   6   4
ATOM      4  N   UNL     1      -3.450 -11.846  12.897  0.00  0.00    -0.302 NA
ATOM     24  H   UNL     1      -3.345 -12.473  12.100  0.00  0.00    +0.123 HD
BRANCH   4  11
ATOM     11  C   UNL     1      -3.056 -10.491  12.517  0.00  0.00    +0.120 C 
BRANCH  11  15
ATOM      1  F   UNL     1      -1.922  -9.064  10.348  0.00  0.00    -0.205 F 
ATOM     15  C   UNL     1      -3.868  -9.975  11.357  0.00  0.00    +0.002 A 
ATOM     19  C   UNL     1      -3.245  -9.279  10.322  0.00  0.00    +0.128 A 
ATOM     20  C   UNL     1      -5.245 -10.196  11.321  0.00  0.00    +0.008 A 
ATOM     21  C   UNL     1      -3.999  -8.803   9.250  0.00  0.00    +0.038 A 
ATOM     22  C   UNL     1      -5.999  -9.719  10.248  0.00  0.00    +0.000 A 
ATOM     23  C   UNL     1      -5.376  -9.022   9.213  0.00  0.00    +0.003 A 
ENDBRANCH  11  15
ENDBRANCH   4  11
ENDBRANCH   6   4
BRANCH   6   9
ATOM      9  C   UNL     1      -2.657 -11.133  15.150  0.00  0.00    +0.085 C 
BRANCH   9  10
ATOM      3  O   UNL     1      -5.985 -10.545  16.305  0.00  0.00    -0.359 OA
ATOM      5  N   UNL     1      -4.994 -10.485  15.333  0.00  0.00    -0.083 NA
ATOM     10  C   UNL     1      -3.915 -11.029  15.907  0.00  0.00    +0.086 A 
ATOM     13  C   UNL     1      -4.165 -11.446  17.225  0.00  0.00    +0.071 A 
ATOM     14  C   UNL     1      -5.481 -11.119  17.426  0.00  0.00    +0.143 A 
BRANCH  14  12
ATOM     12  C   UNL     1      -6.444 -11.269  18.615  0.00  0.00    +0.023 C 
ATOM     16  C   UNL     1      -5.762 -11.126  19.996  0.00  0.00    +0.019 C 
ATOM     17  C   UNL     1      -7.540 -10.184  18.535  0.00  0.00    +0.019 C 
ATOM     18  C   UNL     1      -7.105 -12.663  18.576  0.00  0.00    +0.019 C 
ENDBRANCH  14  12
ENDBRANCH   9  10
ENDBRANCH   6   9
TORSDOF 6
ENDMDL
MODEL 3
REMARK VINA RESULT:      -5.8     26.285     27.817
REMARK  Name = 56775464
REMARK  9 active torsions:
REMARK  status: ('A' for Active; 'I' for Inactive)
REMARK    1  A    between atoms: N_4  and  C_6
REMARK    2  A    between atoms: N_4  and  C_11
REMARK    3  A    between atoms: C_6  and  C_9
REMARK    4  A    between atoms: C_9  and  C_10
REMARK    5  A    between atoms: C_11  and  C_15
REMARK    6  A    between atoms: C_12  and  C_14
REMARK    7  A    between atoms: C_12  and  C_16
REMARK    8  A    between atoms: C_12  and  C_17
REMARK    9  A    between atoms: C_12  and  C_18
REMARK                            x       y       z     vdW  Elec       q    Type
REMARK                         _______ _______ _______ _____ _____    ______ ____
ROOT
ATOM      2  O   UNL     1      -2.242 -13.737  13.126  0.00  0.00    -0.376 OA
ATOM      6  C   UNL     1      -2.615 -11.958  14.247  0.00  0.00    +0.072 C 
ATOM      7  C   UNL     1      -3.417 -12.940  13.401  0.00  0.00    +0.184 C 
ATOM      8  C   UNL     1      -1.443 -12.899  13.993  0.00  0.00    +0.184 C 
ENDROOT
BRANCH   6   4
ATOM      4  N   UNL     1      -3.030 -12.090  15.637  0.00  0.00    -0.302 NA
ATOM     24  H   UNL     1      -3.898 -12.603  15.782  0.00  0.00    +0.123 HD
BRANCH   4  11
ATOM     11  C   UNL     1      -3.126 -10.768  16.252  0.00  0.00    +0.120 C 
BRANCH  11  15
ATOM      1  F   UNL     1      -3.642 -11.698  18.877  0.00  0.00    -0.205 F 
ATOM     15  C   UNL     1      -4.445 -10.569  16.950  0.00  0.00    +0.002 A 
ATOM     19  C   UNL     1      -4.632 -11.054  18.244  0.00  0.00    +0.128 A 
ATOM     20  C   UNL     1      -5.481  -9.898  16.299  0.00  0.00    +0.008 A 
ATOM     21  C   UNL     1      -5.856 -10.868  18.888  0.00  0.00    +0.038 A 
ATOM     22  C   UNL     1      -6.705  -9.713  16.944  0.00  0.00    +0.000 A 
ATOM     23  C   UNL     1      -6.892 -10.198  18.238  0.00  0.00    +0.003 A 
ENDBRANCH  11  15
ENDBRANCH   4  11
ENDBRANCH   6   4
BRANCH   6   9
ATOM      9  C   UNL     1      -2.508 -10.497  13.792  0.00  0.00    +0.085 C 
BRANCH   9  10
ATOM      3  O   UNL     1      -3.094 -10.223  10.280  0.00  0.00    -0.359 OA
ATOM      5  N   UNL     1      -2.266 -10.447  11.373  0.00  0.00    -0.083 NA
ATOM     10  C   UNL     1      -3.062 -10.319  12.440  0.00  0.00    +0.086 A 
ATOM     13  C   UNL     1      -4.388 -10.019  12.084  0.00  0.00    +0.071 A 
ATOM     14  C   UNL     1      -4.355  -9.969  10.715  0.00  0.00    +0.143 A 
BRANCH  14  12
ATOM     12  C   UNL     1      -5.413  -9.696   9.635  0.00  0.00    +0.023 C 
ATOM     16  C   UNL     1      -6.761 -10.414   9.882  0.00  0.00    +0.019 C 
ATOM     17  C   UNL     1      -5.710  -8.182   9.569  0.00  0.00    +0.019 C 
ATOM     18  C   UNL     1      -4.890 -10.171   8.263  0.00  0.00    +0.019 C 
ENDBRANCH  14  12
ENDBRANCH   9  10
ENDBRANCH   6   9
TORSDOF 6
ENDMDL
MODEL 4
REMARK VINA RESULT:      -5.8      5.398     10.037
REMARK  Name = 56775464
REMARK  9 active torsions:
REMARK  status: ('A' for Active; 'I' for Inactive)
REMARK    1  A    between atoms: N_4  and  C_6
REMARK    2  A    between atoms: N_4  and  C_11
REMARK    3  A    between atoms: C_6  and  C_9
REMARK    4  A    between atoms: C_9  and  C_10
REMARK    5  A    between atoms: C_11  and  C_15
REMARK    6  A    between atoms: C_12  and  C_14
REMARK    7  A    between atoms: C_12  and  C_16
REMARK    8  A    between atoms: C_12  and  C_17
REMARK    9  A    between atoms: C_12  and  C_18
REMARK                            x       y       z     vdW  Elec       q    Type
REMARK                         _______ _______ _______ _____ _____    ______ ____
ROOT
ATOM      2  O   UNL     1      20.555   8.058  23.925  0.00  0.00    -0.376 OA
ATOM      6  C   UNL     1      20.005   7.167  22.064  0.00  0.00    +0.072 C 
ATOM      7  C   UNL     1      20.591   6.713  23.396  0.00  0.00    +0.184 C 
ATOM      8  C   UNL     1      19.909   8.538  22.723  0.00  0.00    +0.184 C 
ENDROOT
BRANCH   6   4
ATOM      4  N   UNL     1      18.663   6.617  21.929  0.00  0.00    -0.302 NA
ATOM     24  H   UNL     1      18.556   5.656  22.251  0.00  0.00    +0.123 HD
BRANCH   4  11
ATOM     11  C   UNL     1      18.222   6.728  20.541  0.00  0.00    +0.120 C 
BRANCH  11  15
ATOM      1  F   UNL     1      16.481   5.781  18.516  0.00  0.00    -0.205 F 
ATOM     15  C   UNL     1      16.775   7.135  20.443  0.00  0.00    +0.002 A 
ATOM     19  C   UNL     1      15.973   6.631  19.420  0.00  0.00    +0.128 A 
ATOM     20  C   UNL     1      16.238   8.019  21.380  0.00  0.00    +0.008 A 
ATOM     21  C   UNL     1      14.634   7.011  19.332  0.00  0.00    +0.038 A 
ATOM     22  C   UNL     1      14.898   8.398  21.292  0.00  0.00    +0.000 A 
ATOM     23  C   UNL     1      14.096   7.894  20.268  0.00  0.00    +0.003 A 
ENDBRANCH  11  15
ENDBRANCH   4  11
ENDBRANCH   6   4
BRANCH   6   9
ATOM      9  C   UNL     1      20.845   7.012  20.790  0.00  0.00    +0.085 C 
BRANCH   9  10
ATOM      3  O   UNL     1      21.895   3.598  20.804  0.00  0.00    -0.359 OA
ATOM      5  N   UNL     1      20.913   4.582  20.813  0.00  0.00    -0.083 NA
ATOM     10  C   UNL     1      21.583   5.738  20.791  0.00  0.00    +0.086 A 
ATOM     13  C   UNL     1      22.975   5.549  20.768  0.00  0.00    +0.071 A 
ATOM     14  C   UNL     1      23.118   4.186  20.778  0.00  0.00    +0.143 A 
BRANCH  14  12
ATOM     12  C   UNL     1      24.333   3.243  20.766  0.00  0.00    +0.023 C 
ATOM     16  C   UNL     1      25.110   3.242  19.429  0.00  0.00    +0.019 C 
ATOM     17  C   UNL     1      25.327   3.663  21.869  0.00  0.00    +0.019 C 
ATOM     18  C   UNL     1      23.869   1.794  21.024  0.00  0.00    +0.019 C 
ENDBRANCH  14  12
ENDBRANCH   9  10
ENDBRANCH   6   9
TORSDOF 6
ENDMDL
MODEL 5
REMARK VINA RESULT:      -5.8     15.701     19.348
REMARK  Name = 56775464
REMARK  9 active torsions:
REMARK  status: ('A' for Active; 'I' for Inactive)
REMARK    1  A    between atoms: N_4  and  C_6
REMARK    2  A    between atoms: N_4  and  C_11
REMARK    3  A    between atoms: C_6  and  C_9
REMARK    4  A    between atoms: C_9  and  C_10
REMARK    5  A    between atoms: C_11  and  C_15
REMARK    6  A    between atoms: C_12  and  C_14
REMARK    7  A    between atoms: C_12  and  C_16
REMARK    8  A    between atoms: C_12  and  C_17
REMARK    9  A    between atoms: C_12  and  C_18
REMARK                            x       y       z     vdW  Elec       q    Type
REMARK                         _______ _______ _______ _____ _____    ______ ____
ROOT
ATOM      2  O   UNL     1      12.951   7.730   3.767  0.00  0.00    -0.376 OA
ATOM      6  C   UNL     1      11.291   6.406   3.544  0.00  0.00    +0.072 C 
ATOM      7  C   UNL     1      12.731   6.494   3.050  0.00  0.00    +0.184 C 
ATOM      8  C   UNL     1      11.629   7.657   4.348  0.00  0.00    +0.184 C 
ENDROOT
BRANCH   6   4
ATOM      4  N   UNL     1      11.178   5.278   4.459  0.00  0.00    -0.302 NA
ATOM     24  H   UNL     1      11.538   4.395   4.102  0.00  0.00    +0.123 HD
BRANCH   4  11
ATOM     11  C   UNL     1       9.785   5.115   4.871  0.00  0.00    +0.120 C 
BRANCH  11  15
ATOM      1  F   UNL     1       8.901   7.475   6.164  0.00  0.00    -0.205 F 
ATOM     15  C   UNL     1       9.626   5.224   6.365  0.00  0.00    +0.002 A 
ATOM     19  C   UNL     1       9.187   6.417   6.936  0.00  0.00    +0.128 A 
ATOM     20  C   UNL     1       9.921   4.128   7.176  0.00  0.00    +0.008 A 
ATOM     21  C   UNL     1       9.041   6.515   8.320  0.00  0.00    +0.038 A 
ATOM     22  C   UNL     1       9.775   4.227   8.560  0.00  0.00    +0.000 A 
ATOM     23  C   UNL     1       9.335   5.420   9.132  0.00  0.00    +0.003 A 
ENDBRANCH  11  15
ENDBRANCH   4  11
ENDBRANCH   6   4
BRANCH   6   9
ATOM      9  C   UNL     1      10.149   6.464   2.523  0.00  0.00    +0.085 C 
BRANCH   9  10
ATOM      3  O   UNL     1      10.553   3.731   0.260  0.00  0.00    -0.359 OA
ATOM      5  N   UNL     1      10.220   4.259   1.502  0.00  0.00    -0.083 NA
ATOM     10  C   UNL     1      10.412   5.576   1.379  0.00  0.00    +0.086 A 
ATOM     13  C   UNL     1      10.861   5.933   0.096  0.00  0.00    +0.071 A 
ATOM     14  C   UNL     1      10.933   4.737  -0.568  0.00  0.00    +0.143 A 
BRANCH  14  12
ATOM     12  C   UNL     1      11.340   4.335  -1.995  0.00  0.00    +0.023 C 
ATOM     16  C   UNL     1      10.142   4.037  -2.927  0.00  0.00    +0.019 C 
ATOM     17  C   UNL     1      12.149   5.477  -2.646  0.00  0.00    +0.019 C 
ATOM     18  C   UNL     1      12.208   3.059  -1.948  0.00  0.00    +0.019 C 
ENDBRANCH  14  12
ENDBRANCH   9  10
ENDBRANCH   6   9
TORSDOF 6
ENDMDL
MODEL 6
REMARK VINA RESULT:      -5.7     25.849     27.783
REMARK  Name = 56775464
REMARK  9 active torsions:
REMARK  status: ('A' for Active; 'I' for Inactive)
REMARK    1  A    between atoms: N_4  and  C_6
REMARK    2  A    between atoms: N_4  and  C_11
REMARK    3  A    between atoms: C_6  and  C_9
REMARK    4  A    between atoms: C_9  and  C_10
REMARK    5  A    between atoms: C_11  and  C_15
REMARK    6  A    between atoms: C_12  and  C_14
REMARK    7  A    between atoms: C_12  and  C_16
REMARK    8  A    between atoms: C_12  and  C_17
REMARK    9  A    between atoms: C_12  and  C_18
REMARK                            x       y       z     vdW  Elec       q    Type
REMARK                         _______ _______ _______ _____ _____    ______ ____
ROOT
ATOM      2  O   UNL     1      -1.064 -11.381  15.386  0.00  0.00    -0.376 OA
ATOM      6  C   UNL     1      -3.198 -11.339  15.326  0.00  0.00    +0.072 C 
ATOM      7  C   UNL     1      -2.086 -10.703  16.152  0.00  0.00    +0.184 C 
ATOM      8  C   UNL     1      -2.064 -11.942  14.504  0.00  0.00    +0.184 C 
ENDROOT
BRANCH   6   4
ATOM      4  N   UNL     1      -3.848 -10.302  14.536  0.00  0.00    -0.302 NA
ATOM     24  H   UNL     1      -4.455  -9.675  15.063  0.00  0.00    +0.123 HD
BRANCH   4  11
ATOM     11  C   UNL     1      -4.596 -10.911  13.439  0.00  0.00    +0.120 C 
BRANCH  11  15
ATOM      1  F   UNL     1      -6.599  -9.167  12.455  0.00  0.00    -0.205 F 
ATOM     15  C   UNL     1      -4.450 -10.130  12.159  0.00  0.00    +0.002 A 
ATOM     19  C   UNL     1      -5.476  -9.289  11.732  0.00  0.00    +0.128 A 
ATOM     20  C   UNL     1      -3.284 -10.250  11.402  0.00  0.00    +0.008 A 
ATOM     21  C   UNL     1      -5.338  -8.567  10.546  0.00  0.00    +0.038 A 
ATOM     22  C   UNL     1      -3.147  -9.528  10.215  0.00  0.00    +0.000 A 
ATOM     23  C   UNL     1      -4.174  -8.687   9.788  0.00  0.00    +0.003 A 
ENDBRANCH  11  15
ENDBRANCH   4  11
ENDBRANCH   6   4
BRANCH   6   9
ATOM      9  C   UNL     1      -4.196 -12.277  16.016  0.00  0.00    +0.085 C 
BRANCH   9  10
ATOM      3  O   UNL     1      -6.337 -10.050  17.809  0.00  0.00    -0.359 OA
ATOM      5  N   UNL     1      -5.082 -10.542  17.471  0.00  0.00    -0.083 NA
ATOM     10  C   UNL     1      -5.320 -11.524  16.596  0.00  0.00    +0.086 A 
ATOM     13  C   UNL     1      -6.692 -11.696  16.347  0.00  0.00    +0.071 A 
ATOM     14  C   UNL     1      -7.287 -10.745  17.133  0.00  0.00    +0.143 A 
BRANCH  14  12
ATOM     12  C   UNL     1      -8.747 -10.335  17.386  0.00  0.00    +0.023 C 
ATOM     16  C   UNL     1      -9.267 -10.706  18.795  0.00  0.00    +0.019 C 
ATOM     17  C   UNL     1      -8.890  -8.804  17.239  0.00  0.00    +0.019 C 
ATOM     18  C   UNL     1      -9.668 -11.032  16.363  0.00  0.00    +0.019 C 
ENDBRANCH  14  12
ENDBRANCH   9  10
ENDBRANCH   6   9
TORSDOF 6
ENDMDL
MODEL 7
REMARK VINA RESULT:      -5.6     26.467     28.748
REMARK  Name = 56775464
REMARK  9 active torsions:
REMARK  status: ('A' for Active; 'I' for Inactive)
REMARK    1  A    between atoms: N_4  and  C_6
REMARK    2  A    between atoms: N_4  and  C_11
REMARK    3  A    between atoms: C_6  and  C_9
REMARK    4  A    between atoms: C_9  and  C_10
REMARK    5  A    between atoms: C_11  and  C_15
REMARK    6  A    between atoms: C_12  and  C_14
REMARK    7  A    between atoms: C_12  and  C_16
REMARK    8  A    between atoms: C_12  and  C_17
REMARK    9  A    between atoms: C_12  and  C_18
REMARK                            x       y       z     vdW  Elec       q    Type
REMARK                         _______ _______ _______ _____ _____    ______ ____
ROOT
ATOM      2  O   UNL     1      -4.707 -13.782  17.828  0.00  0.00    -0.376 OA
ATOM      6  C   UNL     1      -5.219 -11.819  17.163  0.00  0.00    +0.072 C 
ATOM      7  C   UNL     1      -5.046 -13.203  16.547  0.00  0.00    +0.184 C 
ATOM      8  C   UNL     1      -4.948 -12.519  18.490  0.00  0.00    +0.184 C 
ENDROOT
BRANCH   6   4
ATOM      4  N   UNL     1      -6.628 -11.454  17.106  0.00  0.00    -0.302 NA
ATOM     24  H   UNL     1      -7.026 -11.410  16.169  0.00  0.00    +0.123 HD
BRANCH   4  11
ATOM     11  C   UNL     1      -6.836 -10.180  17.792  0.00  0.00    +0.120 C 
BRANCH  11  15
ATOM      1  F   UNL     1      -8.637 -11.535  19.510  0.00  0.00    -0.205 F 
ATOM     15  C   UNL     1      -8.298  -9.830  17.893  0.00  0.00    +0.002 A 
ATOM     19  C   UNL     1      -9.129 -10.539  18.760  0.00  0.00    +0.128 A 
ATOM     20  C   UNL     1      -8.818  -8.794  17.117  0.00  0.00    +0.008 A 
ATOM     21  C   UNL     1     -10.482 -10.213  18.850  0.00  0.00    +0.038 A 
ATOM     22  C   UNL     1     -10.172  -8.469  17.208  0.00  0.00    +0.000 A 
ATOM     23  C   UNL     1     -11.004  -9.177  18.074  0.00  0.00    +0.003 A 
ENDBRANCH  11  15
ENDBRANCH   4  11
ENDBRANCH   6   4
BRANCH   6   9
ATOM      9  C   UNL     1      -4.289 -10.684  16.718  0.00  0.00    +0.085 C 
BRANCH   9  10
ATOM      3  O   UNL     1      -5.033 -10.177  13.261  0.00  0.00    -0.359 OA
ATOM      5  N   UNL     1      -5.393 -10.213  14.603  0.00  0.00    -0.083 NA
ATOM     10  C   UNL     1      -4.274 -10.553  15.252  0.00  0.00    +0.086 A 
ATOM     13  C   UNL     1      -3.189 -10.742  14.380  0.00  0.00    +0.071 A 
ATOM     14  C   UNL     1      -3.718 -10.494  13.141  0.00  0.00    +0.143 A 
BRANCH  14  12
ATOM     12  C   UNL     1      -3.142 -10.505  11.716  0.00  0.00    +0.023 C 
ATOM     16  C   UNL     1      -1.663 -10.060  11.636  0.00  0.00    +0.019 C 
ATOM     17  C   UNL     1      -3.219 -11.933  11.135  0.00  0.00    +0.019 C 
ATOM     18  C   UNL     1      -3.954  -9.546  10.819  0.00  0.00    +0.019 C 
ENDBRANCH  14  12
ENDBRANCH   9  10
ENDBRANCH   6   9
TORSDOF 6
ENDMDL
MODEL 8
REMARK VINA RESULT:      -5.6     29.931     31.383
REMARK  Name = 56775464
REMARK  9 active torsions:
REMARK  status: ('A' for Active; 'I' for Inactive)
REMARK    1  A    between atoms: N_4  and  C_6
REMARK    2  A    between atoms: N_4  and  C_11
REMARK    3  A    between atoms: C_6  and  C_9
REMARK    4  A    between atoms: C_9  and  C_10
REMARK    5  A    between atoms: C_11  and  C_15
REMARK    6  A    between atoms: C_12  and  C_14
REMARK    7  A    between atoms: C_12  and  C_16
REMARK    8  A    between atoms: C_12  and  C_17
REMARK    9  A    between atoms: C_12  and  C_18
REMARK                            x       y       z     vdW  Elec       q    Type
REMARK                         _______ _______ _______ _____ _____    ______ ____
ROOT
ATOM      2  O   UNL     1     -13.817   0.056  30.358  0.00  0.00    -0.376 OA
ATOM      6  C   UNL     1     -14.803   1.711  31.278  0.00  0.00    +0.072 C 
ATOM      7  C   UNL     1     -14.778   0.195  31.430  0.00  0.00    +0.184 C 
ATOM      8  C   UNL     1     -13.722   1.493  30.226  0.00  0.00    +0.184 C 
ENDROOT
BRANCH   6   4
ATOM      4  N   UNL     1     -14.195   2.311  32.458  0.00  0.00    -0.302 NA
ATOM     24  H   UNL     1     -13.750   1.654  33.096  0.00  0.00    +0.123 HD
BRANCH   4  11
ATOM     11  C   UNL     1     -15.190   3.104  33.177  0.00  0.00    +0.120 C 
BRANCH  11  15
ATOM      1  F   UNL     1     -14.738   5.290  31.433  0.00  0.00    -0.205 F 
ATOM     15  C   UNL     1     -14.628   4.423  33.639  0.00  0.00    +0.002 A 
ATOM     19  C   UNL     1     -14.430   5.458  32.726  0.00  0.00    +0.128 A 
ATOM     20  C   UNL     1     -14.305   4.607  34.984  0.00  0.00    +0.008 A 
ATOM     21  C   UNL     1     -13.908   6.678  33.158  0.00  0.00    +0.038 A 
ATOM     22  C   UNL     1     -13.783   5.827  35.415  0.00  0.00    +0.000 A 
ATOM     23  C   UNL     1     -13.585   6.862  34.502  0.00  0.00    +0.003 A 
ENDBRANCH  11  15
ENDBRANCH   4  11
ENDBRANCH   6   4
BRANCH   6   9
ATOM      9  C   UNL     1     -16.113   2.396  30.867  0.00  0.00    +0.085 C 
BRANCH   9  10
ATOM      3  O   UNL     1     -15.799   3.513  27.489  0.00  0.00    -0.359 OA
ATOM      5  N   UNL     1     -15.539   3.627  28.850  0.00  0.00    -0.083 NA
ATOM     10  C   UNL     1     -16.176   2.592  29.410  0.00  0.00    +0.086 A 
ATOM     13  C   UNL     1     -16.847   1.802  28.462  0.00  0.00    +0.071 A 
ATOM     14  C   UNL     1     -16.578   2.423  27.270  0.00  0.00    +0.143 A 
BRANCH  14  12
ATOM     12  C   UNL     1     -16.969   2.140  25.811  0.00  0.00    +0.023 C 
ATOM     16  C   UNL     1     -16.033   2.803  24.773  0.00  0.00    +0.019 C 
ATOM     17  C   UNL     1     -16.932   0.619  25.549  0.00  0.00    +0.019 C 
ATOM     18  C   UNL     1     -18.394   2.668  25.542  0.00  0.00    +0.019 C 
ENDBRANCH  14  12
ENDBRANCH   9  10
ENDBRANCH   6   9
TORSDOF 6
ENDMDL
MODEL 9
REMARK VINA RESULT:      -5.6     26.987     28.934
REMARK  Name = 56775464
REMARK  9 active torsions:
REMARK  status: ('A' for Active; 'I' for Inactive)
REMARK    1  A    between atoms: N_4  and  C_6
REMARK    2  A    between atoms: N_4  and  C_11
REMARK    3  A    between atoms: C_6  and  C_9
REMARK    4  A    between atoms: C_9  and  C_10
REMARK    5  A    between atoms: C_11  and  C_15
REMARK    6  A    between atoms: C_12  and  C_14
REMARK    7  A    between atoms: C_12  and  C_16
REMARK    8  A    between atoms: C_12  and  C_17
REMARK    9  A    between atoms: C_12  and  C_18
REMARK                            x       y       z     vdW  Elec       q    Type
REMARK                         _______ _______ _______ _____ _____    ______ ____
ROOT
ATOM      2  O   UNL     1      -2.524 -11.544  15.246  0.00  0.00    -0.376 OA
ATOM      6  C   UNL     1      -3.829 -10.994  16.844  0.00  0.00    +0.072 C 
ATOM      7  C   UNL     1      -2.474 -10.556  16.301  0.00  0.00    +0.184 C 
ATOM      8  C   UNL     1      -3.854 -11.943  15.651  0.00  0.00    +0.184 C 
ENDROOT
BRANCH   6   4
ATOM      4  N   UNL     1      -4.794  -9.928  16.615  0.00  0.00    -0.302 NA
ATOM     24  H   UNL     1      -5.332  -9.648  17.434  0.00  0.00    +0.123 HD
BRANCH   4  11
ATOM     11  C   UNL     1      -5.700 -10.306  15.532  0.00  0.00    +0.120 C 
BRANCH  11  15
ATOM      1  F   UNL     1      -7.857 -11.638  14.268  0.00  0.00    -0.205 F 
ATOM     15  C   UNL     1      -7.142 -10.069  15.900  0.00  0.00    +0.002 A 
ATOM     19  C   UNL     1      -8.156 -10.759  15.236  0.00  0.00    +0.128 A 
ATOM     20  C   UNL     1      -7.461  -9.157  16.906  0.00  0.00    +0.008 A 
ATOM     21  C   UNL     1      -9.489 -10.537  15.578  0.00  0.00    +0.038 A 
ATOM     22  C   UNL     1      -8.796  -8.936  17.248  0.00  0.00    +0.000 A 
ATOM     23  C   UNL     1      -9.809  -9.625  16.584  0.00  0.00    +0.003 A 
ENDBRANCH  11  15
ENDBRANCH   4  11
ENDBRANCH   6   4
BRANCH   6   9
ATOM      9  C   UNL     1      -3.910 -11.578  18.260  0.00  0.00    +0.085 C 
BRANCH   9  10
ATOM      3  O   UNL     1      -7.052 -10.904  19.818  0.00  0.00    -0.359 OA
ATOM      5  N   UNL     1      -5.726 -10.594  19.544  0.00  0.00    -0.083 NA
ATOM     10  C   UNL     1      -5.297 -11.585  18.755  0.00  0.00    +0.086 A 
ATOM     13  C   UNL     1      -6.298 -12.537  18.501  0.00  0.00    +0.071 A 
ATOM     14  C   UNL     1      -7.381 -12.063  19.192  0.00  0.00    +0.143 A 
BRANCH  14  12
ATOM     12  C   UNL     1      -8.822 -12.563  19.386  0.00  0.00    +0.023 C 
ATOM     16  C   UNL     1      -9.803 -11.471  19.873  0.00  0.00    +0.019 C 
ATOM     17  C   UNL     1      -9.370 -13.100  18.046  0.00  0.00    +0.019 C 
ATOM     18  C   UNL     1      -8.843 -13.695  20.435  0.00  0.00    +0.019 C 
ENDBRANCH  14  12
ENDBRANCH   9  10
ENDBRANCH   6   9
TORSDOF 6
ENDMDL
MODEL 10
REMARK VINA RESULT:      -5.6     29.976     31.385
REMARK  Name = 56775464
REMARK  9 active torsions:
REMARK  status: ('A' for Active; 'I' for Inactive)
REMARK    1  A    between atoms: N_4  and  C_6
REMARK    2  A    between atoms: N_4  and  C_11
REMARK    3  A    between atoms: C_6  and  C_9
REMARK    4  A    between atoms: C_9  and  C_10
REMARK    5  A    between atoms: C_11  and  C_15
REMARK    6  A    between atoms: C_12  and  C_14
REMARK    7  A    between atoms: C_12  and  C_16
REMARK    8  A    between atoms: C_12  and  C_17
REMARK    9  A    between atoms: C_12  and  C_18
REMARK                            x       y       z     vdW  Elec       q    Type
REMARK                         _______ _______ _______ _____ _____    ______ ____
ROOT
ATOM      2  O   UNL     1     -14.386  -1.041  30.109  0.00  0.00    -0.376 OA
ATOM      6  C   UNL     1     -14.947   1.010  29.917  0.00  0.00    +0.072 C 
ATOM      7  C   UNL     1     -15.026  -0.080  30.980  0.00  0.00    +0.184 C 
ATOM      8  C   UNL     1     -14.193  -0.029  29.094  0.00  0.00    +0.184 C 
ENDROOT
BRANCH   6   4
ATOM      4  N   UNL     1     -14.006   2.030  30.360  0.00  0.00    -0.302 NA
ATOM     24  H   UNL     1     -13.131   2.066  29.838  0.00  0.00    +0.123 HD
BRANCH   4  11
ATOM     11  C   UNL     1     -13.728   1.860  31.784  0.00  0.00    +0.120 C 
BRANCH  11  15
ATOM      1  F   UNL     1     -14.780   1.975  34.412  0.00  0.00    -0.205 F 
ATOM     15  C   UNL     1     -13.899   3.148  32.546  0.00  0.00    +0.002 A 
ATOM     19  C   UNL     1     -14.424   3.133  33.838  0.00  0.00    +0.128 A 
ATOM     20  C   UNL     1     -13.530   4.358  31.956  0.00  0.00    +0.008 A 
ATOM     21  C   UNL     1     -14.581   4.328  34.540  0.00  0.00    +0.038 A 
ATOM     22  C   UNL     1     -13.688   5.552  32.659  0.00  0.00    +0.000 A 
ATOM     23  C   UNL     1     -14.213   5.537  33.951  0.00  0.00    +0.003 A 
ENDBRANCH  11  15
ENDBRANCH   4  11
ENDBRANCH   6   4
BRANCH   6   9
ATOM      9  C   UNL     1     -16.248   1.600  29.358  0.00  0.00    +0.085 C 
BRANCH   9  10
ATOM      3  O   UNL     1     -16.082   5.156  29.637  0.00  0.00    -0.359 OA
ATOM      5  N   UNL     1     -15.725   3.953  29.040  0.00  0.00    -0.083 NA
ATOM     10  C   UNL     1     -16.390   3.018  29.726  0.00  0.00    +0.086 A 
ATOM     13  C   UNL     1     -17.173   3.566  30.756  0.00  0.00    +0.071 A 
ATOM     14  C   UNL     1     -16.944   4.913  30.657  0.00  0.00    +0.143 A 
BRANCH  14  12
ATOM     12  C   UNL     1     -17.448   6.139  31.437  0.00  0.00    +0.023 C 
ATOM     16  C   UNL     1     -17.614   5.890  32.955  0.00  0.00    +0.019 C 
ATOM     17  C   UNL     1     -16.449   7.305  31.275  0.00  0.00    +0.019 C 
ATOM     18  C   UNL     1     -18.826   6.571  30.894  0.00  0.00    +0.019 C 
ENDBRANCH  14  12
ENDBRANCH   9  10
ENDBRANCH   6   9
TORSDOF 6
ENDMDL
