MODEL 1
REMARK VINA RESULT:      -7.9      0.000      0.000
REMARK  Name = 51136890
REMARK  7 active torsions:
REMARK  status: ('A' for Active; 'I' for Inactive)
REMARK    1  A    between atoms: O_4  and  C_32
REMARK    2  A    between atoms: O_4  and  C_33
REMARK    3  A    between atoms: N_5  and  C_10
REMARK    4  A    between atoms: N_9  and  C_25
REMARK    5  A    between atoms: C_11  and  C_19
REMARK    6  A    between atoms: C_20  and  C_21
REMARK    7  A    between atoms: C_26  and  C_27
REMARK                            x       y       z     vdW  Elec       q    Type
REMARK                         _______ _______ _______ _____ _____    ______ ____
ROOT
ATOM      8  N   UNL     1      19.861   4.323  19.910  0.00  0.00    -0.239 NA
ATOM     21  C   UNL     1      18.516   6.266  20.419  0.00  0.00    +0.041 A 
ATOM     22  C   UNL     1      19.434   6.656  21.388  0.00  0.00    +0.016 A 
ATOM     23  C   UNL     1      18.773   5.102  19.714  0.00  0.00    +0.124 A 
ATOM     24  C   UNL     1      20.565   5.881  21.618  0.00  0.00    +0.044 A 
ATOM     25  C   UNL     1      20.731   4.734  20.859  0.00  0.00    +0.125 A 
ENDROOT
BRANCH  21  20
ATOM      2  O   UNL     1      15.939   8.656  20.089  0.00  0.00    -0.336 OA
ATOM      6  N   UNL     1      16.269   6.523  19.492  0.00  0.00    -0.190 NA
ATOM      7  N   UNL     1      17.218   8.317  20.548  0.00  0.00    -0.056 NA
ATOM     19  C   UNL     1      15.451   7.544  19.479  0.00  0.00    +0.245 A 
ATOM     20  C   UNL     1      17.340   7.044  20.158  0.00  0.00    +0.204 A 
BRANCH  19  11
ATOM      5  N   UNL     1      13.209   8.617  19.616  0.00  0.00    -0.288 NA
ATOM     11  C   UNL     1      14.061   7.654  18.888  0.00  0.00    +0.146 C 
ATOM     12  C   UNL     1      12.263   9.153  18.637  0.00  0.00    +0.085 C 
ATOM     13  C   UNL     1      14.071   8.162  17.434  0.00  0.00    +0.030 C 
ATOM     14  C   UNL     1      13.152   9.375  17.430  0.00  0.00    +0.017 C 
BRANCH   5  10
ATOM      1  O   UNL     1      10.136   6.943  21.934  0.00  0.00    -0.380 OA
ATOM     10  C   UNL     1      12.534   8.032  20.770  0.00  0.00    +0.062 C 
ATOM     15  C   UNL     1      11.359   8.913  21.204  0.00  0.00    +0.047 C 
ATOM     16  C   UNL     1      12.041   6.615  20.461  0.00  0.00    +0.047 C 
ATOM     17  C   UNL     1      10.580   8.241  22.330  0.00  0.00    +0.161 C 
ATOM     18  C   UNL     1      11.225   6.071  21.628  0.00  0.00    +0.161 C 
ENDBRANCH   5  10
ENDBRANCH  19  11
ENDBRANCH  21  20
BRANCH  25   9
ATOM      3  O   UNL     1      23.610   5.276  20.217  0.00  0.00    -0.270 OA
ATOM      9  N   UNL     1      21.873   3.961  21.100  0.00  0.00    -0.266 N 
ATOM     26  C   UNL     1      23.199   4.265  20.777  0.00  0.00    +0.249 C 
ATOM     34  H   UNL     1      21.668   3.105  21.605  0.00  0.00    +0.157 HD
BRANCH  26  27
ATOM     27  C   UNL     1      24.201   3.248  21.189  0.00  0.00    +0.037 A 
ATOM     28  C   UNL     1      23.854   1.896  21.208  0.00  0.00    +0.016 A 
ATOM     29  C   UNL     1      25.486   3.644  21.558  0.00  0.00    +0.016 A 
ATOM     30  C   UNL     1      24.794   0.941  21.597  0.00  0.00    +0.046 A 
ATOM     31  C   UNL     1      26.426   2.688  21.945  0.00  0.00    +0.046 A 
ATOM     32  C   UNL     1      26.079   1.337  21.965  0.00  0.00    +0.120 A 
BRANCH  32   4
ATOM      4  O   UNL     1      26.996   0.404  22.343  0.00  0.00    -0.495 OA
ATOM     33  C   UNL     1      26.503  -0.893  22.674  0.00  0.00    +0.277 C 
ENDBRANCH  32   4
ENDBRANCH  26  27
ENDBRANCH  25   9
TORSDOF 6
ENDMDL
MODEL 2
REMARK VINA RESULT:      -7.7      1.576      2.915
REMARK  Name = 51136890
REMARK  7 active torsions:
REMARK  status: ('A' for Active; 'I' for Inactive)
REMARK    1  A    between atoms: O_4  and  C_32
REMARK    2  A    between atoms: O_4  and  C_33
REMARK    3  A    between atoms: N_5  and  C_10
REMARK    4  A    between atoms: N_9  and  C_25
REMARK    5  A    between atoms: C_11  and  C_19
REMARK    6  A    between atoms: C_20  and  C_21
REMARK    7  A    between atoms: C_26  and  C_27
REMARK                            x       y       z     vdW  Elec       q    Type
REMARK                         _______ _______ _______ _____ _____    ______ ____
ROOT
ATOM      8  N   UNL     1      20.556   5.993  22.340  0.00  0.00    -0.239 NA
ATOM     21  C   UNL     1      18.619   6.680  21.067  0.00  0.00    +0.041 A 
ATOM     22  C   UNL     1      18.888   5.701  20.117  0.00  0.00    +0.016 A 
ATOM     23  C   UNL     1      19.476   6.785  22.151  0.00  0.00    +0.124 A 
ATOM     24  C   UNL     1      19.990   4.869  20.277  0.00  0.00    +0.044 A 
ATOM     25  C   UNL     1      20.785   5.053  21.396  0.00  0.00    +0.125 A 
ENDROOT
BRANCH  21  20
ATOM      2  O   UNL     1      16.286   9.308  20.735  0.00  0.00    -0.336 OA
ATOM      6  N   UNL     1      16.214   7.073  20.867  0.00  0.00    -0.190 NA
ATOM      7  N   UNL     1      17.614   8.883  20.858  0.00  0.00    -0.056 NA
ATOM     19  C   UNL     1      15.527   8.180  20.749  0.00  0.00    +0.245 A 
ATOM     20  C   UNL     1      17.490   7.554  20.930  0.00  0.00    +0.204 A 
BRANCH  19  11
ATOM      5  N   UNL     1      13.461   7.672  19.459  0.00  0.00    -0.288 NA
ATOM     11  C   UNL     1      14.030   8.373  20.627  0.00  0.00    +0.146 C 
ATOM     12  C   UNL     1      12.083   7.329  19.814  0.00  0.00    +0.085 C 
ATOM     13  C   UNL     1      13.258   7.810  21.835  0.00  0.00    +0.030 C 
ATOM     14  C   UNL     1      12.238   6.848  21.243  0.00  0.00    +0.017 C 
BRANCH   5  10
ATOM      1  O   UNL     1      12.941   8.689  15.419  0.00  0.00    -0.380 OA
ATOM     10  C   UNL     1      13.533   8.452  18.226  0.00  0.00    +0.062 C 
ATOM     15  C   UNL     1      14.315   7.686  17.156  0.00  0.00    +0.047 C 
ATOM     16  C   UNL     1      12.134   8.796  17.709  0.00  0.00    +0.047 C 
ATOM     17  C   UNL     1      14.286   8.446  15.833  0.00  0.00    +0.161 C 
ATOM     18  C   UNL     1      12.225   9.494  16.356  0.00  0.00    +0.161 C 
ENDBRANCH   5  10
ENDBRANCH  19  11
ENDBRANCH  21  20
BRANCH  25   9
ATOM      3  O   UNL     1      23.528   5.222  20.196  0.00  0.00    -0.270 OA
ATOM      9  N   UNL     1      21.892   4.210  21.547  0.00  0.00    -0.266 N 
ATOM     26  C   UNL     1      23.155   4.338  20.960  0.00  0.00    +0.249 C 
ATOM     34  H   UNL     1      21.722   3.451  22.200  0.00  0.00    +0.157 HD
BRANCH  26  27
ATOM     27  C   UNL     1      24.138   3.290  21.338  0.00  0.00    +0.037 A 
ATOM     28  C   UNL     1      23.809   1.941  21.198  0.00  0.00    +0.016 A 
ATOM     29  C   UNL     1      25.391   3.654  21.833  0.00  0.00    +0.016 A 
ATOM     30  C   UNL     1      24.731   0.957  21.554  0.00  0.00    +0.046 A 
ATOM     31  C   UNL     1      26.313   2.669  22.188  0.00  0.00    +0.046 A 
ATOM     32  C   UNL     1      25.983   1.321  22.049  0.00  0.00    +0.120 A 
BRANCH  32   4
ATOM      4  O   UNL     1      26.883   0.361  22.395  0.00  0.00    -0.495 OA
ATOM     33  C   UNL     1      26.377  -0.787  23.075  0.00  0.00    +0.277 C 
ENDBRANCH  32   4
ENDBRANCH  26  27
ENDBRANCH  25   9
TORSDOF 6
ENDMDL
MODEL 3
REMARK VINA RESULT:      -7.4     29.962     33.210
REMARK  Name = 51136890
REMARK  7 active torsions:
REMARK  status: ('A' for Active; 'I' for Inactive)
REMARK    1  A    between atoms: O_4  and  C_32
REMARK    2  A    between atoms: O_4  and  C_33
REMARK    3  A    between atoms: N_5  and  C_10
REMARK    4  A    between atoms: N_9  and  C_25
REMARK    5  A    between atoms: C_11  and  C_19
REMARK    6  A    between atoms: C_20  and  C_21
REMARK    7  A    between atoms: C_26  and  C_27
REMARK                            x       y       z     vdW  Elec       q    Type
REMARK                         _______ _______ _______ _____ _____    ______ ____
ROOT
ATOM      8  N   UNL     1     -13.382   5.123  22.604  0.00  0.00    -0.239 NA
ATOM     21  C   UNL     1     -13.808   6.878  20.995  0.00  0.00    +0.041 A 
ATOM     22  C   UNL     1     -15.078   7.069  21.530  0.00  0.00    +0.016 A 
ATOM     23  C   UNL     1     -13.006   5.901  21.563  0.00  0.00    +0.124 A 
ATOM     24  C   UNL     1     -15.500   6.289  22.600  0.00  0.00    +0.044 A 
ATOM     25  C   UNL     1     -14.623   5.338  23.096  0.00  0.00    +0.125 A 
ENDROOT
BRANCH  21  20
ATOM      2  O   UNL     1     -13.297   8.906  18.152  0.00  0.00    -0.336 OA
ATOM      6  N   UNL     1     -12.012   7.844  19.647  0.00  0.00    -0.190 NA
ATOM      7  N   UNL     1     -14.176   8.272  19.039  0.00  0.00    -0.056 NA
ATOM     19  C   UNL     1     -12.044   8.603  18.582  0.00  0.00    +0.245 A 
ATOM     20  C   UNL     1     -13.344   7.667  19.891  0.00  0.00    +0.204 A 
BRANCH  19  11
ATOM      5  N   UNL     1     -11.355   9.906  16.577  0.00  0.00    -0.288 NA
ATOM     11  C   UNL     1     -10.897   9.179  17.778  0.00  0.00    +0.146 C 
ATOM     12  C   UNL     1     -10.357  10.943  16.316  0.00  0.00    +0.085 C 
ATOM     13  C   UNL     1     -10.076  10.213  18.571  0.00  0.00    +0.030 C 
ATOM     14  C   UNL     1     -10.077  11.468  17.710  0.00  0.00    +0.017 C 
BRANCH   5  10
ATOM      1  O   UNL     1     -10.741   8.194  12.793  0.00  0.00    -0.380 OA
ATOM     10  C   UNL     1     -11.561   9.038  15.421  0.00  0.00    +0.062 C 
ATOM     15  C   UNL     1     -11.835   9.875  14.168  0.00  0.00    +0.047 C 
ATOM     16  C   UNL     1     -10.350   8.130  15.191  0.00  0.00    +0.047 C 
ATOM     17  C   UNL     1     -11.928   8.975  12.940  0.00  0.00    +0.161 C 
ATOM     18  C   UNL     1     -10.525   7.327  13.907  0.00  0.00    +0.161 C 
ENDBRANCH   5  10
ENDBRANCH  19  11
ENDBRANCH  21  20
BRANCH  25   9
ATOM      3  O   UNL     1     -16.299   2.852  23.135  0.00  0.00    -0.270 OA
ATOM      9  N   UNL     1     -15.058   4.558  24.173  0.00  0.00    -0.266 N 
ATOM     26  C   UNL     1     -15.843   3.401  24.133  0.00  0.00    +0.249 C 
ATOM     34  H   UNL     1     -14.706   4.888  25.066  0.00  0.00    +0.157 HD
BRANCH  26  27
ATOM     27  C   UNL     1     -16.119   2.776  25.453  0.00  0.00    +0.037 A 
ATOM     28  C   UNL     1     -16.582   1.461  25.518  0.00  0.00    +0.016 A 
ATOM     29  C   UNL     1     -15.915   3.503  26.625  0.00  0.00    +0.016 A 
ATOM     30  C   UNL     1     -16.842   0.875  26.757  0.00  0.00    +0.046 A 
ATOM     31  C   UNL     1     -16.174   2.916  27.864  0.00  0.00    +0.046 A 
ATOM     32  C   UNL     1     -16.638   1.602  27.930  0.00  0.00    +0.120 A 
BRANCH  32   4
ATOM      4  O   UNL     1     -16.891   1.029  29.138  0.00  0.00    -0.495 OA
ATOM     33  C   UNL     1     -15.868   1.123  30.127  0.00  0.00    +0.277 C 
ENDBRANCH  32   4
ENDBRANCH  26  27
ENDBRANCH  25   9
TORSDOF 6
ENDMDL
MODEL 4
REMARK VINA RESULT:      -7.3      2.491      3.463
REMARK  Name = 51136890
REMARK  7 active torsions:
REMARK  status: ('A' for Active; 'I' for Inactive)
REMARK    1  A    between atoms: O_4  and  C_32
REMARK    2  A    between atoms: O_4  and  C_33
REMARK    3  A    between atoms: N_5  and  C_10
REMARK    4  A    between atoms: N_9  and  C_25
REMARK    5  A    between atoms: C_11  and  C_19
REMARK    6  A    between atoms: C_20  and  C_21
REMARK    7  A    between atoms: C_26  and  C_27
REMARK                            x       y       z     vdW  Elec       q    Type
REMARK                         _______ _______ _______ _____ _____    ______ ____
ROOT
ATOM      8  N   UNL     1      19.624   6.989  21.191  0.00  0.00    -0.239 NA
ATOM     21  C   UNL     1      17.319   6.956  20.461  0.00  0.00    +0.041 A 
ATOM     22  C   UNL     1      17.592   5.879  19.626  0.00  0.00    +0.016 A 
ATOM     23  C   UNL     1      18.360   7.471  21.217  0.00  0.00    +0.124 A 
ATOM     24  C   UNL     1      18.879   5.356  19.572  0.00  0.00    +0.044 A 
ATOM     25  C   UNL     1      19.851   5.942  20.368  0.00  0.00    +0.125 A 
ENDROOT
BRANCH  21  20
ATOM      2  O   UNL     1      14.226   8.613  20.079  0.00  0.00    -0.336 OA
ATOM      6  N   UNL     1      15.176   7.266  21.596  0.00  0.00    -0.190 NA
ATOM      7  N   UNL     1      15.503   8.316  19.589  0.00  0.00    -0.056 NA
ATOM     19  C   UNL     1      14.115   7.956  21.264  0.00  0.00    +0.245 A 
ATOM     20  C   UNL     1      16.002   7.518  20.538  0.00  0.00    +0.204 A 
BRANCH  19  11
ATOM      5  N   UNL     1      12.145   9.408  21.718  0.00  0.00    -0.288 NA
ATOM     11  C   UNL     1      12.803   8.117  22.004  0.00  0.00    +0.146 C 
ATOM     12  C   UNL     1      10.707   9.178  21.859  0.00  0.00    +0.085 C 
ATOM     13  C   UNL     1      11.763   7.052  21.611  0.00  0.00    +0.030 C 
ATOM     14  C   UNL     1      10.535   7.838  21.174  0.00  0.00    +0.017 C 
BRANCH   5  10
ATOM      1  O   UNL     1      12.316  13.204  23.503  0.00  0.00    -0.380 OA
ATOM     10  C   UNL     1      12.614  10.496  22.572  0.00  0.00    +0.062 C 
ATOM     15  C   UNL     1      13.015  11.705  21.721  0.00  0.00    +0.047 C 
ATOM     16  C   UNL     1      11.543  10.901  23.588  0.00  0.00    +0.047 C 
ATOM     17  C   UNL     1      13.388  12.882  22.617  0.00  0.00    +0.161 C 
ATOM     18  C   UNL     1      11.998  12.122  24.380  0.00  0.00    +0.161 C 
ENDBRANCH   5  10
ENDBRANCH  19  11
ENDBRANCH  21  20
BRANCH  25   9
ATOM      3  O   UNL     1      21.376   4.320  22.376  0.00  0.00    -0.270 OA
ATOM      9  N   UNL     1      21.143   5.408  20.306  0.00  0.00    -0.266 N 
ATOM     26  C   UNL     1      21.808   4.654  21.278  0.00  0.00    +0.249 C 
ATOM     34  H   UNL     1      21.598   5.582  19.415  0.00  0.00    +0.157 HD
BRANCH  26  27
ATOM     27  C   UNL     1      23.174   4.203  20.905  0.00  0.00    +0.037 A 
ATOM     28  C   UNL     1      23.518   2.855  21.018  0.00  0.00    +0.016 A 
ATOM     29  C   UNL     1      24.112   5.126  20.443  0.00  0.00    +0.016 A 
ATOM     30  C   UNL     1      24.800   2.432  20.670  0.00  0.00    +0.046 A 
ATOM     31  C   UNL     1      25.394   4.701  20.094  0.00  0.00    +0.046 A 
ATOM     32  C   UNL     1      25.738   3.354  20.207  0.00  0.00    +0.120 A 
BRANCH  32   4
ATOM      4  O   UNL     1      26.989   2.940  19.866  0.00  0.00    -0.495 OA
ATOM     33  C   UNL     1      27.672   3.694  18.866  0.00  0.00    +0.277 C 
ENDBRANCH  32   4
ENDBRANCH  26  27
ENDBRANCH  25   9
TORSDOF 6
ENDMDL
MODEL 5
REMARK VINA RESULT:      -7.3      2.396      3.262
REMARK  Name = 51136890
REMARK  7 active torsions:
REMARK  status: ('A' for Active; 'I' for Inactive)
REMARK    1  A    between atoms: O_4  and  C_32
REMARK    2  A    between atoms: O_4  and  C_33
REMARK    3  A    between atoms: N_5  and  C_10
REMARK    4  A    between atoms: N_9  and  C_25
REMARK    5  A    between atoms: C_11  and  C_19
REMARK    6  A    between atoms: C_20  and  C_21
REMARK    7  A    between atoms: C_26  and  C_27
REMARK                            x       y       z     vdW  Elec       q    Type
REMARK                         _______ _______ _______ _____ _____    ______ ____
ROOT
ATOM      8  N   UNL     1      18.645   6.608  21.158  0.00  0.00    -0.239 NA
ATOM     21  C   UNL     1      16.595   6.957  19.924  0.00  0.00    +0.041 A 
ATOM     22  C   UNL     1      16.984   6.000  18.993  0.00  0.00    +0.016 A 
ATOM     23  C   UNL     1      17.453   7.223  20.979  0.00  0.00    +0.124 A 
ATOM     24  C   UNL     1      18.203   5.347  19.144  0.00  0.00    +0.044 A 
ATOM     25  C   UNL     1      18.989   5.684  20.234  0.00  0.00    +0.125 A 
ENDROOT
BRANCH  21  20
ATOM      2  O   UNL     1      13.280   8.073  19.451  0.00  0.00    -0.336 OA
ATOM      6  N   UNL     1      15.241   8.990  20.024  0.00  0.00    -0.190 NA
ATOM      7  N   UNL     1      14.213   7.029  19.449  0.00  0.00    -0.056 NA
ATOM     19  C   UNL     1      13.968   9.192  19.800  0.00  0.00    +0.245 A 
ATOM     20  C   UNL     1      15.345   7.648  19.796  0.00  0.00    +0.204 A 
BRANCH  19  11
ATOM      5  N   UNL     1      13.602  11.348  20.989  0.00  0.00    -0.288 NA
ATOM     11  C   UNL     1      13.171  10.478  19.875  0.00  0.00    +0.146 C 
ATOM     12  C   UNL     1      13.330  12.722  20.568  0.00  0.00    +0.085 C 
ATOM     13  C   UNL     1      13.328  11.349  18.615  0.00  0.00    +0.030 C 
ATOM     14  C   UNL     1      13.792  12.707  19.125  0.00  0.00    +0.017 C 
BRANCH   5  10
ATOM      1  O   UNL     1      11.084  11.734  24.325  0.00  0.00    -0.380 OA
ATOM     10  C   UNL     1      12.956  11.023  22.257  0.00  0.00    +0.062 C 
ATOM     15  C   UNL     1      13.257  12.103  23.300  0.00  0.00    +0.047 C 
ATOM     16  C   UNL     1      11.443  10.868  22.082  0.00  0.00    +0.047 C 
ATOM     17  C   UNL     1      12.484  11.827  24.586  0.00  0.00    +0.161 C 
ATOM     18  C   UNL     1      10.771  10.661  23.435  0.00  0.00    +0.161 C 
ENDBRANCH   5  10
ENDBRANCH  19  11
ENDBRANCH  21  20
BRANCH  25   9
ATOM      3  O   UNL     1      21.781   6.772  20.341  0.00  0.00    -0.270 OA
ATOM      9  N   UNL     1      20.213   5.021  20.375  0.00  0.00    -0.266 N 
ATOM     26  C   UNL     1      21.494   5.582  20.420  0.00  0.00    +0.249 C 
ATOM     34  H   UNL     1      20.106   4.018  20.495  0.00  0.00    +0.157 HD
BRANCH  26  27
ATOM     27  C   UNL     1      22.604   4.613  20.607  0.00  0.00    +0.037 A 
ATOM     28  C   UNL     1      23.916   4.992  20.319  0.00  0.00    +0.016 A 
ATOM     29  C   UNL     1      22.336   3.325  21.069  0.00  0.00    +0.016 A 
ATOM     30  C   UNL     1      24.959   4.082  20.493  0.00  0.00    +0.046 A 
ATOM     31  C   UNL     1      23.379   2.416  21.244  0.00  0.00    +0.046 A 
ATOM     32  C   UNL     1      24.691   2.794  20.956  0.00  0.00    +0.120 A 
BRANCH  32   4
ATOM      4  O   UNL     1      25.709   1.907  21.127  0.00  0.00    -0.495 OA
ATOM     33  C   UNL     1      25.472   0.810  22.008  0.00  0.00    +0.277 C 
ENDBRANCH  32   4
ENDBRANCH  26  27
ENDBRANCH  25   9
TORSDOF 6
ENDMDL
MODEL 6
REMARK VINA RESULT:      -7.2      1.878     11.820
REMARK  Name = 51136890
REMARK  7 active torsions:
REMARK  status: ('A' for Active; 'I' for Inactive)
REMARK    1  A    between atoms: O_4  and  C_32
REMARK    2  A    between atoms: O_4  and  C_33
REMARK    3  A    between atoms: N_5  and  C_10
REMARK    4  A    between atoms: N_9  and  C_25
REMARK    5  A    between atoms: C_11  and  C_19
REMARK    6  A    between atoms: C_20  and  C_21
REMARK    7  A    between atoms: C_26  and  C_27
REMARK                            x       y       z     vdW  Elec       q    Type
REMARK                         _______ _______ _______ _____ _____    ______ ____
ROOT
ATOM      8  N   UNL     1      18.103   7.327  21.044  0.00  0.00    -0.239 NA
ATOM     21  C   UNL     1      20.030   5.872  20.919  0.00  0.00    +0.041 A 
ATOM     22  C   UNL     1      19.403   5.115  19.935  0.00  0.00    +0.016 A 
ATOM     23  C   UNL     1      19.344   6.959  21.437  0.00  0.00    +0.124 A 
ATOM     24  C   UNL     1      18.127   5.463  19.506  0.00  0.00    +0.044 A 
ATOM     25  C   UNL     1      17.526   6.568  20.086  0.00  0.00    +0.125 A 
ENDROOT
BRANCH  21  20
ATOM      2  O   UNL     1      22.960   4.837  22.593  0.00  0.00    -0.336 OA
ATOM      6  N   UNL     1      22.456   5.785  20.627  0.00  0.00    -0.190 NA
ATOM      7  N   UNL     1      21.567   4.973  22.573  0.00  0.00    -0.056 NA
ATOM     19  C   UNL     1      23.404   5.339  21.411  0.00  0.00    +0.245 A 
ATOM     20  C   UNL     1      21.346   5.539  21.383  0.00  0.00    +0.204 A 
BRANCH  19  11
ATOM      5  N   UNL     1      25.300   4.313  20.166  0.00  0.00    -0.288 NA
ATOM     11  C   UNL     1      24.902   5.306  21.184  0.00  0.00    +0.146 C 
ATOM     12  C   UNL     1      26.521   4.825  19.544  0.00  0.00    +0.085 C 
ATOM     13  C   UNL     1      25.453   6.645  20.660  0.00  0.00    +0.030 C 
ATOM     14  C   UNL     1      26.195   6.296  19.378  0.00  0.00    +0.017 C 
BRANCH   5  10
ATOM      1  O   UNL     1      24.828   1.015  22.720  0.00  0.00    -0.380 OA
ATOM     10  C   UNL     1      25.481   2.970  20.711  0.00  0.00    +0.062 C 
ATOM     15  C   UNL     1      26.033   3.045  22.137  0.00  0.00    +0.047 C 
ATOM     16  C   UNL     1      24.166   2.187  20.696  0.00  0.00    +0.047 C 
ATOM     17  C   UNL     1      26.107   1.650  22.750  0.00  0.00    +0.161 C 
ATOM     18  C   UNL     1      24.344   0.839  21.388  0.00  0.00    +0.161 C 
ENDBRANCH   5  10
ENDBRANCH  19  11
ENDBRANCH  21  20
BRANCH  25   9
ATOM      3  O   UNL     1      15.057   7.237  21.651  0.00  0.00    -0.270 OA
ATOM      9  N   UNL     1      16.242   6.909  19.647  0.00  0.00    -0.266 N 
ATOM     26  C   UNL     1      15.121   7.213  20.426  0.00  0.00    +0.249 C 
ATOM     34  H   UNL     1      16.175   6.967  18.636  0.00  0.00    +0.157 HD
BRANCH  26  27
ATOM     27  C   UNL     1      13.895   7.566  19.663  0.00  0.00    +0.037 A 
ATOM     28  C   UNL     1      13.912   7.540  18.268  0.00  0.00    +0.016 A 
ATOM     29  C   UNL     1      12.729   7.922  20.340  0.00  0.00    +0.016 A 
ATOM     30  C   UNL     1      12.763   7.872  17.550  0.00  0.00    +0.046 A 
ATOM     31  C   UNL     1      11.580   8.253  19.622  0.00  0.00    +0.046 A 
ATOM     32  C   UNL     1      11.596   8.228  18.227  0.00  0.00    +0.120 A 
BRANCH  32   4
ATOM      4  O   UNL     1      10.475   8.551  17.527  0.00  0.00    -0.495 OA
ATOM     33  C   UNL     1      10.643   8.882  16.150  0.00  0.00    +0.277 C 
ENDBRANCH  32   4
ENDBRANCH  26  27
ENDBRANCH  25   9
TORSDOF 6
ENDMDL
MODEL 7
REMARK VINA RESULT:      -6.9      2.684     11.606
REMARK  Name = 51136890
REMARK  7 active torsions:
REMARK  status: ('A' for Active; 'I' for Inactive)
REMARK    1  A    between atoms: O_4  and  C_32
REMARK    2  A    between atoms: O_4  and  C_33
REMARK    3  A    between atoms: N_5  and  C_10
REMARK    4  A    between atoms: N_9  and  C_25
REMARK    5  A    between atoms: C_11  and  C_19
REMARK    6  A    between atoms: C_20  and  C_21
REMARK    7  A    between atoms: C_26  and  C_27
REMARK                            x       y       z     vdW  Elec       q    Type
REMARK                         _______ _______ _______ _____ _____    ______ ____
ROOT
ATOM      8  N   UNL     1      18.815   4.963  19.704  0.00  0.00    -0.239 NA
ATOM     21  C   UNL     1      20.716   5.537  21.084  0.00  0.00    +0.041 A 
ATOM     22  C   UNL     1      20.107   6.737  21.436  0.00  0.00    +0.016 A 
ATOM     23  C   UNL     1      20.034   4.692  20.223  0.00  0.00    +0.124 A 
ATOM     24  C   UNL     1      18.854   7.051  20.922  0.00  0.00    +0.044 A 
ATOM     25  C   UNL     1      18.255   6.139  20.069  0.00  0.00    +0.125 A 
ENDROOT
BRANCH  21  20
ATOM      2  O   UNL     1      24.045   5.294  22.232  0.00  0.00    -0.336 OA
ATOM      6  N   UNL     1      22.292   3.916  22.014  0.00  0.00    -0.190 NA
ATOM      7  N   UNL     1      23.007   6.067  21.696  0.00  0.00    -0.056 NA
ATOM     19  C   UNL     1      23.540   4.042  22.388  0.00  0.00    +0.245 A 
ATOM     20  C   UNL     1      22.008   5.185  21.597  0.00  0.00    +0.204 A 
BRANCH  19  11
ATOM      5  N   UNL     1      23.798   1.728  23.269  0.00  0.00    -0.288 NA
ATOM     11  C   UNL     1      24.480   3.002  22.962  0.00  0.00    +0.146 C 
ATOM     12  C   UNL     1      24.802   0.675  23.118  0.00  0.00    +0.085 C 
ATOM     13  C   UNL     1      25.607   2.617  21.986  0.00  0.00    +0.030 C 
ATOM     14  C   UNL     1      25.518   1.103  21.853  0.00  0.00    +0.017 C 
BRANCH   5  10
ATOM      1  O   UNL     1      23.320   0.989  27.373  0.00  0.00    -0.380 OA
ATOM     10  C   UNL     1      23.176   1.711  24.590  0.00  0.00    +0.062 C 
ATOM     15  C   UNL     1      22.995   0.269  25.074  0.00  0.00    +0.047 C 
ATOM     16  C   UNL     1      24.008   2.504  25.601  0.00  0.00    +0.047 C 
ATOM     17  C   UNL     1      22.461   0.253  26.503  0.00  0.00    +0.161 C 
ATOM     18  C   UNL     1      23.418   2.364  27.000  0.00  0.00    +0.161 C 
ENDBRANCH   5  10
ENDBRANCH  19  11
ENDBRANCH  21  20
BRANCH  25   9
ATOM      3  O   UNL     1      15.624   6.474  21.468  0.00  0.00    -0.270 OA
ATOM      9  N   UNL     1      16.994   6.465  19.558  0.00  0.00    -0.266 N 
ATOM     26  C   UNL     1      15.793   6.609  20.261  0.00  0.00    +0.249 C 
ATOM     34  H   UNL     1      17.009   6.647  18.559  0.00  0.00    +0.157 HD
BRANCH  26  27
ATOM     27  C   UNL     1      14.618   6.991  19.436  0.00  0.00    +0.037 A 
ATOM     28  C   UNL     1      14.793   7.358  18.101  0.00  0.00    +0.016 A 
ATOM     29  C   UNL     1      13.340   6.983  19.996  0.00  0.00    +0.016 A 
ATOM     30  C   UNL     1      13.689   7.718  17.327  0.00  0.00    +0.046 A 
ATOM     31  C   UNL     1      12.237   7.342  19.221  0.00  0.00    +0.046 A 
ATOM     32  C   UNL     1      12.412   7.710  17.886  0.00  0.00    +0.120 A 
BRANCH  32   4
ATOM      4  O   UNL     1      11.336   8.060  17.130  0.00  0.00    -0.495 OA
ATOM     33  C   UNL     1      11.518   9.123  16.196  0.00  0.00    +0.277 C 
ENDBRANCH  32   4
ENDBRANCH  26  27
ENDBRANCH  25   9
TORSDOF 6
ENDMDL
MODEL 8
REMARK VINA RESULT:      -6.9     30.082     34.228
REMARK  Name = 51136890
REMARK  7 active torsions:
REMARK  status: ('A' for Active; 'I' for Inactive)
REMARK    1  A    between atoms: O_4  and  C_32
REMARK    2  A    between atoms: O_4  and  C_33
REMARK    3  A    between atoms: N_5  and  C_10
REMARK    4  A    between atoms: N_9  and  C_25
REMARK    5  A    between atoms: C_11  and  C_19
REMARK    6  A    between atoms: C_20  and  C_21
REMARK    7  A    between atoms: C_26  and  C_27
REMARK                            x       y       z     vdW  Elec       q    Type
REMARK                         _______ _______ _______ _____ _____    ______ ____
ROOT
ATOM      8  N   UNL     1     -16.854   4.212  23.639  0.00  0.00    -0.239 NA
ATOM     21  C   UNL     1     -15.756   5.404  21.845  0.00  0.00    +0.041 A 
ATOM     22  C   UNL     1     -14.548   5.338  22.531  0.00  0.00    +0.016 A 
ATOM     23  C   UNL     1     -16.870   4.831  22.436  0.00  0.00    +0.124 A 
ATOM     24  C   UNL     1     -14.492   4.710  23.770  0.00  0.00    +0.044 A 
ATOM     25  C   UNL     1     -15.663   4.167  24.276  0.00  0.00    +0.125 A 
ENDROOT
BRANCH  21  20
ATOM      2  O   UNL     1     -16.498   6.603  18.609  0.00  0.00    -0.336 OA
ATOM      6  N   UNL     1     -14.948   6.998  20.176  0.00  0.00    -0.190 NA
ATOM      7  N   UNL     1     -16.803   5.754  19.680  0.00  0.00    -0.056 NA
ATOM     19  C   UNL     1     -15.393   7.299  18.983  0.00  0.00    +0.245 A 
ATOM     20  C   UNL     1     -15.846   6.045  20.565  0.00  0.00    +0.204 A 
BRANCH  19  11
ATOM      5  N   UNL     1     -13.430   8.076  17.665  0.00  0.00    -0.288 NA
ATOM     11  C   UNL     1     -14.855   8.300  17.982  0.00  0.00    +0.146 C 
ATOM     12  C   UNL     1     -13.231   8.550  16.295  0.00  0.00    +0.085 C 
ATOM     13  C   UNL     1     -15.574   8.226  16.622  0.00  0.00    +0.030 C 
ATOM     14  C   UNL     1     -14.467   8.019  15.597  0.00  0.00    +0.017 C 
BRANCH   5  10
ATOM      1  O   UNL     1     -10.596  10.793  19.152  0.00  0.00    -0.380 OA
ATOM     10  C   UNL     1     -12.521   8.722  18.608  0.00  0.00    +0.062 C 
ATOM     15  C   UNL     1     -11.082   8.663  18.087  0.00  0.00    +0.047 C 
ATOM     16  C   UNL     1     -12.929  10.177  18.857  0.00  0.00    +0.047 C 
ATOM     17  C   UNL     1     -10.152   9.444  19.010  0.00  0.00    +0.161 C 
ATOM     18  C   UNL     1     -11.897  10.874  19.737  0.00  0.00    +0.161 C 
ENDBRANCH   5  10
ENDBRANCH  19  11
ENDBRANCH  21  20
BRANCH  25   9
ATOM      3  O   UNL     1     -17.123   4.760  26.827  0.00  0.00    -0.270 OA
ATOM      9  N   UNL     1     -15.595   3.537  25.524  0.00  0.00    -0.266 N 
ATOM     26  C   UNL     1     -16.304   3.858  26.686  0.00  0.00    +0.249 C 
ATOM     34  H   UNL     1     -14.974   2.734  25.526  0.00  0.00    +0.157 HD
BRANCH  26  27
ATOM     27  C   UNL     1     -16.034   2.980  27.855  0.00  0.00    +0.037 A 
ATOM     28  C   UNL     1     -16.490   1.661  27.855  0.00  0.00    +0.016 A 
ATOM     29  C   UNL     1     -15.326   3.474  28.950  0.00  0.00    +0.016 A 
ATOM     30  C   UNL     1     -16.238   0.837  28.953  0.00  0.00    +0.046 A 
ATOM     31  C   UNL     1     -15.074   2.649  30.046  0.00  0.00    +0.046 A 
ATOM     32  C   UNL     1     -15.530   1.331  30.048  0.00  0.00    +0.120 A 
BRANCH  32   4
ATOM      4  O   UNL     1     -15.284   0.526  31.117  0.00  0.00    -0.495 OA
ATOM     33  C   UNL     1     -14.786   1.152  32.299  0.00  0.00    +0.277 C 
ENDBRANCH  32   4
ENDBRANCH  26  27
ENDBRANCH  25   9
TORSDOF 6
ENDMDL
MODEL 9
REMARK VINA RESULT:      -6.7     28.946     31.538
REMARK  Name = 51136890
REMARK  7 active torsions:
REMARK  status: ('A' for Active; 'I' for Inactive)
REMARK    1  A    between atoms: O_4  and  C_32
REMARK    2  A    between atoms: O_4  and  C_33
REMARK    3  A    between atoms: N_5  and  C_10
REMARK    4  A    between atoms: N_9  and  C_25
REMARK    5  A    between atoms: C_11  and  C_19
REMARK    6  A    between atoms: C_20  and  C_21
REMARK    7  A    between atoms: C_26  and  C_27
REMARK                            x       y       z     vdW  Elec       q    Type
REMARK                         _______ _______ _______ _____ _____    ______ ____
ROOT
ATOM      8  N   UNL     1      -4.984 -12.325  10.416  0.00  0.00    -0.239 NA
ATOM     21  C   UNL     1      -4.243 -10.951  12.263  0.00  0.00    +0.041 A 
ATOM     22  C   UNL     1      -3.634 -10.072  11.373  0.00  0.00    +0.016 A 
ATOM     23  C   UNL     1      -4.899 -12.053  11.738  0.00  0.00    +0.124 A 
ATOM     24  C   UNL     1      -3.699 -10.319  10.007  0.00  0.00    +0.044 A 
ATOM     25  C   UNL     1      -4.380 -11.449   9.583  0.00  0.00    +0.125 A 
ENDROOT
BRANCH  21  20
ATOM      2  O   UNL     1      -3.477 -10.466  15.674  0.00  0.00    -0.336 OA
ATOM      6  N   UNL     1      -5.325 -10.502  14.408  0.00  0.00    -0.190 NA
ATOM      7  N   UNL     1      -3.047 -10.718  14.365  0.00  0.00    -0.056 NA
ATOM     19  C   UNL     1      -4.830 -10.352  15.610  0.00  0.00    +0.245 A 
ATOM     20  C   UNL     1      -4.193 -10.724  13.678  0.00  0.00    +0.204 A 
BRANCH  19  11
ATOM      5  N   UNL     1      -6.956 -10.511  16.894  0.00  0.00    -0.288 NA
ATOM     11  C   UNL     1      -5.546 -10.073  16.916  0.00  0.00    +0.146 C 
ATOM     12  C   UNL     1      -7.303 -10.854  18.274  0.00  0.00    +0.085 C 
ATOM     13  C   UNL     1      -4.922 -10.822  18.108  0.00  0.00    +0.030 C 
ATOM     14  C   UNL     1      -6.069 -11.606  18.730  0.00  0.00    +0.017 C 
BRANCH   5  10
ATOM      1  O   UNL     1     -10.555  -8.602  15.879  0.00  0.00    -0.380 OA
ATOM     10  C   UNL     1      -7.861  -9.512  16.332  0.00  0.00    +0.062 C 
ATOM     15  C   UNL     1      -8.779 -10.153  15.287  0.00  0.00    +0.047 C 
ATOM     16  C   UNL     1      -8.698  -8.847  17.428  0.00  0.00    +0.047 C 
ATOM     17  C   UNL     1      -9.805  -9.140  14.790  0.00  0.00    +0.161 C 
ATOM     18  C   UNL     1      -9.728  -7.906  16.812  0.00  0.00    +0.161 C 
ENDBRANCH   5  10
ENDBRANCH  19  11
ENDBRANCH  21  20
BRANCH  25   9
ATOM      3  O   UNL     1      -5.898 -10.015   7.431  0.00  0.00    -0.270 OA
ATOM      9  N   UNL     1      -4.439 -11.687   8.205  0.00  0.00    -0.266 N 
ATOM     26  C   UNL     1      -5.168 -10.982   7.242  0.00  0.00    +0.249 C 
ATOM     34  H   UNL     1      -3.834 -12.448   7.912  0.00  0.00    +0.157 HD
BRANCH  26  27
ATOM     27  C   UNL     1      -5.003 -11.462   5.845  0.00  0.00    +0.037 A 
ATOM     28  C   UNL     1      -3.788 -12.015   5.437  0.00  0.00    +0.016 A 
ATOM     29  C   UNL     1      -6.061 -11.362   4.943  0.00  0.00    +0.016 A 
ATOM     30  C   UNL     1      -3.632 -12.465   4.126  0.00  0.00    +0.046 A 
ATOM     31  C   UNL     1      -5.906 -11.813   3.632  0.00  0.00    +0.046 A 
ATOM     32  C   UNL     1      -4.691 -12.364   3.223  0.00  0.00    +0.120 A 
BRANCH  32   4
ATOM      4  O   UNL     1      -4.539 -12.804   1.945  0.00  0.00    -0.495 OA
ATOM     33  C   UNL     1      -3.226 -13.196   1.545  0.00  0.00    +0.277 C 
ENDBRANCH  32   4
ENDBRANCH  26  27
ENDBRANCH  25   9
TORSDOF 6
ENDMDL
MODEL 10
REMARK VINA RESULT:      -6.6     28.851     32.411
REMARK  Name = 51136890
REMARK  7 active torsions:
REMARK  status: ('A' for Active; 'I' for Inactive)
REMARK    1  A    between atoms: O_4  and  C_32
REMARK    2  A    between atoms: O_4  and  C_33
REMARK    3  A    between atoms: N_5  and  C_10
REMARK    4  A    between atoms: N_9  and  C_25
REMARK    5  A    between atoms: C_11  and  C_19
REMARK    6  A    between atoms: C_20  and  C_21
REMARK    7  A    between atoms: C_26  and  C_27
REMARK                            x       y       z     vdW  Elec       q    Type
REMARK                         _______ _______ _______ _____ _____    ______ ____
ROOT
ATOM      8  N   UNL     1      -7.336  -9.827   9.898  0.00  0.00    -0.239 NA
ATOM     21  C   UNL     1      -5.586  -9.685  11.560  0.00  0.00    +0.041 A 
ATOM     22  C   UNL     1      -4.797  -8.957  10.677  0.00  0.00    +0.016 A 
ATOM     23  C   UNL     1      -6.837 -10.094  11.127  0.00  0.00    +0.124 A 
ATOM     24  C   UNL     1      -5.275  -8.664   9.405  0.00  0.00    +0.044 A 
ATOM     25  C   UNL     1      -6.540  -9.117   9.067  0.00  0.00    +0.125 A 
ENDROOT
BRANCH  21  20
ATOM      2  O   UNL     1      -3.888 -10.639  14.504  0.00  0.00    -0.336 OA
ATOM      6  N   UNL     1      -5.911  -9.836  13.979  0.00  0.00    -0.190 NA
ATOM      7  N   UNL     1      -3.894 -10.481  13.113  0.00  0.00    -0.056 NA
ATOM     19  C   UNL     1      -5.112 -10.237  14.934  0.00  0.00    +0.245 A 
ATOM     20  C   UNL     1      -5.120 -10.003  12.879  0.00  0.00    +0.204 A 
BRANCH  19  11
ATOM      5  N   UNL     1      -6.438 -11.262  16.774  0.00  0.00    -0.288 NA
ATOM     11  C   UNL     1      -5.362 -10.313  16.426  0.00  0.00    +0.146 C 
ATOM     12  C   UNL     1      -6.124 -11.770  18.110  0.00  0.00    +0.085 C 
ATOM     13  C   UNL     1      -4.133 -10.810  17.210  0.00  0.00    +0.030 C 
ATOM     14  C   UNL     1      -4.630 -12.003  18.014  0.00  0.00    +0.017 C 
BRANCH   5  10
ATOM      1  O   UNL     1      -9.997  -9.452  18.072  0.00  0.00    -0.380 OA
ATOM     10  C   UNL     1      -7.772 -10.670  16.711  0.00  0.00    +0.062 C 
ATOM     15  C   UNL     1      -8.754 -11.479  17.562  0.00  0.00    +0.047 C 
ATOM     16  C   UNL     1      -7.750  -9.212  17.175  0.00  0.00    +0.047 C 
ATOM     17  C   UNL     1     -10.116 -10.792  17.594  0.00  0.00    +0.161 C 
ATOM     18  C   UNL     1      -9.167  -8.651  17.229  0.00  0.00    +0.161 C 
ENDBRANCH   5  10
ENDBRANCH  19  11
ENDBRANCH  21  20
BRANCH  25   9
ATOM      3  O   UNL     1      -8.555  -7.085   8.170  0.00  0.00    -0.270 OA
ATOM      9  N   UNL     1      -7.013  -8.817   7.785  0.00  0.00    -0.266 N 
ATOM     26  C   UNL     1      -7.959  -7.853   7.422  0.00  0.00    +0.249 C 
ATOM     34  H   UNL     1      -6.557  -9.363   7.060  0.00  0.00    +0.157 HD
BRANCH  26  27
ATOM     27  C   UNL     1      -8.234  -7.752   5.965  0.00  0.00    +0.037 A 
ATOM     28  C   UNL     1      -9.413  -7.153   5.518  0.00  0.00    +0.016 A 
ATOM     29  C   UNL     1      -7.315  -8.255   5.045  0.00  0.00    +0.016 A 
ATOM     30  C   UNL     1      -9.672  -7.059   4.151  0.00  0.00    +0.046 A 
ATOM     31  C   UNL     1      -7.574  -8.161   3.677  0.00  0.00    +0.046 A 
ATOM     32  C   UNL     1      -8.753  -7.563   3.230  0.00  0.00    +0.120 A 
BRANCH  32   4
ATOM      4  O   UNL     1      -9.006  -7.470   1.896  0.00  0.00    -0.495 OA
ATOM     33  C   UNL     1      -8.942  -8.677   1.139  0.00  0.00    +0.277 C 
ENDBRANCH  32   4
ENDBRANCH  26  27
ENDBRANCH  25   9
TORSDOF 6
ENDMDL
