MODEL 1
REMARK VINA RESULT:      -7.0      0.000      0.000
REMARK  Name = 25313080
REMARK  9 active torsions:
REMARK  status: ('A' for Active; 'I' for Inactive)
REMARK    1  A    between atoms: O_2  and  C_20
REMARK    2  A    between atoms: N_5  and  C_13
REMARK    3  A    between atoms: N_6  and  C_22
REMARK    4  A    between atoms: C_7  and  C_11
REMARK    5  A    between atoms: C_8  and  C_14
REMARK    6  A    between atoms: C_11  and  C_13
REMARK    7  A    between atoms: C_14  and  C_20
REMARK    8  A    between atoms: C_17  and  C_21
REMARK    9  A    between atoms: C_21  and  C_23
REMARK                            x       y       z     vdW  Elec       q    Type
REMARK                         _______ _______ _______ _____ _____    ______ ____
ROOT
ATOM      1  O   UNL     1      -1.401  -9.889  12.362  0.00  0.00    -0.275 OA
ATOM      4  N   UNL     1      -2.294 -11.426  13.858  0.00  0.00    -0.301 N 
ATOM      7  C   UNL     1      -4.115 -12.213  15.356  0.00  0.00    +0.011 C 
ATOM      8  C   UNL     1      -3.274 -11.734  16.567  0.00  0.00    +0.006 C 
ATOM      9  C   UNL     1      -3.186 -12.550  14.176  0.00  0.00    +0.111 C 
ATOM     10  C   UNL     1      -2.320 -10.592  16.177  0.00  0.00    +0.023 C 
ATOM     12  C   UNL     1      -1.463 -10.971  14.972  0.00  0.00    +0.108 C 
ATOM     17  C   UNL     1      -2.178 -10.815  12.609  0.00  0.00    +0.220 C 
ENDROOT
BRANCH   7  11
ATOM     11  C   UNL     1      -5.195 -11.218  14.915  0.00  0.00    +0.020 C 
BRANCH  11  13
ATOM     13  C   UNL     1      -6.375 -11.942  14.283  0.00  0.00    +0.085 C 
BRANCH  13   5
ATOM      5  N   UNL     1      -7.624 -11.280  14.660  0.00  0.00    -0.299 NA
ATOM      6  N   UNL     1      -9.442  -9.091  14.908  0.00  0.00    -0.327 N 
ATOM     15  C   UNL     1      -8.293 -10.731  13.474  0.00  0.00    +0.103 C 
ATOM     16  C   UNL     1      -7.366 -10.208  15.629  0.00  0.00    +0.103 C 
ATOM     18  C   UNL     1      -9.630 -10.084  13.846  0.00  0.00    +0.120 C 
ATOM     19  C   UNL     1      -8.672  -9.545  16.074  0.00  0.00    +0.120 C 
BRANCH   6  22
ATOM     22  C   UNL     1     -10.405  -8.094  15.105  0.00  0.00    +0.030 A 
ATOM     24  C   UNL     1     -10.231  -7.147  16.114  0.00  0.00    +0.023 A 
ATOM     25  C   UNL     1     -11.538  -8.048  14.292  0.00  0.00    +0.023 A 
ATOM     28  C   UNL     1     -11.191  -6.154  16.310  0.00  0.00    +0.002 A 
ATOM     29  C   UNL     1     -12.497  -7.055  14.488  0.00  0.00    +0.002 A 
ATOM     30  C   UNL     1     -12.324  -6.108  15.497  0.00  0.00    +0.000 A 
ENDBRANCH   6  22
ENDBRANCH  13   5
ENDBRANCH  11  13
ENDBRANCH   7  11
BRANCH   8  14
ATOM     14  C   UNL     1      -4.127 -11.336  17.771  0.00  0.00    +0.124 C 
BRANCH  14  20
ATOM      3  O   UNL     1      -3.489 -12.079  20.003  0.00  0.00    -0.251 OA
ATOM     20  C   UNL     1      -3.975 -12.310  18.906  0.00  0.00    +0.305 C 
BRANCH  20   2
ATOM      2  O   UNL     1      -4.465 -13.521  18.539  0.00  0.00    -0.481 OA
ATOM     34  H   UNL     1      -3.821 -14.029  18.000  0.00  0.00    +0.295 HD
ENDBRANCH  20   2
ENDBRANCH  14  20
ENDBRANCH   8  14
BRANCH  17  21
ATOM     21  C   UNL     1      -3.071 -11.340  11.515  0.00  0.00    +0.131 C 
BRANCH  21  23
ATOM     23  C   UNL     1      -3.900 -10.236  10.935  0.00  0.00    -0.039 A 
ATOM     26  C   UNL     1      -4.936  -9.676  11.683  0.00  0.00    +0.004 A 
ATOM     27  C   UNL     1      -3.636  -9.767   9.649  0.00  0.00    +0.004 A 
ATOM     31  C   UNL     1      -5.709  -8.647  11.144  0.00  0.00    +0.000 A 
ATOM     32  C   UNL     1      -4.409  -8.738   9.109  0.00  0.00    +0.000 A 
ATOM     33  C   UNL     1      -5.445  -8.178   9.857  0.00  0.00    +0.000 A 
ENDBRANCH  21  23
ENDBRANCH  17  21
TORSDOF 9
ENDMDL
MODEL 2
REMARK VINA RESULT:      -6.7      2.140      2.566
REMARK  Name = 25313080
REMARK  9 active torsions:
REMARK  status: ('A' for Active; 'I' for Inactive)
REMARK    1  A    between atoms: O_2  and  C_20
REMARK    2  A    between atoms: N_5  and  C_13
REMARK    3  A    between atoms: N_6  and  C_22
REMARK    4  A    between atoms: C_7  and  C_11
REMARK    5  A    between atoms: C_8  and  C_14
REMARK    6  A    between atoms: C_11  and  C_13
REMARK    7  A    between atoms: C_14  and  C_20
REMARK    8  A    between atoms: C_17  and  C_21
REMARK    9  A    between atoms: C_21  and  C_23
REMARK                            x       y       z     vdW  Elec       q    Type
REMARK                         _______ _______ _______ _____ _____    ______ ____
ROOT
ATOM      1  O   UNL     1      -1.356 -10.099  12.241  0.00  0.00    -0.275 OA
ATOM      4  N   UNL     1      -2.334 -11.442  13.865  0.00  0.00    -0.301 N 
ATOM      7  C   UNL     1      -4.174 -11.963  15.452  0.00  0.00    +0.011 C 
ATOM      8  C   UNL     1      -3.269 -11.467  16.607  0.00  0.00    +0.006 C 
ATOM      9  C   UNL     1      -3.305 -12.462  14.283  0.00  0.00    +0.111 C 
ATOM     10  C   UNL     1      -2.235 -10.439  16.114  0.00  0.00    +0.023 C 
ATOM     12  C   UNL     1      -1.441 -10.976  14.926  0.00  0.00    +0.108 C 
ATOM     17  C   UNL     1      -2.199 -10.937  12.572  0.00  0.00    +0.220 C 
ENDROOT
BRANCH   7  11
ATOM     11  C   UNL     1      -5.181 -10.918  14.957  0.00  0.00    +0.020 C 
BRANCH  11  13
ATOM     13  C   UNL     1      -6.579 -11.513  14.861  0.00  0.00    +0.085 C 
BRANCH  13   5
ATOM      5  N   UNL     1      -7.367 -11.120  16.030  0.00  0.00    -0.299 NA
ATOM      6  N   UNL     1      -9.754 -10.596  17.508  0.00  0.00    -0.327 N 
ATOM     15  C   UNL     1      -8.231 -12.225  16.462  0.00  0.00    +0.103 C 
ATOM     16  C   UNL     1      -8.181  -9.938  15.727  0.00  0.00    +0.103 C 
ATOM     18  C   UNL     1      -9.021 -11.847  17.718  0.00  0.00    +0.120 C 
ATOM     19  C   UNL     1      -8.967  -9.483  16.959  0.00  0.00    +0.120 C 
BRANCH   6  22
ATOM     22  C   UNL     1     -10.849 -10.287  18.322  0.00  0.00    +0.030 A 
ATOM     24  C   UNL     1     -12.075  -9.957  17.746  0.00  0.00    +0.023 A 
ATOM     25  C   UNL     1     -10.715 -10.309  19.711  0.00  0.00    +0.023 A 
ATOM     28  C   UNL     1     -13.167  -9.648  18.557  0.00  0.00    +0.002 A 
ATOM     29  C   UNL     1     -11.806 -10.001  20.522  0.00  0.00    +0.002 A 
ATOM     30  C   UNL     1     -13.032  -9.670  19.946  0.00  0.00    +0.000 A 
ENDBRANCH   6  22
ENDBRANCH  13   5
ENDBRANCH  11  13
ENDBRANCH   7  11
BRANCH   8  14
ATOM     14  C   UNL     1      -4.057 -10.912  17.793  0.00  0.00    +0.124 C 
BRANCH  14  20
ATOM      3  O   UNL     1      -5.410 -12.552  18.985  0.00  0.00    -0.251 OA
ATOM     20  C   UNL     1      -4.346 -11.976  18.815  0.00  0.00    +0.305 C 
BRANCH  20   2
ATOM      2  O   UNL     1      -3.230 -12.222  19.548  0.00  0.00    -0.481 OA
ATOM     34  H   UNL     1      -2.985 -13.171  19.535  0.00  0.00    +0.295 HD
ENDBRANCH  20   2
ENDBRANCH  14  20
ENDBRANCH   8  14
BRANCH  17  21
ATOM     21  C   UNL     1      -3.158 -11.466  11.537  0.00  0.00    +0.131 C 
BRANCH  21  23
ATOM     23  C   UNL     1      -3.936 -10.347  10.917  0.00  0.00    -0.039 A 
ATOM     26  C   UNL     1      -4.869  -9.642  11.677  0.00  0.00    +0.004 A 
ATOM     27  C   UNL     1      -3.727 -10.008   9.580  0.00  0.00    +0.004 A 
ATOM     31  C   UNL     1      -5.594  -8.599  11.101  0.00  0.00    +0.000 A 
ATOM     32  C   UNL     1      -4.452  -8.965   9.004  0.00  0.00    +0.000 A 
ATOM     33  C   UNL     1      -5.385  -8.260   9.764  0.00  0.00    +0.000 A 
ENDBRANCH  21  23
ENDBRANCH  17  21
TORSDOF 9
ENDMDL
MODEL 3
REMARK VINA RESULT:      -6.5      3.001      5.425
REMARK  Name = 25313080
REMARK  9 active torsions:
REMARK  status: ('A' for Active; 'I' for Inactive)
REMARK    1  A    between atoms: O_2  and  C_20
REMARK    2  A    between atoms: N_5  and  C_13
REMARK    3  A    between atoms: N_6  and  C_22
REMARK    4  A    between atoms: C_7  and  C_11
REMARK    5  A    between atoms: C_8  and  C_14
REMARK    6  A    between atoms: C_11  and  C_13
REMARK    7  A    between atoms: C_14  and  C_20
REMARK    8  A    between atoms: C_17  and  C_21
REMARK    9  A    between atoms: C_21  and  C_23
REMARK                            x       y       z     vdW  Elec       q    Type
REMARK                         _______ _______ _______ _____ _____    ______ ____
ROOT
ATOM      1  O   UNL     1      -1.073 -11.191  15.176  0.00  0.00    -0.275 OA
ATOM      4  N   UNL     1      -3.279 -11.794  15.585  0.00  0.00    -0.301 N 
ATOM      7  C   UNL     1      -5.715 -11.614  15.124  0.00  0.00    +0.011 C 
ATOM      8  C   UNL     1      -5.857 -10.759  16.408  0.00  0.00    +0.006 C 
ATOM      9  C   UNL     1      -4.495 -12.546  15.249  0.00  0.00    +0.111 C 
ATOM     10  C   UNL     1      -4.547 -10.030  16.751  0.00  0.00    +0.023 C 
ATOM     12  C   UNL     1      -3.370 -11.001  16.811  0.00  0.00    +0.108 C 
ATOM     17  C   UNL     1      -2.090 -11.812  14.857  0.00  0.00    +0.220 C 
ENDROOT
BRANCH   7  11
ATOM     11  C   UNL     1      -5.624 -10.790  13.834  0.00  0.00    +0.020 C 
BRANCH  11  13
ATOM     13  C   UNL     1      -6.841 -11.030  12.950  0.00  0.00    +0.085 C 
BRANCH  13   5
ATOM      5  N   UNL     1      -6.560 -10.581  11.586  0.00  0.00    -0.299 NA
ATOM      6  N   UNL     1      -7.175  -9.462   9.031  0.00  0.00    -0.327 N 
ATOM     15  C   UNL     1      -6.834  -9.145  11.450  0.00  0.00    +0.103 C 
ATOM     16  C   UNL     1      -7.365 -11.337  10.620  0.00  0.00    +0.103 C 
ATOM     18  C   UNL     1      -6.491  -8.650  10.043  0.00  0.00    +0.120 C 
ATOM     19  C   UNL     1      -7.038 -10.917   9.185  0.00  0.00    +0.120 C 
BRANCH   6  22
ATOM     22  C   UNL     1      -7.361  -8.952   7.742  0.00  0.00    +0.030 A 
ATOM     24  C   UNL     1      -6.727  -9.555   6.656  0.00  0.00    +0.023 A 
ATOM     25  C   UNL     1      -8.179  -7.840   7.542  0.00  0.00    +0.023 A 
ATOM     28  C   UNL     1      -6.911  -9.047   5.370  0.00  0.00    +0.002 A 
ATOM     29  C   UNL     1      -8.363  -7.332   6.256  0.00  0.00    +0.002 A 
ATOM     30  C   UNL     1      -7.729  -7.935   5.170  0.00  0.00    +0.000 A 
ENDBRANCH   6  22
ENDBRANCH  13   5
ENDBRANCH  11  13
ENDBRANCH   7  11
BRANCH   8  14
ATOM     14  C   UNL     1      -7.023  -9.772  16.347  0.00  0.00    +0.124 C 
BRANCH  14  20
ATOM      3  O   UNL     1      -7.890 -10.702  18.426  0.00  0.00    -0.251 OA
ATOM     20  C   UNL     1      -7.836  -9.793  17.612  0.00  0.00    +0.305 C 
BRANCH  20   2
ATOM      2  O   UNL     1      -8.523  -8.629  17.734  0.00  0.00    -0.481 OA
ATOM     34  H   UNL     1      -8.991  -8.569  18.594  0.00  0.00    +0.295 HD
ENDBRANCH  20   2
ENDBRANCH  14  20
ENDBRANCH   8  14
BRANCH  17  21
ATOM     21  C   UNL     1      -2.078 -12.651  13.604  0.00  0.00    +0.131 C 
BRANCH  21  23
ATOM     23  C   UNL     1      -2.482 -11.833  12.417  0.00  0.00    -0.039 A 
ATOM     26  C   UNL     1      -2.079 -10.500  12.320  0.00  0.00    +0.004 A 
ATOM     27  C   UNL     1      -3.259 -12.402  11.409  0.00  0.00    +0.004 A 
ATOM     31  C   UNL     1      -2.454  -9.737  11.214  0.00  0.00    +0.000 A 
ATOM     32  C   UNL     1      -3.634 -11.639  10.303  0.00  0.00    +0.000 A 
ATOM     33  C   UNL     1      -3.232 -10.307  10.205  0.00  0.00    +0.000 A 
ENDBRANCH  21  23
ENDBRANCH  17  21
TORSDOF 9
ENDMDL
MODEL 4
REMARK VINA RESULT:      -6.5      2.907      3.178
REMARK  Name = 25313080
REMARK  9 active torsions:
REMARK  status: ('A' for Active; 'I' for Inactive)
REMARK    1  A    between atoms: O_2  and  C_20
REMARK    2  A    between atoms: N_5  and  C_13
REMARK    3  A    between atoms: N_6  and  C_22
REMARK    4  A    between atoms: C_7  and  C_11
REMARK    5  A    between atoms: C_8  and  C_14
REMARK    6  A    between atoms: C_11  and  C_13
REMARK    7  A    between atoms: C_14  and  C_20
REMARK    8  A    between atoms: C_17  and  C_21
REMARK    9  A    between atoms: C_21  and  C_23
REMARK                            x       y       z     vdW  Elec       q    Type
REMARK                         _______ _______ _______ _____ _____    ______ ____
ROOT
ATOM      1  O   UNL     1      -2.031 -10.508  13.970  0.00  0.00    -0.275 OA
ATOM      4  N   UNL     1      -3.721 -11.500  15.217  0.00  0.00    -0.301 N 
ATOM      7  C   UNL     1      -6.051 -11.561  16.080  0.00  0.00    +0.011 C 
ATOM      8  C   UNL     1      -5.516 -11.076  17.451  0.00  0.00    +0.006 C 
ATOM      9  C   UNL     1      -4.941 -12.312  15.322  0.00  0.00    +0.111 C 
ATOM     10  C   UNL     1      -4.212 -10.274  17.298  0.00  0.00    +0.023 C 
ATOM     12  C   UNL     1      -3.172 -11.053  16.497  0.00  0.00    +0.108 C 
ATOM     17  C   UNL     1      -3.070 -11.169  14.028  0.00  0.00    +0.220 C 
ENDROOT
BRANCH   7  11
ATOM     11  C   UNL     1      -6.629 -10.442  15.206  0.00  0.00    +0.020 C 
BRANCH  11  13
ATOM     13  C   UNL     1      -8.102 -10.688  14.914  0.00  0.00    +0.085 C 
BRANCH  13   5
ATOM      5  N   UNL     1      -8.889 -10.495  16.132  0.00  0.00    -0.299 NA
ATOM      6  N   UNL     1     -11.267 -10.105  17.666  0.00  0.00    -0.327 N 
ATOM     15  C   UNL     1      -9.853 -11.590  16.300  0.00  0.00    +0.103 C 
ATOM     16  C   UNL     1      -9.595  -9.209  16.091  0.00  0.00    +0.103 C 
ATOM     18  C   UNL     1     -10.645 -11.431  17.601  0.00  0.00    +0.120 C 
ATOM     19  C   UNL     1     -10.376  -8.971  17.386  0.00  0.00    +0.120 C 
BRANCH   6  22
ATOM     22  C   UNL     1     -12.356  -9.890  18.517  0.00  0.00    +0.030 A 
ATOM     24  C   UNL     1     -12.184  -9.958  19.899  0.00  0.00    +0.023 A 
ATOM     25  C   UNL     1     -13.614  -9.609  17.984  0.00  0.00    +0.023 A 
ATOM     28  C   UNL     1     -13.270  -9.745  20.749  0.00  0.00    +0.002 A 
ATOM     29  C   UNL     1     -14.700  -9.396  18.833  0.00  0.00    +0.002 A 
ATOM     30  C   UNL     1     -14.528  -9.464  20.215  0.00  0.00    +0.000 A 
ENDBRANCH   6  22
ENDBRANCH  13   5
ENDBRANCH  11  13
ENDBRANCH   7  11
BRANCH   8  14
ATOM     14  C   UNL     1      -6.547 -10.281  18.252  0.00  0.00    +0.124 C 
BRANCH  14  20
ATOM      3  O   UNL     1      -6.964 -12.298  19.555  0.00  0.00    -0.251 OA
ATOM     20  C   UNL     1      -7.222 -11.133  19.290  0.00  0.00    +0.305 C 
BRANCH  20   2
ATOM      2  O   UNL     1      -8.187 -10.413  19.916  0.00  0.00    -0.481 OA
ATOM     34  H   UNL     1      -8.406 -10.783  20.798  0.00  0.00    +0.295 HD
ENDBRANCH  20   2
ENDBRANCH  14  20
ENDBRANCH   8  14
BRANCH  17  21
ATOM     21  C   UNL     1      -3.701 -11.666  12.752  0.00  0.00    +0.131 C 
BRANCH  21  23
ATOM     23  C   UNL     1      -4.011 -10.522  11.838  0.00  0.00    -0.039 A 
ATOM     26  C   UNL     1      -5.190  -9.795  12.006  0.00  0.00    +0.004 A 
ATOM     27  C   UNL     1      -3.122 -10.182  10.818  0.00  0.00    +0.004 A 
ATOM     31  C   UNL     1      -5.479  -8.728  11.154  0.00  0.00    +0.000 A 
ATOM     32  C   UNL     1      -3.411  -9.116   9.967  0.00  0.00    +0.000 A 
ATOM     33  C   UNL     1      -4.589  -8.389  10.135  0.00  0.00    +0.000 A 
ENDBRANCH  21  23
ENDBRANCH  17  21
TORSDOF 9
ENDMDL
MODEL 5
REMARK VINA RESULT:      -6.2      3.263      6.048
REMARK  Name = 25313080
REMARK  9 active torsions:
REMARK  status: ('A' for Active; 'I' for Inactive)
REMARK    1  A    between atoms: O_2  and  C_20
REMARK    2  A    between atoms: N_5  and  C_13
REMARK    3  A    between atoms: N_6  and  C_22
REMARK    4  A    between atoms: C_7  and  C_11
REMARK    5  A    between atoms: C_8  and  C_14
REMARK    6  A    between atoms: C_11  and  C_13
REMARK    7  A    between atoms: C_14  and  C_20
REMARK    8  A    between atoms: C_17  and  C_21
REMARK    9  A    between atoms: C_21  and  C_23
REMARK                            x       y       z     vdW  Elec       q    Type
REMARK                         _______ _______ _______ _____ _____    ______ ____
ROOT
ATOM      1  O   UNL     1      -8.552  -9.509  13.619  0.00  0.00    -0.275 OA
ATOM      4  N   UNL     1      -6.756 -10.959  13.878  0.00  0.00    -0.301 N 
ATOM      7  C   UNL     1      -4.640 -11.638  14.991  0.00  0.00    +0.011 C 
ATOM      8  C   UNL     1      -3.866 -11.125  13.750  0.00  0.00    +0.006 C 
ATOM      9  C   UNL     1      -6.067 -12.047  14.585  0.00  0.00    +0.111 C 
ATOM     10  C   UNL     1      -4.646 -10.023  13.013  0.00  0.00    +0.023 C 
ATOM     12  C   UNL     1      -6.067 -10.474  12.683  0.00  0.00    +0.108 C 
ATOM     17  C   UNL     1      -7.982 -10.406  14.246  0.00  0.00    +0.220 C 
ENDROOT
BRANCH   7  11
ATOM     11  C   UNL     1      -4.683 -10.640  16.154  0.00  0.00    +0.020 C 
BRANCH  11  13
ATOM     13  C   UNL     1      -4.233 -11.298  17.451  0.00  0.00    +0.085 C 
BRANCH  13   5
ATOM      5  N   UNL     1      -5.363 -11.400  18.375  0.00  0.00    -0.299 NA
ATOM      6  N   UNL     1      -8.115 -11.582  19.117  0.00  0.00    -0.327 N 
ATOM     15  C   UNL     1      -6.119 -12.633  18.128  0.00  0.00    +0.103 C 
ATOM     16  C   UNL     1      -6.246 -10.236  18.237  0.00  0.00    +0.103 C 
ATOM     18  C   UNL     1      -7.272 -12.781  19.124  0.00  0.00    +0.120 C 
ATOM     19  C   UNL     1      -7.402 -10.303  19.238  0.00  0.00    +0.120 C 
BRANCH   6  22
ATOM     22  C   UNL     1      -9.426 -11.651  19.601  0.00  0.00    +0.030 A 
ATOM     24  C   UNL     1      -9.980 -12.886  19.938  0.00  0.00    +0.023 A 
ATOM     25  C   UNL     1     -10.179 -10.486  19.746  0.00  0.00    +0.023 A 
ATOM     28  C   UNL     1     -11.287 -12.956  20.419  0.00  0.00    +0.002 A 
ATOM     29  C   UNL     1     -11.486 -10.556  20.228  0.00  0.00    +0.002 A 
ATOM     30  C   UNL     1     -12.040 -11.790  20.564  0.00  0.00    +0.000 A 
ENDBRANCH   6  22
ENDBRANCH  13   5
ENDBRANCH  11  13
ENDBRANCH   7  11
BRANCH   8  14
ATOM     14  C   UNL     1      -2.448 -10.657  14.076  0.00  0.00    +0.124 C 
BRANCH  14  20
ATOM      3  O   UNL     1      -1.436 -12.872  14.165  0.00  0.00    -0.251 OA
ATOM     20  C   UNL     1      -1.615 -11.767  14.654  0.00  0.00    +0.305 C 
BRANCH  20   2
ATOM      2  O   UNL     1      -1.070 -11.365  15.830  0.00  0.00    -0.481 OA
ATOM     34  H   UNL     1      -1.071 -12.083  16.498  0.00  0.00    +0.295 HD
ENDBRANCH  20   2
ENDBRANCH  14  20
ENDBRANCH   8  14
BRANCH  17  21
ATOM     21  C   UNL     1      -8.626 -10.959  15.491  0.00  0.00    +0.131 C 
BRANCH  21  23
ATOM     23  C   UNL     1      -9.595  -9.972  16.067  0.00  0.00    -0.039 A 
ATOM     26  C   UNL     1     -10.958 -10.268  16.093  0.00  0.00    +0.004 A 
ATOM     27  C   UNL     1      -9.134  -8.759  16.577  0.00  0.00    +0.004 A 
ATOM     31  C   UNL     1     -11.861  -9.350  16.629  0.00  0.00    +0.000 A 
ATOM     32  C   UNL     1     -10.037  -7.840  17.113  0.00  0.00    +0.000 A 
ATOM     33  C   UNL     1     -11.400  -8.136  17.139  0.00  0.00    +0.000 A 
ENDBRANCH  21  23
ENDBRANCH  17  21
TORSDOF 9
ENDMDL
MODEL 6
REMARK VINA RESULT:      -6.2     24.776     28.119
REMARK  Name = 25313080
REMARK  9 active torsions:
REMARK  status: ('A' for Active; 'I' for Inactive)
REMARK    1  A    between atoms: O_2  and  C_20
REMARK    2  A    between atoms: N_5  and  C_13
REMARK    3  A    between atoms: N_6  and  C_22
REMARK    4  A    between atoms: C_7  and  C_11
REMARK    5  A    between atoms: C_8  and  C_14
REMARK    6  A    between atoms: C_11  and  C_13
REMARK    7  A    between atoms: C_14  and  C_20
REMARK    8  A    between atoms: C_17  and  C_21
REMARK    9  A    between atoms: C_21  and  C_23
REMARK                            x       y       z     vdW  Elec       q    Type
REMARK                         _______ _______ _______ _____ _____    ______ ____
ROOT
ATOM      1  O   UNL     1      10.304   3.977   1.391  0.00  0.00    -0.275 OA
ATOM      4  N   UNL     1      12.613   3.810   1.200  0.00  0.00    -0.301 N 
ATOM      7  C   UNL     1      14.848   4.811   0.778  0.00  0.00    +0.011 C 
ATOM      8  C   UNL     1      14.826   4.172  -0.633  0.00  0.00    +0.006 C 
ATOM      9  C   UNL     1      13.968   3.988   1.738  0.00  0.00    +0.111 C 
ATOM     10  C   UNL     1      13.388   3.958  -1.135  0.00  0.00    +0.023 C 
ATOM     12  C   UNL     1      12.556   3.180  -0.118  0.00  0.00    +0.108 C 
ATOM     17  C   UNL     1      11.431   4.162   1.853  0.00  0.00    +0.220 C 
ENDROOT
BRANCH   7  11
ATOM     11  C   UNL     1      14.427   6.285   0.802  0.00  0.00    +0.020 C 
BRANCH  11  13
ATOM     13  C   UNL     1      15.413   7.118   1.608  0.00  0.00    +0.085 C 
BRANCH  13   5
ATOM      5  N   UNL     1      14.700   7.868   2.643  0.00  0.00    -0.299 NA
ATOM      6  N   UNL     1      12.586   8.398   4.489  0.00  0.00    -0.327 N 
ATOM     15  C   UNL     1      14.552   7.055   3.857  0.00  0.00    +0.103 C 
ATOM     16  C   UNL     1      13.380   8.286   2.158  0.00  0.00    +0.103 C 
ATOM     18  C   UNL     1      13.857   7.847   4.968  0.00  0.00    +0.120 C 
ATOM     19  C   UNL     1      12.647   9.120   3.211  0.00  0.00    +0.120 C 
BRANCH   6  22
ATOM     22  C   UNL     1      11.601   8.773   5.409  0.00  0.00    +0.030 A 
ATOM     24  C   UNL     1      11.436   8.047   6.589  0.00  0.00    +0.023 A 
ATOM     25  C   UNL     1      10.783   9.873   5.147  0.00  0.00    +0.023 A 
ATOM     28  C   UNL     1      10.454   8.421   7.506  0.00  0.00    +0.002 A 
ATOM     29  C   UNL     1       9.801  10.246   6.064  0.00  0.00    +0.002 A 
ATOM     30  C   UNL     1       9.636   9.520   7.244  0.00  0.00    +0.000 A 
ENDBRANCH   6  22
ENDBRANCH  13   5
ENDBRANCH  11  13
ENDBRANCH   7  11
BRANCH   8  14
ATOM     14  C   UNL     1      15.644   4.956  -1.660  0.00  0.00    +0.124 C 
BRANCH  14  20
ATOM      3  O   UNL     1      18.014   5.500  -1.821  0.00  0.00    -0.251 OA
ATOM     20  C   UNL     1      17.120   4.742  -1.475  0.00  0.00    +0.305 C 
BRANCH  20   2
ATOM      2  O   UNL     1      17.336   3.556  -0.850  0.00  0.00    -0.481 OA
ATOM     34  H   UNL     1      18.226   3.195  -1.049  0.00  0.00    +0.295 HD
ENDBRANCH  20   2
ENDBRANCH  14  20
ENDBRANCH   8  14
BRANCH  17  21
ATOM     21  C   UNL     1      11.576   4.809   3.207  0.00  0.00    +0.131 C 
BRANCH  21  23
ATOM     23  C   UNL     1      10.417   5.716   3.485  0.00  0.00    -0.039 A 
ATOM     26  C   UNL     1      10.082   6.717   2.573  0.00  0.00    +0.004 A 
ATOM     27  C   UNL     1       9.674   5.561   4.654  0.00  0.00    +0.004 A 
ATOM     31  C   UNL     1       9.002   7.562   2.830  0.00  0.00    +0.000 A 
ATOM     32  C   UNL     1       8.594   6.406   4.912  0.00  0.00    +0.000 A 
ATOM     33  C   UNL     1       8.258   7.406   4.000  0.00  0.00    +0.000 A 
ENDBRANCH  21  23
ENDBRANCH  17  21
TORSDOF 9
ENDMDL
MODEL 7
REMARK VINA RESULT:      -6.1      2.721      6.547
REMARK  Name = 25313080
REMARK  9 active torsions:
REMARK  status: ('A' for Active; 'I' for Inactive)
REMARK    1  A    between atoms: O_2  and  C_20
REMARK    2  A    between atoms: N_5  and  C_13
REMARK    3  A    between atoms: N_6  and  C_22
REMARK    4  A    between atoms: C_7  and  C_11
REMARK    5  A    between atoms: C_8  and  C_14
REMARK    6  A    between atoms: C_11  and  C_13
REMARK    7  A    between atoms: C_14  and  C_20
REMARK    8  A    between atoms: C_17  and  C_21
REMARK    9  A    between atoms: C_21  and  C_23
REMARK                            x       y       z     vdW  Elec       q    Type
REMARK                         _______ _______ _______ _____ _____    ______ ____
ROOT
ATOM      1  O   UNL     1      -2.928 -11.305  14.480  0.00  0.00    -0.275 OA
ATOM      4  N   UNL     1      -3.970 -10.297  12.665  0.00  0.00    -0.301 N 
ATOM      7  C   UNL     1      -5.677 -10.279  10.859  0.00  0.00    +0.011 C 
ATOM      8  C   UNL     1      -4.555 -10.622   9.846  0.00  0.00    +0.006 C 
ATOM      9  C   UNL     1      -5.080  -9.541  12.070  0.00  0.00    +0.111 C 
ATOM     10  C   UNL     1      -3.392 -11.368  10.521  0.00  0.00    +0.023 C 
ATOM     12  C   UNL     1      -2.879 -10.608  11.742  0.00  0.00    +0.108 C 
ATOM     17  C   UNL     1      -3.885 -10.693  14.000  0.00  0.00    +0.220 C 
ENDROOT
BRANCH   7  11
ATOM     11  C   UNL     1      -6.488 -11.495  11.323  0.00  0.00    +0.020 C 
BRANCH  11  13
ATOM     13  C   UNL     1      -7.975 -11.172  11.362  0.00  0.00    +0.085 C 
BRANCH  13   5
ATOM      5  N   UNL     1      -8.504 -11.426  12.702  0.00  0.00    -0.299 NA
ATOM      6  N   UNL     1      -8.412 -11.598  15.552  0.00  0.00    -0.327 N 
ATOM     15  C   UNL     1      -8.444 -10.208  13.518  0.00  0.00    +0.103 C 
ATOM     16  C   UNL     1      -7.752 -12.504  13.356  0.00  0.00    +0.103 C 
ATOM     18  C   UNL     1      -9.046 -10.444  14.906  0.00  0.00    +0.120 C 
ATOM     19  C   UNL     1      -8.333 -12.818  14.737  0.00  0.00    +0.120 C 
BRANCH   6  22
ATOM     22  C   UNL     1      -8.481 -11.740  16.942  0.00  0.00    +0.030 A 
ATOM     24  C   UNL     1      -8.504 -13.012  17.512  0.00  0.00    +0.023 A 
ATOM     25  C   UNL     1      -8.527 -10.608  17.758  0.00  0.00    +0.023 A 
ATOM     28  C   UNL     1      -8.574 -13.154  18.898  0.00  0.00    +0.002 A 
ATOM     29  C   UNL     1      -8.597 -10.750  19.143  0.00  0.00    +0.002 A 
ATOM     30  C   UNL     1      -8.620 -12.023  19.714  0.00  0.00    +0.000 A 
ENDBRANCH   6  22
ENDBRANCH  13   5
ENDBRANCH  11  13
ENDBRANCH   7  11
BRANCH   8  14
ATOM     14  C   UNL     1      -5.059 -11.397   8.629  0.00  0.00    +0.124 C 
BRANCH  14  20
ATOM      3  O   UNL     1      -4.868 -10.959   6.239  0.00  0.00    -0.251 OA
ATOM     20  C   UNL     1      -5.026 -10.558   7.382  0.00  0.00    +0.305 C 
BRANCH  20   2
ATOM      2  O   UNL     1      -5.203  -9.251   7.706  0.00  0.00    -0.481 OA
ATOM     34  H   UNL     1      -6.082  -8.920   7.423  0.00  0.00    +0.295 HD
ENDBRANCH  20   2
ENDBRANCH  14  20
ENDBRANCH   8  14
BRANCH  17  21
ATOM     21  C   UNL     1      -5.052 -10.337  14.885  0.00  0.00    +0.131 C 
BRANCH  21  23
ATOM     23  C   UNL     1      -4.975 -11.079  16.183  0.00  0.00    -0.039 A 
ATOM     26  C   UNL     1      -4.897 -10.375  17.385  0.00  0.00    +0.004 A 
ATOM     27  C   UNL     1      -4.982 -12.474  16.191  0.00  0.00    +0.004 A 
ATOM     31  C   UNL     1      -4.826 -11.066  18.595  0.00  0.00    +0.000 A 
ATOM     32  C   UNL     1      -4.911 -13.165  17.400  0.00  0.00    +0.000 A 
ATOM     33  C   UNL     1      -4.833 -12.461  18.602  0.00  0.00    +0.000 A 
ENDBRANCH  21  23
ENDBRANCH  17  21
TORSDOF 9
ENDMDL
MODEL 8
REMARK VINA RESULT:      -6.0      2.231      6.809
REMARK  Name = 25313080
REMARK  9 active torsions:
REMARK  status: ('A' for Active; 'I' for Inactive)
REMARK    1  A    between atoms: O_2  and  C_20
REMARK    2  A    between atoms: N_5  and  C_13
REMARK    3  A    between atoms: N_6  and  C_22
REMARK    4  A    between atoms: C_7  and  C_11
REMARK    5  A    between atoms: C_8  and  C_14
REMARK    6  A    between atoms: C_11  and  C_13
REMARK    7  A    between atoms: C_14  and  C_20
REMARK    8  A    between atoms: C_17  and  C_21
REMARK    9  A    between atoms: C_21  and  C_23
REMARK                            x       y       z     vdW  Elec       q    Type
REMARK                         _______ _______ _______ _____ _____    ______ ____
ROOT
ATOM      1  O   UNL     1     -10.292 -11.047  16.982  0.00  0.00    -0.275 OA
ATOM      4  N   UNL     1      -8.175 -10.119  17.210  0.00  0.00    -0.301 N 
ATOM      7  C   UNL     1      -5.777  -9.962  16.573  0.00  0.00    +0.011 C 
ATOM      8  C   UNL     1      -5.422 -10.741  17.865  0.00  0.00    +0.006 C 
ATOM      9  C   UNL     1      -7.108  -9.212  16.765  0.00  0.00    +0.111 C 
ATOM     10  C   UNL     1      -6.584 -11.638  18.323  0.00  0.00    +0.023 C 
ATOM     12  C   UNL     1      -7.883 -10.845  18.446  0.00  0.00    +0.108 C 
ATOM     17  C   UNL     1      -9.402 -10.298  16.572  0.00  0.00    +0.220 C 
ENDROOT
BRANCH   7  11
ATOM     11  C   UNL     1      -5.836 -10.837  15.315  0.00  0.00    +0.020 C 
BRANCH  11  13
ATOM     13  C   UNL     1      -4.581 -10.660  14.472  0.00  0.00    +0.085 C 
BRANCH  13   5
ATOM      5  N   UNL     1      -4.911  -9.959  13.231  0.00  0.00    -0.299 NA
ATOM      6  N   UNL     1      -5.881  -9.711  10.556  0.00  0.00    -0.327 N 
ATOM     15  C   UNL     1      -6.348 -10.060  12.949  0.00  0.00    +0.103 C 
ATOM     16  C   UNL     1      -4.142 -10.511  12.109  0.00  0.00    +0.103 C 
ATOM     18  C   UNL     1      -6.716  -9.283  11.683  0.00  0.00    +0.120 C 
ATOM     19  C   UNL     1      -4.436  -9.748  10.815  0.00  0.00    +0.120 C 
BRANCH   6  22
ATOM     22  C   UNL     1      -6.308  -9.471   9.245  0.00  0.00    +0.030 A 
ATOM     24  C   UNL     1      -7.457  -8.716   9.014  0.00  0.00    +0.023 A 
ATOM     25  C   UNL     1      -5.584  -9.987   8.170  0.00  0.00    +0.023 A 
ATOM     28  C   UNL     1      -7.884  -8.477   7.707  0.00  0.00    +0.002 A 
ATOM     29  C   UNL     1      -6.010  -9.749   6.864  0.00  0.00    +0.002 A 
ATOM     30  C   UNL     1      -7.160  -8.994   6.632  0.00  0.00    +0.000 A 
ENDBRANCH   6  22
ENDBRANCH  13   5
ENDBRANCH  11  13
ENDBRANCH   7  11
BRANCH   8  14
ATOM     14  C   UNL     1      -4.131 -11.551  17.743  0.00  0.00    +0.124 C 
BRANCH  14  20
ATOM      3  O   UNL     1      -3.620 -12.108  20.060  0.00  0.00    -0.251 OA
ATOM     20  C   UNL     1      -3.926 -12.452  18.928  0.00  0.00    +0.305 C 
BRANCH  20   2
ATOM      2  O   UNL     1      -4.135 -13.743  18.563  0.00  0.00    -0.481 OA
ATOM     34  H   UNL     1      -4.812 -13.819  17.858  0.00  0.00    +0.295 HD
ENDBRANCH  20   2
ENDBRANCH  14  20
ENDBRANCH   8  14
BRANCH  17  21
ATOM     21  C   UNL     1      -9.623  -9.516  15.302  0.00  0.00    +0.131 C 
BRANCH  21  23
ATOM     23  C   UNL     1     -10.618  -8.419  15.526  0.00  0.00    -0.039 A 
ATOM     26  C   UNL     1     -11.944  -8.588  15.128  0.00  0.00    +0.004 A 
ATOM     27  C   UNL     1     -10.219  -7.228  16.133  0.00  0.00    +0.004 A 
ATOM     31  C   UNL     1     -12.871  -7.567  15.336  0.00  0.00    +0.000 A 
ATOM     32  C   UNL     1     -11.146  -6.207  16.342  0.00  0.00    +0.000 A 
ATOM     33  C   UNL     1     -12.472  -6.376  15.943  0.00  0.00    +0.000 A 
ENDBRANCH  21  23
ENDBRANCH  17  21
TORSDOF 9
ENDMDL
MODEL 9
REMARK VINA RESULT:      -6.0      2.457      6.244
REMARK  Name = 25313080
REMARK  9 active torsions:
REMARK  status: ('A' for Active; 'I' for Inactive)
REMARK    1  A    between atoms: O_2  and  C_20
REMARK    2  A    between atoms: N_5  and  C_13
REMARK    3  A    between atoms: N_6  and  C_22
REMARK    4  A    between atoms: C_7  and  C_11
REMARK    5  A    between atoms: C_8  and  C_14
REMARK    6  A    between atoms: C_11  and  C_13
REMARK    7  A    between atoms: C_14  and  C_20
REMARK    8  A    between atoms: C_17  and  C_21
REMARK    9  A    between atoms: C_21  and  C_23
REMARK                            x       y       z     vdW  Elec       q    Type
REMARK                         _______ _______ _______ _____ _____    ______ ____
ROOT
ATOM      1  O   UNL     1      -8.073 -11.548  18.315  0.00  0.00    -0.275 OA
ATOM      4  N   UNL     1      -6.475 -10.451  17.034  0.00  0.00    -0.301 N 
ATOM      7  C   UNL     1      -4.834 -10.393  15.169  0.00  0.00    +0.011 C 
ATOM      8  C   UNL     1      -3.698 -10.532  16.214  0.00  0.00    +0.006 C 
ATOM      9  C   UNL     1      -6.064  -9.734  15.819  0.00  0.00    +0.111 C 
ATOM     10  C   UNL     1      -4.185 -11.242  17.488  0.00  0.00    +0.023 C 
ATOM     12  C   UNL     1      -5.434 -10.571  18.054  0.00  0.00    +0.108 C 
ATOM     17  C   UNL     1      -7.746 -10.973  17.274  0.00  0.00    +0.220 C 
ENDROOT
BRANCH   7  11
ATOM     11  C   UNL     1      -5.230 -11.714  14.499  0.00  0.00    +0.020 C 
BRANCH  11  13
ATOM     13  C   UNL     1      -5.010 -11.647  12.994  0.00  0.00    +0.085 C 
BRANCH  13   5
ATOM      5  N   UNL     1      -5.793 -10.548  12.427  0.00  0.00    -0.299 NA
ATOM      6  N   UNL     1      -7.300  -9.187  10.419  0.00  0.00    -0.327 N 
ATOM     15  C   UNL     1      -7.141 -11.007  12.070  0.00  0.00    +0.103 C 
ATOM     16  C   UNL     1      -5.123  -9.998  11.243  0.00  0.00    +0.103 C 
ATOM     18  C   UNL     1      -7.989  -9.855  11.527  0.00  0.00    +0.120 C 
ATOM     19  C   UNL     1      -5.903  -8.810  10.673  0.00  0.00    +0.120 C 
BRANCH   6  22
ATOM     22  C   UNL     1      -8.033  -8.416   9.509  0.00  0.00    +0.030 A 
ATOM     24  C   UNL     1      -7.370  -7.663   8.541  0.00  0.00    +0.023 A 
ATOM     25  C   UNL     1      -9.427  -8.400   9.572  0.00  0.00    +0.023 A 
ATOM     28  C   UNL     1      -8.100  -6.894   7.635  0.00  0.00    +0.002 A 
ATOM     29  C   UNL     1     -10.157  -7.631   8.666  0.00  0.00    +0.002 A 
ATOM     30  C   UNL     1      -9.494  -6.878   7.698  0.00  0.00    +0.000 A 
ENDBRANCH   6  22
ENDBRANCH  13   5
ENDBRANCH  11  13
ENDBRANCH   7  11
BRANCH   8  14
ATOM     14  C   UNL     1      -2.451 -11.219  15.657  0.00  0.00    +0.124 C 
BRANCH  14  20
ATOM      3  O   UNL     1      -1.812 -10.531  13.408  0.00  0.00    -0.251 OA
ATOM     20  C   UNL     1      -1.767 -10.374  14.619  0.00  0.00    +0.305 C 
BRANCH  20   2
ATOM      2  O   UNL     1      -1.070  -9.379  15.225  0.00  0.00    -0.481 OA
ATOM     34  H   UNL     1      -1.308  -8.496  14.868  0.00  0.00    +0.295 HD
ENDBRANCH  20   2
ENDBRANCH  14  20
ENDBRANCH   8  14
BRANCH  17  21
ATOM     21  C   UNL     1      -8.762 -10.810  16.171  0.00  0.00    +0.131 C 
BRANCH  21  23
ATOM     23  C   UNL     1      -9.678  -9.663  16.464  0.00  0.00    -0.039 A 
ATOM     26  C   UNL     1     -10.876  -9.884  17.143  0.00  0.00    +0.004 A 
ATOM     27  C   UNL     1      -9.334  -8.374  16.057  0.00  0.00    +0.004 A 
ATOM     31  C   UNL     1     -11.730  -8.815  17.416  0.00  0.00    +0.000 A 
ATOM     32  C   UNL     1     -10.188  -7.305  16.330  0.00  0.00    +0.000 A 
ATOM     33  C   UNL     1     -11.386  -7.526  17.010  0.00  0.00    +0.000 A 
ENDBRANCH  21  23
ENDBRANCH  17  21
TORSDOF 9
ENDMDL
MODEL 10
REMARK VINA RESULT:      -6.0     19.587     23.764
REMARK  Name = 25313080
REMARK  9 active torsions:
REMARK  status: ('A' for Active; 'I' for Inactive)
REMARK    1  A    between atoms: O_2  and  C_20
REMARK    2  A    between atoms: N_5  and  C_13
REMARK    3  A    between atoms: N_6  and  C_22
REMARK    4  A    between atoms: C_7  and  C_11
REMARK    5  A    between atoms: C_8  and  C_14
REMARK    6  A    between atoms: C_11  and  C_13
REMARK    7  A    between atoms: C_14  and  C_20
REMARK    8  A    between atoms: C_17  and  C_21
REMARK    9  A    between atoms: C_21  and  C_23
REMARK                            x       y       z     vdW  Elec       q    Type
REMARK                         _______ _______ _______ _____ _____    ______ ____
ROOT
ATOM      1  O   UNL     1      10.170  -3.996  33.058  0.00  0.00    -0.275 OA
ATOM      4  N   UNL     1       9.097  -5.738  34.158  0.00  0.00    -0.301 N 
ATOM      7  C   UNL     1       8.249  -8.073  34.247  0.00  0.00    +0.011 C 
ATOM      8  C   UNL     1       6.819  -7.522  34.018  0.00  0.00    +0.006 C 
ATOM      9  C   UNL     1       9.123  -6.996  34.916  0.00  0.00    +0.111 C 
ATOM     10  C   UNL     1       6.842  -6.181  33.266  0.00  0.00    +0.023 C 
ATOM     12  C   UNL     1       7.763  -5.175  33.953  0.00  0.00    +0.108 C 
ATOM     17  C   UNL     1      10.218  -5.066  33.670  0.00  0.00    +0.220 C 
ENDROOT
BRANCH   7  11
ATOM     11  C   UNL     1       8.928  -8.592  32.974  0.00  0.00    +0.020 C 
BRANCH  11  13
ATOM     13  C   UNL     1       9.284 -10.065  33.111  0.00  0.00    +0.085 C 
BRANCH  13   5
ATOM      5  N   UNL     1       8.276 -10.885  32.438  0.00  0.00    -0.299 NA
ATOM      6  N   UNL     1       7.287 -12.717  30.483  0.00  0.00    -0.327 N 
ATOM     15  C   UNL     1       8.644 -12.305  32.496  0.00  0.00    +0.103 C 
ATOM     16  C   UNL     1       8.122 -10.466  31.040  0.00  0.00    +0.103 C 
ATOM     18  C   UNL     1       7.570 -13.179  31.845  0.00  0.00    +0.120 C 
ATOM     19  C   UNL     1       7.029 -11.278  30.341  0.00  0.00    +0.120 C 
BRANCH   6  22
ATOM     22  C   UNL     1       6.685 -13.586  29.566  0.00  0.00    +0.030 A 
ATOM     24  C   UNL     1       7.368 -13.962  28.410  0.00  0.00    +0.023 A 
ATOM     25  C   UNL     1       5.400 -14.075  29.807  0.00  0.00    +0.023 A 
ATOM     28  C   UNL     1       6.768 -14.827  27.495  0.00  0.00    +0.002 A 
ATOM     29  C   UNL     1       4.800 -14.940  28.893  0.00  0.00    +0.002 A 
ATOM     30  C   UNL     1       5.483 -15.316  27.737  0.00  0.00    +0.000 A 
ENDBRANCH   6  22
ENDBRANCH  13   5
ENDBRANCH  11  13
ENDBRANCH   7  11
BRANCH   8  14
ATOM     14  C   UNL     1       5.897  -8.518  33.315  0.00  0.00    +0.124 C 
BRANCH  14  20
ATOM      3  O   UNL     1       4.535  -9.228  35.208  0.00  0.00    -0.251 OA
ATOM     20  C   UNL     1       5.290  -9.494  34.285  0.00  0.00    +0.305 C 
BRANCH  20   2
ATOM      2  O   UNL     1       5.706 -10.752  33.989  0.00  0.00    -0.481 OA
ATOM     34  H   UNL     1       4.967 -11.319  33.682  0.00  0.00    +0.295 HD
ENDBRANCH  20   2
ENDBRANCH  14  20
ENDBRANCH   8  14
BRANCH  17  21
ATOM     21  C   UNL     1      11.556  -5.713  33.920  0.00  0.00    +0.131 C 
BRANCH  21  23
ATOM     23  C   UNL     1      12.312  -5.875  32.638  0.00  0.00    -0.039 A 
ATOM     26  C   UNL     1      11.845  -6.753  31.660  0.00  0.00    +0.004 A 
ATOM     27  C   UNL     1      13.482  -5.147  32.421  0.00  0.00    +0.004 A 
ATOM     31  C   UNL     1      12.549  -6.904  30.465  0.00  0.00    +0.000 A 
ATOM     32  C   UNL     1      14.185  -5.298  31.226  0.00  0.00    +0.000 A 
ATOM     33  C   UNL     1      13.719  -6.176  30.248  0.00  0.00    +0.000 A 
ENDBRANCH  21  23
ENDBRANCH  17  21
TORSDOF 9
ENDMDL
