MODEL 1
REMARK VINA RESULT:      -5.9      0.000      0.000
REMARK  Name = 11882003
REMARK  15 active torsions:
REMARK  status: ('A' for Active; 'I' for Inactive)
REMARK    1  A    between atoms: S_1  and  C_25
REMARK    2  A    between atoms: S_1  and  C_29
REMARK    3  A    between atoms: O_2  and  C_13
REMARK    4  A    between atoms: O_3  and  C_15
REMARK    5  A    between atoms: N_9  and  C_14
REMARK    6  A    between atoms: N_10  and  C_23
REMARK    7  A    between atoms: N_11  and  C_19
REMARK    8  A    between atoms: C_17  and  C_20
REMARK    9  A    between atoms: C_19  and  C_21
REMARK   10  A    between atoms: C_19  and  C_22
REMARK   11  A    between atoms: C_22  and  C_26
REMARK   12  A    between atoms: C_22  and  C_27
REMARK   13  A    between atoms: C_23  and  C_24
REMARK   14  A    between atoms: C_23  and  C_28
REMARK   15  A    between atoms: C_24  and  C_25
REMARK                            x       y       z     vdW  Elec       q    Type
REMARK                         _______ _______ _______ _____ _____    ______ ____
ROOT
ATOM     13  C   UNL     1      13.744  11.043  15.404  0.00  0.00    +0.167 C 
ATOM     14  C   UNL     1      14.885  11.878  16.011  0.00  0.00    +0.127 C 
ATOM     15  C   UNL     1      13.924   9.547  15.692  0.00  0.00    +0.149 C 
ATOM     16  C   UNL     1      14.019   9.280  17.202  0.00  0.00    +0.074 C 
ATOM     17  C   UNL     1      14.805  10.312  17.950  0.00  0.00    +0.015 C 
ATOM     18  C   UNL     1      15.206  11.479  17.424  0.00  0.00    +0.006 C 
ENDROOT
BRANCH  17  20
ATOM      4  O   UNL     1      15.639  10.913  20.062  0.00  0.00    -0.271 OA
ATOM     10  N   UNL     1      14.935   8.719  19.707  0.00  0.00    -0.300 N 
ATOM     20  C   UNL     1      15.171  10.033  19.341  0.00  0.00    +0.241 C 
ATOM     33  H   UNL     1      14.567   8.051  19.041  0.00  0.00    +0.150 HD
BRANCH  10  23
ATOM     23  C   UNL     1      15.219   8.206  21.028  0.00  0.00    +0.160 C 
BRANCH  23  28
ATOM      8  O   UNL     1      15.523   6.121  19.818  0.00  0.00    -0.274 OA
ATOM     12  N   UNL     1      16.093   6.191  22.042  0.00  0.00    -0.328 N 
ATOM     28  C   UNL     1      15.601   6.740  20.877  0.00  0.00    +0.231 C 
ATOM     36  H   UNL     1      16.155   6.716  22.908  0.00  0.00    +0.145 HD
ATOM     37  H   UNL     1      16.399   5.224  22.073  0.00  0.00    +0.145 HD
ENDBRANCH  23  28
BRANCH  23  24
ATOM     24  C   UNL     1      14.023   8.354  21.972  0.00  0.00    +0.054 C 
BRANCH  24  25
ATOM     25  C   UNL     1      12.791   7.615  21.466  0.00  0.00    +0.168 C 
BRANCH  25   1
ATOM      1  S   UNL     1      11.512   8.742  21.004  0.00  0.00    -0.034 S 
ATOM      6  O   UNL     1      12.135   9.943  20.475  0.00  0.00    -0.175 OA
ATOM      7  O   UNL     1      10.526   8.014  20.223  0.00  0.00    -0.175 OA
ATOM     29  C   UNL     1      10.759   9.167  22.557  0.00  0.00    +0.194 C 
ENDBRANCH  25   1
ENDBRANCH  24  25
ENDBRANCH  23  24
ENDBRANCH  10  23
ENDBRANCH  17  20
BRANCH  14   9
ATOM      5  O   UNL     1      16.640  14.023  15.237  0.00  0.00    -0.274 OA
ATOM      9  N   UNL     1      16.106  11.766  15.244  0.00  0.00    -0.305 N 
ATOM     21  C   UNL     1      16.892  12.862  14.918  0.00  0.00    +0.231 C 
ATOM     30  H   UNL     1      16.373  10.848  14.898  0.00  0.00    +0.149 HD
BRANCH  21  19
ATOM     19  C   UNL     1      18.120  12.476  14.094  0.00  0.00    +0.140 C 
BRANCH  19  11
ATOM     11  N   UNL     1      17.632  11.776  12.903  0.00  0.00    -0.320 NA
ATOM     34  H   UNL     1      18.380  11.710  12.215  0.00  0.00    +0.119 HD
ATOM     35  H   UNL     1      17.374  10.817  13.135  0.00  0.00    +0.119 HD
ENDBRANCH  19  11
BRANCH  19  22
ATOM     22  C   UNL     1      19.133  11.611  14.881  0.00  0.00    +0.009 C 
ATOM     26  C   UNL     1      19.736  12.314  16.103  0.00  0.00    +0.009 C 
ATOM     27  C   UNL     1      20.255  11.088  13.979  0.00  0.00    +0.009 C 
ENDBRANCH  19  22
ENDBRANCH  21  19
ENDBRANCH  14   9
BRANCH  13   2
ATOM      2  O   UNL     1      13.681  11.281  14.001  0.00  0.00    -0.387 OA
ATOM     31  H   UNL     1      13.406  12.205  13.876  0.00  0.00    +0.210 HD
ENDBRANCH  13   2
BRANCH  15   3
ATOM      3  O   UNL     1      12.805   8.818  15.191  0.00  0.00    -0.389 OA
ATOM     32  H   UNL     1      13.151   8.048  14.709  0.00  0.00    +0.210 HD
ENDBRANCH  15   3
TORSDOF 12
ENDMDL
MODEL 2
REMARK VINA RESULT:      -5.7     16.300     19.610
REMARK  Name = 11882003
REMARK  15 active torsions:
REMARK  status: ('A' for Active; 'I' for Inactive)
REMARK    1  A    between atoms: S_1  and  C_25
REMARK    2  A    between atoms: S_1  and  C_29
REMARK    3  A    between atoms: O_2  and  C_13
REMARK    4  A    between atoms: O_3  and  C_15
REMARK    5  A    between atoms: N_9  and  C_14
REMARK    6  A    between atoms: N_10  and  C_23
REMARK    7  A    between atoms: N_11  and  C_19
REMARK    8  A    between atoms: C_17  and  C_20
REMARK    9  A    between atoms: C_19  and  C_21
REMARK   10  A    between atoms: C_19  and  C_22
REMARK   11  A    between atoms: C_22  and  C_26
REMARK   12  A    between atoms: C_22  and  C_27
REMARK   13  A    between atoms: C_23  and  C_24
REMARK   14  A    between atoms: C_23  and  C_28
REMARK   15  A    between atoms: C_24  and  C_25
REMARK                            x       y       z     vdW  Elec       q    Type
REMARK                         _______ _______ _______ _____ _____    ______ ____
ROOT
ATOM     13  C   UNL     1      14.523   5.596   2.143  0.00  0.00    +0.167 C 
ATOM     14  C   UNL     1      13.195   6.348   2.343  0.00  0.00    +0.127 C 
ATOM     15  C   UNL     1      14.302   4.083   2.017  0.00  0.00    +0.149 C 
ATOM     16  C   UNL     1      13.341   3.757   0.864  0.00  0.00    +0.074 C 
ATOM     17  C   UNL     1      12.200   4.719   0.739  0.00  0.00    +0.015 C 
ATOM     18  C   UNL     1      12.119   5.881   1.403  0.00  0.00    +0.006 C 
ENDROOT
BRANCH  17  20
ATOM      4  O   UNL     1       9.940   4.293   0.263  0.00  0.00    -0.271 OA
ATOM     10  N   UNL     1      11.504   4.150  -1.460  0.00  0.00    -0.300 N 
ATOM     20  C   UNL     1      11.094   4.370  -0.156  0.00  0.00    +0.241 C 
ATOM     33  H   UNL     1      12.481   4.213  -1.716  0.00  0.00    +0.150 HD
BRANCH  10  23
ATOM     23  C   UNL     1      10.593   3.790  -2.523  0.00  0.00    +0.160 C 
BRANCH  23  28
ATOM      8  O   UNL     1       9.725   1.580  -3.037  0.00  0.00    -0.274 OA
ATOM     12  N   UNL     1      11.952   1.790  -2.517  0.00  0.00    -0.328 N 
ATOM     28  C   UNL     1      10.678   2.282  -2.708  0.00  0.00    +0.231 C 
ATOM     36  H   UNL     1      12.731   2.382  -2.250  0.00  0.00    +0.145 HD
ATOM     37  H   UNL     1      12.149   0.801  -2.626  0.00  0.00    +0.145 HD
ENDBRANCH  23  28
BRANCH  23  24
ATOM     24  C   UNL     1      10.924   4.512  -3.832  0.00  0.00    +0.054 C 
BRANCH  24  25
ATOM     25  C   UNL     1      12.042   5.533  -3.664  0.00  0.00    +0.168 C 
BRANCH  25   1
ATOM      1  S   UNL     1      13.611   4.842  -4.087  0.00  0.00    -0.034 S 
ATOM      6  O   UNL     1      14.422   5.889  -4.685  0.00  0.00    -0.175 OA
ATOM      7  O   UNL     1      14.099   4.090  -2.944  0.00  0.00    -0.175 OA
ATOM     29  C   UNL     1      13.213   3.674  -5.368  0.00  0.00    +0.194 C 
ENDBRANCH  25   1
ENDBRANCH  24  25
ENDBRANCH  23  24
ENDBRANCH  10  23
ENDBRANCH  17  20
BRANCH  14   9
ATOM      5  O   UNL     1      11.823   8.342   3.899  0.00  0.00    -0.274 OA
ATOM      9  N   UNL     1      12.685   6.200   3.688  0.00  0.00    -0.305 N 
ATOM     21  C   UNL     1      12.033   7.222   4.362  0.00  0.00    +0.231 C 
ATOM     30  H   UNL     1      12.851   5.320   4.170  0.00  0.00    +0.149 HD
BRANCH  21  19
ATOM     19  C   UNL     1      11.604   6.814   5.770  0.00  0.00    +0.140 C 
BRANCH  19  11
ATOM     11  N   UNL     1      12.807   6.349   6.465  0.00  0.00    -0.320 NA
ATOM     34  H   UNL     1      12.618   6.276   7.464  0.00  0.00    +0.119 HD
ATOM     35  H   UNL     1      13.057   5.411   6.154  0.00  0.00    +0.119 HD
ENDBRANCH  19  11
BRANCH  19  22
ATOM     22  C   UNL     1      10.495   5.735   5.780  0.00  0.00    +0.009 C 
ATOM     26  C   UNL     1       9.254   6.109   4.961  0.00  0.00    +0.009 C 
ATOM     27  C   UNL     1      10.079   5.359   7.205  0.00  0.00    +0.009 C 
ENDBRANCH  19  22
ENDBRANCH  21  19
ENDBRANCH  14   9
BRANCH  13   2
ATOM      2  O   UNL     1      15.397   5.888   3.230  0.00  0.00    -0.387 OA
ATOM     31  H   UNL     1      14.920   6.485   3.833  0.00  0.00    +0.210 HD
ENDBRANCH  13   2
BRANCH  15   3
ATOM      3  O   UNL     1      15.543   3.433   1.747  0.00  0.00    -0.389 OA
ATOM     32  H   UNL     1      15.433   2.492   1.965  0.00  0.00    +0.210 HD
ENDBRANCH  15   3
TORSDOF 12
ENDMDL
MODEL 3
REMARK VINA RESULT:      -5.5     27.504     29.798
REMARK  Name = 11882003
REMARK  15 active torsions:
REMARK  status: ('A' for Active; 'I' for Inactive)
REMARK    1  A    between atoms: S_1  and  C_25
REMARK    2  A    between atoms: S_1  and  C_29
REMARK    3  A    between atoms: O_2  and  C_13
REMARK    4  A    between atoms: O_3  and  C_15
REMARK    5  A    between atoms: N_9  and  C_14
REMARK    6  A    between atoms: N_10  and  C_23
REMARK    7  A    between atoms: N_11  and  C_19
REMARK    8  A    between atoms: C_17  and  C_20
REMARK    9  A    between atoms: C_19  and  C_21
REMARK   10  A    between atoms: C_19  and  C_22
REMARK   11  A    between atoms: C_22  and  C_26
REMARK   12  A    between atoms: C_22  and  C_27
REMARK   13  A    between atoms: C_23  and  C_24
REMARK   14  A    between atoms: C_23  and  C_28
REMARK   15  A    between atoms: C_24  and  C_25
REMARK                            x       y       z     vdW  Elec       q    Type
REMARK                         _______ _______ _______ _____ _____    ______ ____
ROOT
ATOM     13  C   UNL     1      -2.462 -11.677  14.560  0.00  0.00    +0.167 C 
ATOM     14  C   UNL     1      -3.972 -11.689  14.267  0.00  0.00    +0.127 C 
ATOM     15  C   UNL     1      -2.109 -10.672  15.664  0.00  0.00    +0.149 C 
ATOM     16  C   UNL     1      -2.887 -10.969  16.954  0.00  0.00    +0.074 C 
ATOM     17  C   UNL     1      -4.303 -11.395  16.721  0.00  0.00    +0.015 C 
ATOM     18  C   UNL     1      -4.805 -11.713  15.518  0.00  0.00    +0.006 C 
ENDROOT
BRANCH  17  20
ATOM      4  O   UNL     1      -4.798 -11.806  18.980  0.00  0.00    -0.271 OA
ATOM     10  N   UNL     1      -6.509 -11.111  17.557  0.00  0.00    -0.300 N 
ATOM     20  C   UNL     1      -5.207 -11.463  17.872  0.00  0.00    +0.241 C 
ATOM     33  H   UNL     1      -6.766 -10.862  16.609  0.00  0.00    +0.150 HD
BRANCH  10  23
ATOM     23  C   UNL     1      -7.581 -11.104  18.526  0.00  0.00    +0.160 C 
BRANCH  23  28
ATOM      8  O   UNL     1      -8.490 -13.258  17.865  0.00  0.00    -0.274 OA
ATOM     12  N   UNL     1      -7.754 -12.995  20.024  0.00  0.00    -0.328 N 
ATOM     28  C   UNL     1      -8.009 -12.549  18.745  0.00  0.00    +0.231 C 
ATOM     36  H   UNL     1      -7.352 -12.399  20.741  0.00  0.00    +0.145 HD
ATOM     37  H   UNL     1      -7.977 -13.946  20.298  0.00  0.00    +0.145 HD
ENDBRANCH  23  28
BRANCH  23  24
ATOM     24  C   UNL     1      -8.768 -10.256  18.064  0.00  0.00    +0.054 C 
BRANCH  24  25
ATOM     25  C   UNL     1      -8.352  -9.154  17.099  0.00  0.00    +0.168 C 
BRANCH  25   1
ATOM      1  S   UNL     1      -8.874  -9.513  15.451  0.00  0.00    -0.034 S 
ATOM      6  O   UNL     1      -9.663  -8.392  14.969  0.00  0.00    -0.175 OA
ATOM      7  O   UNL     1      -7.721  -9.982  14.701  0.00  0.00    -0.175 OA
ATOM     29  C   UNL     1      -9.975 -10.893  15.661  0.00  0.00    +0.194 C 
ENDBRANCH  25   1
ENDBRANCH  24  25
ENDBRANCH  23  24
ENDBRANCH  10  23
ENDBRANCH  17  20
BRANCH  14   9
ATOM      5  O   UNL     1      -5.020 -11.682  11.587  0.00  0.00    -0.274 OA
ATOM      9  N   UNL     1      -4.385 -10.535  13.499  0.00  0.00    -0.305 N 
ATOM     21  C   UNL     1      -4.881 -10.629  12.207  0.00  0.00    +0.231 C 
ATOM     30  H   UNL     1      -4.266  -9.614  13.914  0.00  0.00    +0.149 HD
BRANCH  21  19
ATOM     19  C   UNL     1      -5.234  -9.265  11.614  0.00  0.00    +0.140 C 
BRANCH  19  11
ATOM     11  N   UNL     1      -6.453  -8.810  12.288  0.00  0.00    -0.320 NA
ATOM     34  H   UNL     1      -6.898  -8.081  11.733  0.00  0.00    +0.119 HD
ATOM     35  H   UNL     1      -7.128  -9.571  12.353  0.00  0.00    +0.119 HD
ENDBRANCH  19  11
BRANCH  19  22
ATOM     22  C   UNL     1      -5.416  -9.297  10.079  0.00  0.00    +0.009 C 
ATOM     26  C   UNL     1      -4.169  -8.877   9.293  0.00  0.00    +0.009 C 
ATOM     27  C   UNL     1      -6.616  -8.457   9.631  0.00  0.00    +0.009 C 
ENDBRANCH  19  22
ENDBRANCH  21  19
ENDBRANCH  14   9
BRANCH  13   2
ATOM      2  O   UNL     1      -1.752 -11.377  13.361  0.00  0.00    -0.387 OA
ATOM     31  H   UNL     1      -1.866 -12.133  12.760  0.00  0.00    +0.210 HD
ENDBRANCH  13   2
BRANCH  15   3
ATOM      3  O   UNL     1      -0.717 -10.753  15.966  0.00  0.00    -0.389 OA
ATOM     32  H   UNL     1      -0.621 -11.325  16.747  0.00  0.00    +0.210 HD
ENDBRANCH  15   3
TORSDOF 12
ENDMDL
MODEL 4
REMARK VINA RESULT:      -5.5     14.770     18.210
REMARK  Name = 11882003
REMARK  15 active torsions:
REMARK  status: ('A' for Active; 'I' for Inactive)
REMARK    1  A    between atoms: S_1  and  C_25
REMARK    2  A    between atoms: S_1  and  C_29
REMARK    3  A    between atoms: O_2  and  C_13
REMARK    4  A    between atoms: O_3  and  C_15
REMARK    5  A    between atoms: N_9  and  C_14
REMARK    6  A    between atoms: N_10  and  C_23
REMARK    7  A    between atoms: N_11  and  C_19
REMARK    8  A    between atoms: C_17  and  C_20
REMARK    9  A    between atoms: C_19  and  C_21
REMARK   10  A    between atoms: C_19  and  C_22
REMARK   11  A    between atoms: C_22  and  C_26
REMARK   12  A    between atoms: C_22  and  C_27
REMARK   13  A    between atoms: C_23  and  C_24
REMARK   14  A    between atoms: C_23  and  C_28
REMARK   15  A    between atoms: C_24  and  C_25
REMARK                            x       y       z     vdW  Elec       q    Type
REMARK                         _______ _______ _______ _____ _____    ______ ____
ROOT
ATOM     13  C   UNL     1      10.592   7.178   3.276  0.00  0.00    +0.167 C 
ATOM     14  C   UNL     1      10.288   5.699   3.572  0.00  0.00    +0.127 C 
ATOM     15  C   UNL     1      12.101   7.446   3.228  0.00  0.00    +0.149 C 
ATOM     16  C   UNL     1      12.789   6.555   2.184  0.00  0.00    +0.074 C 
ATOM     17  C   UNL     1      12.250   5.159   2.130  0.00  0.00    +0.015 C 
ATOM     18  C   UNL     1      11.132   4.760   2.756  0.00  0.00    +0.006 C 
ENDROOT
BRANCH  17  20
ATOM      4  O   UNL     1      13.018   2.980   1.710  0.00  0.00    -0.271 OA
ATOM     10  N   UNL     1      13.613   4.691   0.243  0.00  0.00    -0.300 N 
ATOM     20  C   UNL     1      12.988   4.158   1.357  0.00  0.00    +0.241 C 
ATOM     33  H   UNL     1      13.556   5.680   0.037  0.00  0.00    +0.150 HD
BRANCH  10  23
ATOM     23  C   UNL     1      14.404   3.899  -0.673  0.00  0.00    +0.160 C 
BRANCH  23  28
ATOM      8  O   UNL     1      16.561   4.445  -1.649  0.00  0.00    -0.274 OA
ATOM     12  N   UNL     1      16.150   5.071   0.522  0.00  0.00    -0.328 N 
ATOM     28  C   UNL     1      15.814   4.472  -0.673  0.00  0.00    +0.231 C 
ATOM     36  H   UNL     1      15.521   5.089   1.319  0.00  0.00    +0.145 HD
ATOM     37  H   UNL     1      17.057   5.507   0.650  0.00  0.00    +0.145 HD
ENDBRANCH  23  28
BRANCH  23  24
ATOM     24  C   UNL     1      13.821   3.905  -2.088  0.00  0.00    +0.054 C 
BRANCH  24  25
ATOM     25  C   UNL     1      12.588   4.791  -2.203  0.00  0.00    +0.168 C 
BRANCH  25   1
ATOM      1  S   UNL     1      11.107   3.831  -2.211  0.00  0.00    -0.034 S 
ATOM      6  O   UNL     1      10.520   3.889  -0.883  0.00  0.00    -0.175 OA
ATOM      7  O   UNL     1      10.329   4.205  -3.380  0.00  0.00    -0.175 OA
ATOM     29  C   UNL     1      11.694   2.172  -2.467  0.00  0.00    +0.194 C 
ENDBRANCH  25   1
ENDBRANCH  24  25
ENDBRANCH  23  24
ENDBRANCH  10  23
ENDBRANCH  17  20
BRANCH  14   9
ATOM      5  O   UNL     1       8.331   5.757   5.681  0.00  0.00    -0.274 OA
ATOM      9  N   UNL     1      10.502   5.369   4.964  0.00  0.00    -0.305 N 
ATOM     21  C   UNL     1       9.493   5.426   5.914  0.00  0.00    +0.231 C 
ATOM     30  H   UNL     1      11.443   5.124   5.260  0.00  0.00    +0.149 HD
BRANCH  21  19
ATOM     19  C   UNL     1       9.981   5.039   7.310  0.00  0.00    +0.140 C 
BRANCH  19  11
ATOM     11  N   UNL     1      10.110   3.580   7.327  0.00  0.00    -0.320 NA
ATOM     34  H   UNL     1       9.221   3.161   7.597  0.00  0.00    +0.119 HD
ATOM     35  H   UNL     1      10.315   3.230   6.392  0.00  0.00    +0.119 HD
ENDBRANCH  19  11
BRANCH  19  22
ATOM     22  C   UNL     1       9.049   5.537   8.440  0.00  0.00    +0.009 C 
ATOM     26  C   UNL     1       9.048   7.059   8.622  0.00  0.00    +0.009 C 
ATOM     27  C   UNL     1       9.362   4.857   9.776  0.00  0.00    +0.009 C 
ENDBRANCH  19  22
ENDBRANCH  21  19
ENDBRANCH  14   9
BRANCH  13   2
ATOM      2  O   UNL     1       9.967   7.992   4.265  0.00  0.00    -0.387 OA
ATOM     31  H   UNL     1       9.672   7.404   4.981  0.00  0.00    +0.210 HD
ENDBRANCH  13   2
BRANCH  15   3
ATOM      3  O   UNL     1      12.340   8.805   2.866  0.00  0.00    -0.389 OA
ATOM     32  H   UNL     1      13.299   8.959   2.928  0.00  0.00    +0.210 HD
ENDBRANCH  15   3
TORSDOF 12
ENDMDL
MODEL 5
REMARK VINA RESULT:      -5.5     28.127     30.203
REMARK  Name = 11882003
REMARK  15 active torsions:
REMARK  status: ('A' for Active; 'I' for Inactive)
REMARK    1  A    between atoms: S_1  and  C_25
REMARK    2  A    between atoms: S_1  and  C_29
REMARK    3  A    between atoms: O_2  and  C_13
REMARK    4  A    between atoms: O_3  and  C_15
REMARK    5  A    between atoms: N_9  and  C_14
REMARK    6  A    between atoms: N_10  and  C_23
REMARK    7  A    between atoms: N_11  and  C_19
REMARK    8  A    between atoms: C_17  and  C_20
REMARK    9  A    between atoms: C_19  and  C_21
REMARK   10  A    between atoms: C_19  and  C_22
REMARK   11  A    between atoms: C_22  and  C_26
REMARK   12  A    between atoms: C_22  and  C_27
REMARK   13  A    between atoms: C_23  and  C_24
REMARK   14  A    between atoms: C_23  and  C_28
REMARK   15  A    between atoms: C_24  and  C_25
REMARK                            x       y       z     vdW  Elec       q    Type
REMARK                         _______ _______ _______ _____ _____    ______ ____
ROOT
ATOM     13  C   UNL     1      -2.259 -13.547  13.640  0.00  0.00    +0.167 C 
ATOM     14  C   UNL     1      -2.367 -12.116  14.196  0.00  0.00    +0.127 C 
ATOM     15  C   UNL     1      -3.287 -13.802  12.531  0.00  0.00    +0.149 C 
ATOM     16  C   UNL     1      -3.133 -12.788  11.389  0.00  0.00    +0.074 C 
ATOM     17  C   UNL     1      -2.823 -11.398  11.852  0.00  0.00    +0.015 C 
ATOM     18  C   UNL     1      -2.486 -11.082  13.111  0.00  0.00    +0.006 C 
ENDROOT
BRANCH  17  20
ATOM      4  O   UNL     1      -2.025  -9.445  10.819  0.00  0.00    -0.271 OA
ATOM     10  N   UNL     1      -4.032 -10.375  10.081  0.00  0.00    -0.300 N 
ATOM     20  C   UNL     1      -2.901 -10.307  10.877  0.00  0.00    +0.241 C 
ATOM     33  H   UNL     1      -4.717 -11.108  10.212  0.00  0.00    +0.150 HD
BRANCH  10  23
ATOM     23  C   UNL     1      -4.329  -9.407   9.049  0.00  0.00    +0.160 C 
BRANCH  23  28
ATOM      8  O   UNL     1      -5.111  -7.868  10.759  0.00  0.00    -0.274 OA
ATOM     12  N   UNL     1      -6.295  -8.021   8.797  0.00  0.00    -0.328 N 
ATOM     28  C   UNL     1      -5.270  -8.372   9.650  0.00  0.00    +0.231 C 
ATOM     36  H   UNL     1      -6.413  -8.444   7.882  0.00  0.00    +0.145 HD
ATOM     37  H   UNL     1      -6.985  -7.329   9.069  0.00  0.00    +0.145 HD
ENDBRANCH  23  28
BRANCH  23  24
ATOM     24  C   UNL     1      -4.962 -10.058   7.817  0.00  0.00    +0.054 C 
BRANCH  24  25
ATOM     25  C   UNL     1      -5.302 -11.525   8.046  0.00  0.00    +0.168 C 
BRANCH  25   1
ATOM      1  S   UNL     1      -6.927 -11.710   8.711  0.00  0.00    -0.034 S 
ATOM      6  O   UNL     1      -6.815 -11.855  10.152  0.00  0.00    -0.175 OA
ATOM      7  O   UNL     1      -7.774 -10.679   8.136  0.00  0.00    -0.175 OA
ATOM     29  C   UNL     1      -7.464 -13.273   8.054  0.00  0.00    +0.194 C 
ENDBRANCH  25   1
ENDBRANCH  24  25
ENDBRANCH  23  24
ENDBRANCH  10  23
ENDBRANCH  17  20
BRANCH  14   9
ATOM      5  O   UNL     1      -2.540 -10.436  16.525  0.00  0.00    -0.274 OA
ATOM      9  N   UNL     1      -3.509 -11.957  15.068  0.00  0.00    -0.305 N 
ATOM     21  C   UNL     1      -3.500 -11.120  16.174  0.00  0.00    +0.231 C 
ATOM     30  H   UNL     1      -4.337 -12.517  14.881  0.00  0.00    +0.149 HD
BRANCH  21  19
ATOM     19  C   UNL     1      -4.826 -11.140  16.934  0.00  0.00    +0.140 C 
BRANCH  19  11
ATOM     11  N   UNL     1      -5.660 -10.080  16.363  0.00  0.00    -0.320 NA
ATOM     34  H   UNL     1      -6.268 -10.472  15.646  0.00  0.00    +0.119 HD
ATOM     35  H   UNL     1      -6.277  -9.691  17.076  0.00  0.00    +0.119 HD
ENDBRANCH  19  11
BRANCH  19  22
ATOM     22  C   UNL     1      -4.655 -10.964  18.461  0.00  0.00    +0.009 C 
ATOM     26  C   UNL     1      -4.009 -12.166  19.159  0.00  0.00    +0.009 C 
ATOM     27  C   UNL     1      -5.981 -10.620  19.146  0.00  0.00    +0.009 C 
ENDBRANCH  19  22
ENDBRANCH  21  19
ENDBRANCH  14   9
BRANCH  13   2
ATOM      2  O   UNL     1      -2.427 -14.478  14.706  0.00  0.00    -0.387 OA
ATOM     31  H   UNL     1      -1.547 -14.831  14.924  0.00  0.00    +0.210 HD
ENDBRANCH  13   2
BRANCH  15   3
ATOM      3  O   UNL     1      -3.098 -15.106  11.985  0.00  0.00    -0.389 OA
ATOM     32  H   UNL     1      -3.392 -15.079  11.058  0.00  0.00    +0.210 HD
ENDBRANCH  15   3
TORSDOF 12
ENDMDL
MODEL 6
REMARK VINA RESULT:      -5.5     16.396     19.604
REMARK  Name = 11882003
REMARK  15 active torsions:
REMARK  status: ('A' for Active; 'I' for Inactive)
REMARK    1  A    between atoms: S_1  and  C_25
REMARK    2  A    between atoms: S_1  and  C_29
REMARK    3  A    between atoms: O_2  and  C_13
REMARK    4  A    between atoms: O_3  and  C_15
REMARK    5  A    between atoms: N_9  and  C_14
REMARK    6  A    between atoms: N_10  and  C_23
REMARK    7  A    between atoms: N_11  and  C_19
REMARK    8  A    between atoms: C_17  and  C_20
REMARK    9  A    between atoms: C_19  and  C_21
REMARK   10  A    between atoms: C_19  and  C_22
REMARK   11  A    between atoms: C_22  and  C_26
REMARK   12  A    between atoms: C_22  and  C_27
REMARK   13  A    between atoms: C_23  and  C_24
REMARK   14  A    between atoms: C_23  and  C_28
REMARK   15  A    between atoms: C_24  and  C_25
REMARK                            x       y       z     vdW  Elec       q    Type
REMARK                         _______ _______ _______ _____ _____    ______ ____
ROOT
ATOM     13  C   UNL     1      14.522   5.449   2.072  0.00  0.00    +0.167 C 
ATOM     14  C   UNL     1      13.216   6.242   2.253  0.00  0.00    +0.127 C 
ATOM     15  C   UNL     1      14.258   3.941   1.977  0.00  0.00    +0.149 C 
ATOM     16  C   UNL     1      13.291   3.619   0.828  0.00  0.00    +0.074 C 
ATOM     17  C   UNL     1      12.178   4.610   0.680  0.00  0.00    +0.015 C 
ATOM     18  C   UNL     1      12.129   5.787   1.320  0.00  0.00    +0.006 C 
ENDROOT
BRANCH  17  20
ATOM      4  O   UNL     1       9.911   4.207   0.213  0.00  0.00    -0.271 OA
ATOM     10  N   UNL     1      11.466   4.055  -1.518  0.00  0.00    -0.300 N 
ATOM     20  C   UNL     1      11.064   4.275  -0.211  0.00  0.00    +0.241 C 
ATOM     33  H   UNL     1      12.443   4.110  -1.778  0.00  0.00    +0.150 HD
BRANCH  10  23
ATOM     23  C   UNL     1      10.546   3.708  -2.578  0.00  0.00    +0.160 C 
BRANCH  23  28
ATOM      8  O   UNL     1      11.645   1.542  -2.520  0.00  0.00    -0.274 OA
ATOM     12  N   UNL     1       9.485   1.656  -3.294  0.00  0.00    -0.328 N 
ATOM     28  C   UNL     1      10.648   2.205  -2.797  0.00  0.00    +0.231 C 
ATOM     36  H   UNL     1       8.668   2.216  -3.515  0.00  0.00    +0.145 HD
ATOM     37  H   UNL     1       9.414   0.660  -3.471  0.00  0.00    +0.145 HD
ENDBRANCH  23  28
BRANCH  23  24
ATOM     24  C   UNL     1      10.853   4.462  -3.874  0.00  0.00    +0.054 C 
BRANCH  24  25
ATOM     25  C   UNL     1      10.334   5.894  -3.848  0.00  0.00    +0.168 C 
BRANCH  25   1
ATOM      1  S   UNL     1       8.569   5.937  -3.855  0.00  0.00    -0.034 S 
ATOM      6  O   UNL     1       8.091   4.827  -4.660  0.00  0.00    -0.175 OA
ATOM      7  O   UNL     1       8.113   6.108  -2.486  0.00  0.00    -0.175 OA
ATOM     29  C   UNL     1       8.199   7.437  -4.735  0.00  0.00    +0.194 C 
ENDBRANCH  25   1
ENDBRANCH  24  25
ENDBRANCH  23  24
ENDBRANCH  10  23
ENDBRANCH  17  20
BRANCH  14   9
ATOM      5  O   UNL     1      12.007   8.340   3.808  0.00  0.00    -0.274 OA
ATOM      9  N   UNL     1      12.699   6.137   3.599  0.00  0.00    -0.305 N 
ATOM     21  C   UNL     1      12.130   7.208   4.273  0.00  0.00    +0.231 C 
ATOM     30  H   UNL     1      12.796   5.247   4.083  0.00  0.00    +0.149 HD
BRANCH  21  19
ATOM     19  C   UNL     1      11.673   6.836   5.683  0.00  0.00    +0.140 C 
BRANCH  19  11
ATOM     11  N   UNL     1      12.860   6.375   6.408  0.00  0.00    -0.320 NA
ATOM     34  H   UNL     1      13.213   7.126   6.999  0.00  0.00    +0.119 HD
ATOM     35  H   UNL     1      12.617   5.610   7.037  0.00  0.00    +0.119 HD
ENDBRANCH  19  11
BRANCH  19  22
ATOM     22  C   UNL     1      10.552   5.770   5.698  0.00  0.00    +0.009 C 
ATOM     26  C   UNL     1       9.328   6.140   4.853  0.00  0.00    +0.009 C 
ATOM     27  C   UNL     1      10.111   5.429   7.125  0.00  0.00    +0.009 C 
ENDBRANCH  19  22
ENDBRANCH  21  19
ENDBRANCH  14   9
BRANCH  13   2
ATOM      2  O   UNL     1      15.401   5.738   3.156  0.00  0.00    -0.387 OA
ATOM     31  H   UNL     1      16.292   5.855   2.783  0.00  0.00    +0.210 HD
ENDBRANCH  13   2
BRANCH  15   3
ATOM      3  O   UNL     1      15.480   3.250   1.723  0.00  0.00    -0.389 OA
ATOM     32  H   UNL     1      15.824   2.942   2.579  0.00  0.00    +0.210 HD
ENDBRANCH  15   3
TORSDOF 12
ENDMDL
MODEL 7
REMARK VINA RESULT:      -5.5     27.552     29.671
REMARK  Name = 11882003
REMARK  15 active torsions:
REMARK  status: ('A' for Active; 'I' for Inactive)
REMARK    1  A    between atoms: S_1  and  C_25
REMARK    2  A    between atoms: S_1  and  C_29
REMARK    3  A    between atoms: O_2  and  C_13
REMARK    4  A    between atoms: O_3  and  C_15
REMARK    5  A    between atoms: N_9  and  C_14
REMARK    6  A    between atoms: N_10  and  C_23
REMARK    7  A    between atoms: N_11  and  C_19
REMARK    8  A    between atoms: C_17  and  C_20
REMARK    9  A    between atoms: C_19  and  C_21
REMARK   10  A    between atoms: C_19  and  C_22
REMARK   11  A    between atoms: C_22  and  C_26
REMARK   12  A    between atoms: C_22  and  C_27
REMARK   13  A    between atoms: C_23  and  C_24
REMARK   14  A    between atoms: C_23  and  C_28
REMARK   15  A    between atoms: C_24  and  C_25
REMARK                            x       y       z     vdW  Elec       q    Type
REMARK                         _______ _______ _______ _____ _____    ______ ____
ROOT
ATOM     13  C   UNL     1      -2.849 -11.843  14.563  0.00  0.00    +0.167 C 
ATOM     14  C   UNL     1      -4.256 -11.513  14.035  0.00  0.00    +0.127 C 
ATOM     15  C   UNL     1      -2.348 -10.775  15.542  0.00  0.00    +0.149 C 
ATOM     16  C   UNL     1      -3.318 -10.603  16.720  0.00  0.00    +0.074 C 
ATOM     17  C   UNL     1      -4.761 -10.678  16.330  0.00  0.00    +0.015 C 
ATOM     18  C   UNL     1      -5.195 -11.077  15.125  0.00  0.00    +0.006 C 
ENDROOT
BRANCH  17  20
ATOM      4  O   UNL     1      -5.566 -10.425  18.522  0.00  0.00    -0.271 OA
ATOM     10  N   UNL     1      -6.915  -9.763  16.740  0.00  0.00    -0.300 N 
ATOM     20  C   UNL     1      -5.769 -10.283  17.317  0.00  0.00    +0.241 C 
ATOM     33  H   UNL     1      -7.009  -9.703  15.734  0.00  0.00    +0.150 HD
BRANCH  10  23
ATOM     23  C   UNL     1      -8.050  -9.307  17.511  0.00  0.00    +0.160 C 
BRANCH  23  28
ATOM      8  O   UNL     1      -9.253 -11.415  17.399  0.00  0.00    -0.274 OA
ATOM     12  N   UNL     1      -8.671 -10.592  19.463  0.00  0.00    -0.328 N 
ATOM     28  C   UNL     1      -8.735 -10.538  18.087  0.00  0.00    +0.231 C 
ATOM     36  H   UNL     1      -8.237  -9.862  20.019  0.00  0.00    +0.145 HD
ATOM     37  H   UNL     1      -9.077 -11.370  19.973  0.00  0.00    +0.145 HD
ENDBRANCH  23  28
BRANCH  23  24
ATOM     24  C   UNL     1      -9.030  -8.494  16.663  0.00  0.00    +0.054 C 
BRANCH  24  25
ATOM     25  C   UNL     1     -10.281  -8.101  17.439  0.00  0.00    +0.168 C 
BRANCH  25   1
ATOM      1  S   UNL     1     -11.510  -7.418  16.372  0.00  0.00    -0.034 S 
ATOM      6  O   UNL     1     -12.781  -8.052  16.678  0.00  0.00    -0.175 OA
ATOM      7  O   UNL     1     -11.380  -5.971  16.398  0.00  0.00    -0.175 OA
ATOM     29  C   UNL     1     -11.008  -7.973  14.759  0.00  0.00    +0.194 C 
ENDBRANCH  25   1
ENDBRANCH  24  25
ENDBRANCH  23  24
ENDBRANCH  10  23
ENDBRANCH  17  20
BRANCH  14   9
ATOM      5  O   UNL     1      -6.158 -11.089  11.918  0.00  0.00    -0.274 OA
ATOM      9  N   UNL     1      -4.231 -10.461  13.044  0.00  0.00    -0.305 N 
ATOM     21  C   UNL     1      -5.196 -10.334  12.056  0.00  0.00    +0.231 C 
ATOM     30  H   UNL     1      -3.448  -9.812  13.052  0.00  0.00    +0.149 HD
BRANCH  21  19
ATOM     19  C   UNL     1      -4.934  -9.148  11.129  0.00  0.00    +0.140 C 
BRANCH  19  11
ATOM     11  N   UNL     1      -6.223  -8.772  10.543  0.00  0.00    -0.320 NA
ATOM     34  H   UNL     1      -6.975  -9.255  11.032  0.00  0.00    +0.119 HD
ATOM     35  H   UNL     1      -6.395  -7.776  10.671  0.00  0.00    +0.119 HD
ENDBRANCH  19  11
BRANCH  19  22
ATOM     22  C   UNL     1      -3.882  -9.450  10.036  0.00  0.00    +0.009 C 
ATOM     26  C   UNL     1      -4.042 -10.827   9.381  0.00  0.00    +0.009 C 
ATOM     27  C   UNL     1      -2.453  -9.290  10.561  0.00  0.00    +0.009 C 
ENDBRANCH  19  22
ENDBRANCH  21  19
ENDBRANCH  14   9
BRANCH  13   2
ATOM      2  O   UNL     1      -1.954 -11.977  13.462  0.00  0.00    -0.387 OA
ATOM     31  H   UNL     1      -2.000 -11.152  12.949  0.00  0.00    +0.210 HD
ENDBRANCH  13   2
BRANCH  15   3
ATOM      3  O   UNL     1      -1.081 -11.160  16.073  0.00  0.00    -0.389 OA
ATOM     32  H   UNL     1      -0.639 -11.710  15.404  0.00  0.00    +0.210 HD
ENDBRANCH  15   3
TORSDOF 12
ENDMDL
MODEL 8
REMARK VINA RESULT:      -5.5     27.836     30.144
REMARK  Name = 11882003
REMARK  15 active torsions:
REMARK  status: ('A' for Active; 'I' for Inactive)
REMARK    1  A    between atoms: S_1  and  C_25
REMARK    2  A    between atoms: S_1  and  C_29
REMARK    3  A    between atoms: O_2  and  C_13
REMARK    4  A    between atoms: O_3  and  C_15
REMARK    5  A    between atoms: N_9  and  C_14
REMARK    6  A    between atoms: N_10  and  C_23
REMARK    7  A    between atoms: N_11  and  C_19
REMARK    8  A    between atoms: C_17  and  C_20
REMARK    9  A    between atoms: C_19  and  C_21
REMARK   10  A    between atoms: C_19  and  C_22
REMARK   11  A    between atoms: C_22  and  C_26
REMARK   12  A    between atoms: C_22  and  C_27
REMARK   13  A    between atoms: C_23  and  C_24
REMARK   14  A    between atoms: C_23  and  C_28
REMARK   15  A    between atoms: C_24  and  C_25
REMARK                            x       y       z     vdW  Elec       q    Type
REMARK                         _______ _______ _______ _____ _____    ______ ____
ROOT
ATOM     13  C   UNL     1      -1.742 -11.308  14.401  0.00  0.00    +0.167 C 
ATOM     14  C   UNL     1      -3.140 -10.697  14.602  0.00  0.00    +0.127 C 
ATOM     15  C   UNL     1      -1.817 -12.665  13.689  0.00  0.00    +0.149 C 
ATOM     16  C   UNL     1      -2.530 -12.542  12.335  0.00  0.00    +0.074 C 
ATOM     17  C   UNL     1      -3.704 -11.613  12.352  0.00  0.00    +0.015 C 
ATOM     18  C   UNL     1      -3.993 -10.785  13.367  0.00  0.00    +0.006 C 
ENDROOT
BRANCH  17  20
ATOM      4  O   UNL     1      -4.913 -12.656  10.629  0.00  0.00    -0.271 OA
ATOM     10  N   UNL     1      -5.029 -10.338  10.848  0.00  0.00    -0.300 N 
ATOM     20  C   UNL     1      -4.604 -11.608  11.196  0.00  0.00    +0.241 C 
ATOM     33  H   UNL     1      -4.706  -9.524  11.356  0.00  0.00    +0.150 HD
BRANCH  10  23
ATOM     23  C   UNL     1      -5.919 -10.080   9.739  0.00  0.00    +0.160 C 
BRANCH  23  28
ATOM      8  O   UNL     1      -5.066 -10.267   7.472  0.00  0.00    -0.274 OA
ATOM     12  N   UNL     1      -4.313  -8.541   8.787  0.00  0.00    -0.328 N 
ATOM     28  C   UNL     1      -5.061  -9.675   8.548  0.00  0.00    +0.231 C 
ATOM     36  H   UNL     1      -4.322  -8.060   9.681  0.00  0.00    +0.145 HD
ATOM     37  H   UNL     1      -3.709  -8.155   8.070  0.00  0.00    +0.145 HD
ENDBRANCH  23  28
BRANCH  23  24
ATOM     24  C   UNL     1      -6.939  -8.985  10.063  0.00  0.00    +0.054 C 
BRANCH  24  25
ATOM     25  C   UNL     1      -8.303  -9.554  10.432  0.00  0.00    +0.168 C 
BRANCH  25   1
ATOM      1  S   UNL     1      -8.399  -9.924  12.155  0.00  0.00    -0.034 S 
ATOM      6  O   UNL     1      -7.241  -9.340  12.810  0.00  0.00    -0.175 OA
ATOM      7  O   UNL     1      -9.742  -9.611  12.612  0.00  0.00    -0.175 OA
ATOM     29  C   UNL     1      -8.212 -11.691  12.207  0.00  0.00    +0.194 C 
ENDBRANCH  25   1
ENDBRANCH  24  25
ENDBRANCH  23  24
ENDBRANCH  10  23
ENDBRANCH  17  20
BRANCH  14   9
ATOM      5  O   UNL     1      -5.231  -9.545  16.209  0.00  0.00    -0.274 OA
ATOM      9  N   UNL     1      -3.866 -11.342  15.673  0.00  0.00    -0.305 N 
ATOM     21  C   UNL     1      -4.863 -10.705  16.396  0.00  0.00    +0.231 C 
ATOM     30  H   UNL     1      -3.602 -12.289  15.929  0.00  0.00    +0.149 HD
BRANCH  21  19
ATOM     19  C   UNL     1      -5.465 -11.600  17.478  0.00  0.00    +0.140 C 
BRANCH  19  11
ATOM     11  N   UNL     1      -6.921 -11.460  17.387  0.00  0.00    -0.320 NA
ATOM     34  H   UNL     1      -7.369 -12.281  17.789  0.00  0.00    +0.119 HD
ATOM     35  H   UNL     1      -7.236 -10.665  17.941  0.00  0.00    +0.119 HD
ENDBRANCH  19  11
BRANCH  19  22
ATOM     22  C   UNL     1      -4.954 -11.266  18.899  0.00  0.00    +0.009 C 
ATOM     26  C   UNL     1      -3.793 -12.151  19.369  0.00  0.00    +0.009 C 
ATOM     27  C   UNL     1      -6.083 -11.303  19.934  0.00  0.00    +0.009 C 
ENDBRANCH  19  22
ENDBRANCH  21  19
ENDBRANCH  14   9
BRANCH  13   2
ATOM      2  O   UNL     1      -1.100 -11.438  15.666  0.00  0.00    -0.387 OA
ATOM     31  H   UNL     1      -0.387 -10.779  15.698  0.00  0.00    +0.210 HD
ENDBRANCH  13   2
BRANCH  15   3
ATOM      3  O   UNL     1      -0.500 -13.157  13.444  0.00  0.00    -0.389 OA
ATOM     32  H   UNL     1      -0.560 -13.803  12.720  0.00  0.00    +0.210 HD
ENDBRANCH  15   3
TORSDOF 12
ENDMDL
MODEL 9
REMARK VINA RESULT:      -5.5     27.525     29.671
REMARK  Name = 11882003
REMARK  15 active torsions:
REMARK  status: ('A' for Active; 'I' for Inactive)
REMARK    1  A    between atoms: S_1  and  C_25
REMARK    2  A    between atoms: S_1  and  C_29
REMARK    3  A    between atoms: O_2  and  C_13
REMARK    4  A    between atoms: O_3  and  C_15
REMARK    5  A    between atoms: N_9  and  C_14
REMARK    6  A    between atoms: N_10  and  C_23
REMARK    7  A    between atoms: N_11  and  C_19
REMARK    8  A    between atoms: C_17  and  C_20
REMARK    9  A    between atoms: C_19  and  C_21
REMARK   10  A    between atoms: C_19  and  C_22
REMARK   11  A    between atoms: C_22  and  C_26
REMARK   12  A    between atoms: C_22  and  C_27
REMARK   13  A    between atoms: C_23  and  C_24
REMARK   14  A    between atoms: C_23  and  C_28
REMARK   15  A    between atoms: C_24  and  C_25
REMARK                            x       y       z     vdW  Elec       q    Type
REMARK                         _______ _______ _______ _____ _____    ______ ____
ROOT
ATOM     13  C   UNL     1      -2.347 -12.208  14.465  0.00  0.00    +0.167 C 
ATOM     14  C   UNL     1      -3.674 -12.059  13.700  0.00  0.00    +0.127 C 
ATOM     15  C   UNL     1      -2.036 -10.961  15.303  0.00  0.00    +0.149 C 
ATOM     16  C   UNL     1      -3.173 -10.657  16.289  0.00  0.00    +0.074 C 
ATOM     17  C   UNL     1      -4.541 -10.887  15.723  0.00  0.00    +0.015 C 
ATOM     18  C   UNL     1      -4.778 -11.508  14.558  0.00  0.00    +0.006 C 
ENDROOT
BRANCH  17  20
ATOM      4  O   UNL     1      -6.149  -9.270  16.284  0.00  0.00    -0.271 OA
ATOM     10  N   UNL     1      -6.176 -11.321  17.390  0.00  0.00    -0.300 N 
ATOM     20  C   UNL     1      -5.696 -10.397  16.479  0.00  0.00    +0.241 C 
ATOM     33  H   UNL     1      -5.728 -12.222  17.503  0.00  0.00    +0.150 HD
BRANCH  10  23
ATOM     23  C   UNL     1      -7.308 -11.065  18.253  0.00  0.00    +0.160 C 
BRANCH  23  28
ATOM      8  O   UNL     1      -6.380 -11.274  20.488  0.00  0.00    -0.274 OA
ATOM     12  N   UNL     1      -7.662 -12.993  19.669  0.00  0.00    -0.328 N 
ATOM     28  C   UNL     1      -7.041 -11.766  19.577  0.00  0.00    +0.231 C 
ATOM     36  H   UNL     1      -8.209 -13.386  18.909  0.00  0.00    +0.145 HD
ATOM     37  H   UNL     1      -7.579 -13.558  20.507  0.00  0.00    +0.145 HD
ENDBRANCH  23  28
BRANCH  23  24
ATOM     24  C   UNL     1      -8.621 -11.557  17.639  0.00  0.00    +0.054 C 
BRANCH  24  25
ATOM     25  C   UNL     1      -9.780 -10.607  17.911  0.00  0.00    +0.168 C 
BRANCH  25   1
ATOM      1  S   UNL     1      -9.845  -9.315  16.710  0.00  0.00    -0.034 S 
ATOM      6  O   UNL     1      -9.301  -8.108  17.310  0.00  0.00    -0.175 OA
ATOM      7  O   UNL     1      -9.306  -9.827  15.462  0.00  0.00    -0.175 OA
ATOM     29  C   UNL     1     -11.589  -9.059  16.476  0.00  0.00    +0.194 C 
ENDBRANCH  25   1
ENDBRANCH  24  25
ENDBRANCH  23  24
ENDBRANCH  10  23
ENDBRANCH  17  20
BRANCH  14   9
ATOM      5  O   UNL     1      -4.010 -12.780  10.935  0.00  0.00    -0.274 OA
ATOM      9  N   UNL     1      -3.544 -11.187  12.554  0.00  0.00    -0.305 N 
ATOM     21  C   UNL     1      -3.726 -11.626  11.250  0.00  0.00    +0.231 C 
ATOM     30  H   UNL     1      -3.268 -10.222  12.714  0.00  0.00    +0.149 HD
BRANCH  21  19
ATOM     19  C   UNL     1      -3.522 -10.512  10.224  0.00  0.00    +0.140 C 
BRANCH  19  11
ATOM     11  N   UNL     1      -2.553  -9.575  10.799  0.00  0.00    -0.320 NA
ATOM     34  H   UNL     1      -1.653  -9.685  10.333  0.00  0.00    +0.119 HD
ATOM     35  H   UNL     1      -2.844  -8.614  10.629  0.00  0.00    +0.119 HD
ENDBRANCH  19  11
BRANCH  19  22
ATOM     22  C   UNL     1      -4.837  -9.795   9.835  0.00  0.00    +0.009 C 
ATOM     26  C   UNL     1      -5.022  -9.611   8.324  0.00  0.00    +0.009 C 
ATOM     27  C   UNL     1      -4.978  -8.443  10.541  0.00  0.00    +0.009 C 
ENDBRANCH  19  22
ENDBRANCH  21  19
ENDBRANCH  14   9
BRANCH  13   2
ATOM      2  O   UNL     1      -1.297 -12.466  13.538  0.00  0.00    -0.387 OA
ATOM     31  H   UNL     1      -1.030 -13.395  13.653  0.00  0.00    +0.210 HD
ENDBRANCH  13   2
BRANCH  15   3
ATOM      3  O   UNL     1      -0.847 -11.172  16.062  0.00  0.00    -0.389 OA
ATOM     32  H   UNL     1      -0.314 -11.836  15.591  0.00  0.00    +0.210 HD
ENDBRANCH  15   3
TORSDOF 12
ENDMDL
MODEL 10
REMARK VINA RESULT:      -5.4     27.870     30.137
REMARK  Name = 11882003
REMARK  15 active torsions:
REMARK  status: ('A' for Active; 'I' for Inactive)
REMARK    1  A    between atoms: S_1  and  C_25
REMARK    2  A    between atoms: S_1  and  C_29
REMARK    3  A    between atoms: O_2  and  C_13
REMARK    4  A    between atoms: O_3  and  C_15
REMARK    5  A    between atoms: N_9  and  C_14
REMARK    6  A    between atoms: N_10  and  C_23
REMARK    7  A    between atoms: N_11  and  C_19
REMARK    8  A    between atoms: C_17  and  C_20
REMARK    9  A    between atoms: C_19  and  C_21
REMARK   10  A    between atoms: C_19  and  C_22
REMARK   11  A    between atoms: C_22  and  C_26
REMARK   12  A    between atoms: C_22  and  C_27
REMARK   13  A    between atoms: C_23  and  C_24
REMARK   14  A    between atoms: C_23  and  C_28
REMARK   15  A    between atoms: C_24  and  C_25
REMARK                            x       y       z     vdW  Elec       q    Type
REMARK                         _______ _______ _______ _____ _____    ______ ____
ROOT
ATOM     13  C   UNL     1      -1.830 -11.290  14.355  0.00  0.00    +0.167 C 
ATOM     14  C   UNL     1      -3.216 -10.668  14.598  0.00  0.00    +0.127 C 
ATOM     15  C   UNL     1      -1.933 -12.633  13.622  0.00  0.00    +0.149 C 
ATOM     16  C   UNL     1      -2.676 -12.479  12.286  0.00  0.00    +0.074 C 
ATOM     17  C   UNL     1      -3.839 -11.539  12.346  0.00  0.00    +0.015 C 
ATOM     18  C   UNL     1      -4.098 -10.727  13.382  0.00  0.00    +0.006 C 
ENDROOT
BRANCH  17  20
ATOM      4  O   UNL     1      -5.108 -12.541  10.642  0.00  0.00    -0.271 OA
ATOM     10  N   UNL     1      -5.171 -10.223  10.884  0.00  0.00    -0.300 N 
ATOM     20  C   UNL     1      -4.765 -11.505  11.211  0.00  0.00    +0.241 C 
ATOM     33  H   UNL     1      -4.820  -9.420  11.392  0.00  0.00    +0.150 HD
BRANCH  10  23
ATOM     23  C   UNL     1      -6.080  -9.936   9.797  0.00  0.00    +0.160 C 
BRANCH  23  28
ATOM      8  O   UNL     1      -5.287 -10.107   7.508  0.00  0.00    -0.274 OA
ATOM     12  N   UNL     1      -4.460  -8.422   8.832  0.00  0.00    -0.328 N 
ATOM     28  C   UNL     1      -5.241  -9.533   8.593  0.00  0.00    +0.231 C 
ATOM     36  H   UNL     1      -4.435  -7.956   9.733  0.00  0.00    +0.145 HD
ATOM     37  H   UNL     1      -3.864  -8.039   8.106  0.00  0.00    +0.145 HD
ENDBRANCH  23  28
BRANCH  23  24
ATOM     24  C   UNL     1      -7.073  -8.827  10.156  0.00  0.00    +0.054 C 
BRANCH  24  25
ATOM     25  C   UNL     1      -8.278  -8.805   9.225  0.00  0.00    +0.168 C 
BRANCH  25   1
ATOM      1  S   UNL     1      -8.321  -7.322   8.268  0.00  0.00    -0.034 S 
ATOM      6  O   UNL     1      -9.605  -6.678   8.486  0.00  0.00    -0.175 OA
ATOM      7  O   UNL     1      -7.083  -6.597   8.497  0.00  0.00    -0.175 OA
ATOM     29  C   UNL     1      -8.295  -7.914   6.592  0.00  0.00    +0.194 C 
ENDBRANCH  25   1
ENDBRANCH  24  25
ENDBRANCH  23  24
ENDBRANCH  10  23
ENDBRANCH  17  20
BRANCH  14   9
ATOM      5  O   UNL     1      -5.195  -9.500  16.330  0.00  0.00    -0.274 OA
ATOM      9  N   UNL     1      -3.924 -11.325  15.674  0.00  0.00    -0.305 N 
ATOM     21  C   UNL     1      -4.867 -10.678  16.460  0.00  0.00    +0.231 C 
ATOM     30  H   UNL     1      -3.688 -12.291  15.885  0.00  0.00    +0.149 HD
BRANCH  21  19
ATOM     19  C   UNL     1      -5.460 -11.591  17.533  0.00  0.00    +0.140 C 
BRANCH  19  11
ATOM     11  N   UNL     1      -6.915 -11.420  17.480  0.00  0.00    -0.320 NA
ATOM     34  H   UNL     1      -7.364 -12.134  18.052  0.00  0.00    +0.119 HD
ATOM     35  H   UNL     1      -7.182 -10.523  17.883  0.00  0.00    +0.119 HD
ENDBRANCH  19  11
BRANCH  19  22
ATOM     22  C   UNL     1      -4.910 -11.304  18.949  0.00  0.00    +0.009 C 
ATOM     26  C   UNL     1      -3.707 -12.172  19.339  0.00  0.00    +0.009 C 
ATOM     27  C   UNL     1      -6.000 -11.422  20.018  0.00  0.00    +0.009 C 
ENDBRANCH  19  22
ENDBRANCH  21  19
ENDBRANCH  14   9
BRANCH  13   2
ATOM      2  O   UNL     1      -1.161 -11.448  15.604  0.00  0.00    -0.387 OA
ATOM     31  H   UNL     1      -1.669 -12.094  16.125  0.00  0.00    +0.210 HD
ENDBRANCH  13   2
BRANCH  15   3
ATOM      3  O   UNL     1      -0.628 -13.132  13.339  0.00  0.00    -0.389 OA
ATOM     32  H   UNL     1      -0.133 -13.147  14.177  0.00  0.00    +0.210 HD
ENDBRANCH  15   3
TORSDOF 12
ENDMDL
