MODEL 1
REMARK VINA RESULT:      -7.0      0.000      0.000
REMARK  Name = 75536546
REMARK  7 active torsions:
REMARK  status: ('A' for Active; 'I' for Inactive)
REMARK    1  A    between atoms: O_2  and  C_11
REMARK    2  A    between atoms: N_4  and  C_13
REMARK    3  A    between atoms: N_5  and  C_12
REMARK    4  A    between atoms: N_5  and  C_16
REMARK    5  A    between atoms: C_7  and  C_15
REMARK    6  A    between atoms: C_10  and  C_13
REMARK    7  A    between atoms: C_16  and  C_17
REMARK                            x       y       z     vdW  Elec       q    Type
REMARK                         _______ _______ _______ _____ _____    ______ ____
ROOT
ATOM      1  O   UNL     1      -0.846   1.068  22.927  0.00  0.00    -0.371 OA
ATOM     10  C   UNL     1       0.052   0.810  24.020  0.00  0.00    +0.165 C 
ATOM     11  C   UNL     1      -0.373   1.748  25.142  0.00  0.00    +0.164 C 
ATOM     12  C   UNL     1      -0.815   2.966  24.354  0.00  0.00    +0.111 C 
ATOM     14  C   UNL     1      -1.512   2.320  23.167  0.00  0.00    +0.181 C 
ENDROOT
BRANCH  11   2
ATOM      2  O   UNL     1       0.694   2.029  26.027  0.00  0.00    -0.388 OA
ATOM     24  H   UNL     1       0.473   2.833  26.527  0.00  0.00    +0.210 HD
ENDBRANCH  11   2
BRANCH  12   5
ATOM      5  N   UNL     1      -1.685   3.861  25.101  0.00  0.00    -0.305 NA
ATOM     23  H   UNL     1      -1.199   4.744  25.255  0.00  0.00    +0.123 HD
BRANCH   5  16
ATOM     16  C   UNL     1      -2.920   4.123  24.371  0.00  0.00    +0.118 C 
BRANCH  16  17
ATOM      6  N   UNL     1      -5.837   3.029  26.521  0.00  0.00    -0.263 NA
ATOM     17  C   UNL     1      -4.068   3.303  24.897  0.00  0.00    -0.015 A 
ATOM     18  C   UNL     1      -4.427   2.103  24.292  0.00  0.00    +0.008 A 
ATOM     19  C   UNL     1      -4.798   3.719  25.999  0.00  0.00    +0.115 A 
ATOM     20  C   UNL     1      -5.490   1.367  24.802  0.00  0.00    +0.020 A 
ATOM     21  C   UNL     1      -6.157   1.869  25.907  0.00  0.00    +0.111 A 
ENDBRANCH  16  17
ENDBRANCH   5  16
ENDBRANCH  12   5
BRANCH  10  13
ATOM     13  C   UNL     1      -0.016  -0.657  24.406  0.00  0.00    +0.138 C 
BRANCH  13   4
ATOM      3  O   UNL     1      -1.897  -0.874  26.613  0.00  0.00    -0.276 OA
ATOM      4  N   UNL     1      -1.364  -1.145  24.360  0.00  0.00    -0.313 N 
ATOM     15  C   UNL     1      -2.193  -1.212  25.472  0.00  0.00    +0.216 C 
ATOM     22  H   UNL     1      -1.723  -1.455  23.462  0.00  0.00    +0.149 HD
BRANCH  15   7
ATOM      7  C   UNL     1      -3.556  -1.751  25.194  0.00  0.00    +0.075 C 
ATOM      8  C   UNL     1      -3.678  -2.990  24.371  0.00  0.00    +0.013 C 
ATOM      9  C   UNL     1      -4.086  -1.664  23.800  0.00  0.00    +0.013 C 
ENDBRANCH  15   7
ENDBRANCH  13   4
ENDBRANCH  10  13
TORSDOF 7
ENDMDL
MODEL 2
REMARK VINA RESULT:      -6.7     16.101     19.150
REMARK  Name = 75536546
REMARK  7 active torsions:
REMARK  status: ('A' for Active; 'I' for Inactive)
REMARK    1  A    between atoms: O_2  and  C_11
REMARK    2  A    between atoms: N_4  and  C_13
REMARK    3  A    between atoms: N_5  and  C_12
REMARK    4  A    between atoms: N_5  and  C_16
REMARK    5  A    between atoms: C_7  and  C_15
REMARK    6  A    between atoms: C_10  and  C_13
REMARK    7  A    between atoms: C_16  and  C_17
REMARK                            x       y       z     vdW  Elec       q    Type
REMARK                         _______ _______ _______ _____ _____    ______ ____
ROOT
ATOM      1  O   UNL     1      10.641   8.508  19.701  0.00  0.00    -0.371 OA
ATOM     10  C   UNL     1      10.987   7.743  20.869  0.00  0.00    +0.165 C 
ATOM     11  C   UNL     1      12.458   7.380  20.712  0.00  0.00    +0.164 C 
ATOM     12  C   UNL     1      12.553   7.186  19.210  0.00  0.00    +0.111 C 
ATOM     14  C   UNL     1      11.660   8.308  18.705  0.00  0.00    +0.181 C 
ENDROOT
BRANCH  11   2
ATOM      2  O   UNL     1      12.792   6.211  21.435  0.00  0.00    -0.388 OA
ATOM     24  H   UNL     1      12.322   5.459  21.034  0.00  0.00    +0.210 HD
ENDBRANCH  11   2
BRANCH  12   5
ATOM      5  N   UNL     1      13.910   7.270  18.695  0.00  0.00    -0.305 NA
ATOM     23  H   UNL     1      13.895   7.748  17.794  0.00  0.00    +0.123 HD
BRANCH   5  16
ATOM     16  C   UNL     1      14.773   8.012  19.608  0.00  0.00    +0.118 C 
BRANCH  16  17
ATOM      6  N   UNL     1      17.655   5.603  19.136  0.00  0.00    -0.263 NA
ATOM     17  C   UNL     1      16.097   7.324  19.811  0.00  0.00    -0.015 A 
ATOM     18  C   UNL     1      16.970   7.734  20.812  0.00  0.00    +0.008 A 
ATOM     19  C   UNL     1      16.482   6.263  19.006  0.00  0.00    +0.115 A 
ATOM     20  C   UNL     1      18.186   7.078  20.976  0.00  0.00    +0.020 A 
ATOM     21  C   UNL     1      18.478   6.029  20.120  0.00  0.00    +0.111 A 
ENDBRANCH  16  17
ENDBRANCH   5  16
ENDBRANCH  12   5
BRANCH  10  13
ATOM     13  C   UNL     1      10.700   8.557  22.118  0.00  0.00    +0.138 C 
BRANCH  13   4
ATOM      3  O   UNL     1      10.947  10.575  24.198  0.00  0.00    -0.276 OA
ATOM      4  N   UNL     1      11.150   9.911  21.973  0.00  0.00    -0.313 N 
ATOM     15  C   UNL     1      11.235  10.808  23.029  0.00  0.00    +0.216 C 
ATOM     22  H   UNL     1      11.419  10.222  21.044  0.00  0.00    +0.149 HD
BRANCH  15   7
ATOM      7  C   UNL     1      11.731  12.163  22.650  0.00  0.00    +0.075 C 
ATOM      8  C   UNL     1      10.749  13.160  22.130  0.00  0.00    +0.013 C 
ATOM      9  C   UNL     1      11.751  12.535  21.204  0.00  0.00    +0.013 C 
ENDBRANCH  15   7
ENDBRANCH  13   4
ENDBRANCH  10  13
TORSDOF 7
ENDMDL
MODEL 3
REMARK VINA RESULT:      -6.5      1.685      4.717
REMARK  Name = 75536546
REMARK  7 active torsions:
REMARK  status: ('A' for Active; 'I' for Inactive)
REMARK    1  A    between atoms: O_2  and  C_11
REMARK    2  A    between atoms: N_4  and  C_13
REMARK    3  A    between atoms: N_5  and  C_12
REMARK    4  A    between atoms: N_5  and  C_16
REMARK    5  A    between atoms: C_7  and  C_15
REMARK    6  A    between atoms: C_10  and  C_13
REMARK    7  A    between atoms: C_16  and  C_17
REMARK                            x       y       z     vdW  Elec       q    Type
REMARK                         _______ _______ _______ _____ _____    ______ ____
ROOT
ATOM      1  O   UNL     1      -0.034   3.796  25.676  0.00  0.00    -0.371 OA
ATOM     10  C   UNL     1      -0.974   3.791  24.588  0.00  0.00    +0.165 C 
ATOM     11  C   UNL     1      -1.372   2.335  24.384  0.00  0.00    +0.164 C 
ATOM     12  C   UNL     1      -0.069   1.628  24.707  0.00  0.00    +0.111 C 
ATOM     14  C   UNL     1       0.439   2.453  25.878  0.00  0.00    +0.181 C 
ENDROOT
BRANCH  11   2
ATOM      2  O   UNL     1      -1.813   2.089  23.063  0.00  0.00    -0.388 OA
ATOM     24  H   UNL     1      -1.169   2.480  22.448  0.00  0.00    +0.210 HD
ENDBRANCH  11   2
BRANCH  12   5
ATOM      5  N   UNL     1      -0.234   0.221  25.036  0.00  0.00    -0.305 NA
ATOM     23  H   UNL     1       0.536  -0.072  25.638  0.00  0.00    +0.123 HD
BRANCH   5  16
ATOM     16  C   UNL     1      -1.493  -0.010  25.736  0.00  0.00    +0.118 C 
BRANCH  16  17
ATOM      6  N   UNL     1      -2.526  -3.252  24.078  0.00  0.00    -0.263 NA
ATOM     17  C   UNL     1      -2.339  -1.042  25.039  0.00  0.00    -0.015 A 
ATOM     18  C   UNL     1      -3.665  -0.780  24.714  0.00  0.00    +0.008 A 
ATOM     19  C   UNL     1      -1.821  -2.283  24.703  0.00  0.00    +0.115 A 
ATOM     20  C   UNL     1      -4.422  -1.753  24.070  0.00  0.00    +0.020 A 
ATOM     21  C   UNL     1      -3.811  -2.961  23.777  0.00  0.00    +0.111 A 
ENDBRANCH  16  17
ENDBRANCH   5  16
ENDBRANCH  12   5
BRANCH  10  13
ATOM     13  C   UNL     1      -2.150   4.693  24.921  0.00  0.00    +0.138 C 
BRANCH  13   4
ATOM      3  O   UNL     1      -4.175   4.082  26.917  0.00  0.00    -0.276 OA
ATOM      4  N   UNL     1      -3.399   4.016  24.720  0.00  0.00    -0.313 N 
ATOM     15  C   UNL     1      -4.308   3.768  25.739  0.00  0.00    +0.216 C 
ATOM     22  H   UNL     1      -3.622   3.707  23.778  0.00  0.00    +0.149 HD
BRANCH  15   7
ATOM      7  C   UNL     1      -5.543   3.053  25.303  0.00  0.00    +0.075 C 
ATOM      8  C   UNL     1      -5.959   1.830  26.051  0.00  0.00    +0.013 C 
ATOM      9  C   UNL     1      -5.401   1.711  24.664  0.00  0.00    +0.013 C 
ENDBRANCH  15   7
ENDBRANCH  13   4
ENDBRANCH  10  13
TORSDOF 7
ENDMDL
MODEL 4
REMARK VINA RESULT:      -6.4     15.763     17.700
REMARK  Name = 75536546
REMARK  7 active torsions:
REMARK  status: ('A' for Active; 'I' for Inactive)
REMARK    1  A    between atoms: O_2  and  C_11
REMARK    2  A    between atoms: N_4  and  C_13
REMARK    3  A    between atoms: N_5  and  C_12
REMARK    4  A    between atoms: N_5  and  C_16
REMARK    5  A    between atoms: C_7  and  C_15
REMARK    6  A    between atoms: C_10  and  C_13
REMARK    7  A    between atoms: C_16  and  C_17
REMARK                            x       y       z     vdW  Elec       q    Type
REMARK                         _______ _______ _______ _____ _____    ______ ____
ROOT
ATOM      1  O   UNL     1      13.347   8.142  21.553  0.00  0.00    -0.371 OA
ATOM     10  C   UNL     1      12.298   7.215  21.227  0.00  0.00    +0.165 C 
ATOM     11  C   UNL     1      10.992   7.977  21.413  0.00  0.00    +0.164 C 
ATOM     12  C   UNL     1      11.338   8.867  22.592  0.00  0.00    +0.111 C 
ATOM     14  C   UNL     1      12.773   9.250  22.269  0.00  0.00    +0.181 C 
ENDROOT
BRANCH  11   2
ATOM      2  O   UNL     1       9.909   7.108  21.684  0.00  0.00    -0.388 OA
ATOM     24  H   UNL     1       9.086   7.624  21.642  0.00  0.00    +0.210 HD
ENDBRANCH  11   2
BRANCH  12   5
ATOM      5  N   UNL     1      10.462  10.020  22.730  0.00  0.00    -0.305 NA
ATOM     23  H   UNL     1       9.534   9.701  23.008  0.00  0.00    +0.123 HD
BRANCH   5  16
ATOM     16  C   UNL     1      10.965  10.944  23.740  0.00  0.00    +0.118 C 
BRANCH  16  17
ATOM      6  N   UNL     1      10.057  14.607  24.029  0.00  0.00    -0.263 NA
ATOM     17  C   UNL     1      10.714  12.379  23.361  0.00  0.00    -0.015 A 
ATOM     18  C   UNL     1      10.892  12.815  22.053  0.00  0.00    +0.008 A 
ATOM     19  C   UNL     1      10.300  13.306  24.304  0.00  0.00    +0.115 A 
ATOM     20  C   UNL     1      10.651  14.147  21.732  0.00  0.00    +0.020 A 
ATOM     21  C   UNL     1      10.239  14.995  22.748  0.00  0.00    +0.111 A 
ENDBRANCH  16  17
ENDBRANCH   5  16
ENDBRANCH  12   5
BRANCH  10  13
ATOM     13  C   UNL     1      12.493   6.695  19.814  0.00  0.00    +0.138 C 
BRANCH  13   4
ATOM      3  O   UNL     1      11.348   7.537  17.276  0.00  0.00    -0.276 OA
ATOM      4  N   UNL     1      12.969   7.728  18.940  0.00  0.00    -0.313 N 
ATOM     15  C   UNL     1      12.353   8.062  17.742  0.00  0.00    +0.216 C 
ATOM     22  H   UNL     1      13.801   8.239  19.222  0.00  0.00    +0.149 HD
BRANCH  15   7
ATOM      7  C   UNL     1      13.018   9.170  16.994  0.00  0.00    +0.075 C 
ATOM      8  C   UNL     1      12.539   9.487  15.616  0.00  0.00    +0.013 C 
ATOM      9  C   UNL     1      13.870   8.824  15.818  0.00  0.00    +0.013 C 
ENDBRANCH  15   7
ENDBRANCH  13   4
ENDBRANCH  10  13
TORSDOF 7
ENDMDL
MODEL 5
REMARK VINA RESULT:      -6.3     16.584     18.550
REMARK  Name = 75536546
REMARK  7 active torsions:
REMARK  status: ('A' for Active; 'I' for Inactive)
REMARK    1  A    between atoms: O_2  and  C_11
REMARK    2  A    between atoms: N_4  and  C_13
REMARK    3  A    between atoms: N_5  and  C_12
REMARK    4  A    between atoms: N_5  and  C_16
REMARK    5  A    between atoms: C_7  and  C_15
REMARK    6  A    between atoms: C_10  and  C_13
REMARK    7  A    between atoms: C_16  and  C_17
REMARK                            x       y       z     vdW  Elec       q    Type
REMARK                         _______ _______ _______ _____ _____    ______ ____
ROOT
ATOM      1  O   UNL     1      14.992   7.466  21.026  0.00  0.00    -0.371 OA
ATOM     10  C   UNL     1      14.360   6.764  19.942  0.00  0.00    +0.165 C 
ATOM     11  C   UNL     1      12.879   7.106  20.027  0.00  0.00    +0.164 C 
ATOM     12  C   UNL     1      12.686   7.200  21.529  0.00  0.00    +0.111 C 
ATOM     14  C   UNL     1      13.976   7.882  21.956  0.00  0.00    +0.181 C 
ENDROOT
BRANCH  11   2
ATOM      2  O   UNL     1      12.072   6.106  19.435  0.00  0.00    -0.388 OA
ATOM     24  H   UNL     1      11.264   6.527  19.096  0.00  0.00    +0.210 HD
ENDBRANCH  11   2
BRANCH  12   5
ATOM      5  N   UNL     1      11.499   7.944  21.919  0.00  0.00    -0.305 NA
ATOM     23  H   UNL     1      11.571   8.191  22.907  0.00  0.00    +0.123 HD
BRANCH   5  16
ATOM     16  C   UNL     1      11.363   9.166  21.136  0.00  0.00    +0.118 C 
BRANCH  16  17
ATOM      6  N   UNL     1      11.419  12.787  22.240  0.00  0.00    -0.263 NA
ATOM     17  C   UNL     1      11.261  10.385  22.014  0.00  0.00    -0.015 A 
ATOM     18  C   UNL     1      10.931  10.273  23.360  0.00  0.00    +0.008 A 
ATOM     19  C   UNL     1      11.494  11.654  21.506  0.00  0.00    +0.115 A 
ATOM     20  C   UNL     1      10.845  11.417  24.146  0.00  0.00    +0.020 A 
ATOM     21  C   UNL     1      11.096  12.638  23.543  0.00  0.00    +0.111 A 
ENDBRANCH  16  17
ENDBRANCH   5  16
ENDBRANCH  12   5
BRANCH  10  13
ATOM     13  C   UNL     1      14.996   7.173  18.625  0.00  0.00    +0.138 C 
BRANCH  13   4
ATOM      3  O   UNL     1      13.712   8.042  16.165  0.00  0.00    -0.276 OA
ATOM      4  N   UNL     1      14.622   8.509  18.260  0.00  0.00    -0.313 N 
ATOM     15  C   UNL     1      14.009   8.830  17.056  0.00  0.00    +0.216 C 
ATOM     22  H   UNL     1      14.818   9.252  18.923  0.00  0.00    +0.149 HD
BRANCH  15   7
ATOM      7  C   UNL     1      13.706  10.282  16.886  0.00  0.00    +0.075 C 
ATOM      8  C   UNL     1      14.778  11.273  17.193  0.00  0.00    +0.013 C 
ATOM      9  C   UNL     1      13.597  11.134  18.107  0.00  0.00    +0.013 C 
ENDBRANCH  15   7
ENDBRANCH  13   4
ENDBRANCH  10  13
TORSDOF 7
ENDMDL
MODEL 6
REMARK VINA RESULT:      -6.0     13.991     16.009
REMARK  Name = 75536546
REMARK  7 active torsions:
REMARK  status: ('A' for Active; 'I' for Inactive)
REMARK    1  A    between atoms: O_2  and  C_11
REMARK    2  A    between atoms: N_4  and  C_13
REMARK    3  A    between atoms: N_5  and  C_12
REMARK    4  A    between atoms: N_5  and  C_16
REMARK    5  A    between atoms: C_7  and  C_15
REMARK    6  A    between atoms: C_10  and  C_13
REMARK    7  A    between atoms: C_16  and  C_17
REMARK                            x       y       z     vdW  Elec       q    Type
REMARK                         _______ _______ _______ _____ _____    ______ ____
ROOT
ATOM      1  O   UNL     1     -12.056  -8.208  16.831  0.00  0.00    -0.371 OA
ATOM     10  C   UNL     1     -11.775  -6.980  16.137  0.00  0.00    +0.165 C 
ATOM     11  C   UNL     1     -10.342  -7.099  15.637  0.00  0.00    +0.164 C 
ATOM     12  C   UNL     1      -9.703  -7.888  16.764  0.00  0.00    +0.111 C 
ATOM     14  C   UNL     1     -10.811  -8.872  17.108  0.00  0.00    +0.181 C 
ENDROOT
BRANCH  11   2
ATOM      2  O   UNL     1      -9.742  -5.832  15.449  0.00  0.00    -0.388 OA
ATOM     24  H   UNL     1     -10.216  -5.185  15.999  0.00  0.00    +0.210 HD
ENDBRANCH  11   2
BRANCH  12   5
ATOM      5  N   UNL     1      -8.461  -8.545  16.387  0.00  0.00    -0.305 NA
ATOM     23  H   UNL     1      -7.698  -8.152  16.939  0.00  0.00    +0.123 HD
BRANCH   5  16
ATOM     16  C   UNL     1      -8.530  -9.981  16.633  0.00  0.00    +0.118 C 
BRANCH  16  17
ATOM      6  N   UNL     1      -7.320 -11.290  19.972  0.00  0.00    -0.263 NA
ATOM     17  C   UNL     1      -7.603 -10.404  17.740  0.00  0.00    -0.015 A 
ATOM     18  C   UNL     1      -6.223 -10.317  17.592  0.00  0.00    +0.008 A 
ATOM     19  C   UNL     1      -8.097 -10.894  18.939  0.00  0.00    +0.115 A 
ATOM     20  C   UNL     1      -5.392 -10.715  18.633  0.00  0.00    +0.020 A 
ATOM     21  C   UNL     1      -5.984 -11.190  19.791  0.00  0.00    +0.111 A 
ENDBRANCH  16  17
ENDBRANCH   5  16
ENDBRANCH  12   5
BRANCH  10  13
ATOM     13  C   UNL     1     -12.785  -6.780  15.020  0.00  0.00    +0.138 C 
BRANCH  13   4
ATOM      3  O   UNL     1     -12.472  -6.210  12.186  0.00  0.00    -0.276 OA
ATOM      4  N   UNL     1     -12.627  -5.496  14.399  0.00  0.00    -0.313 N 
ATOM     15  C   UNL     1     -12.484  -5.321  13.029  0.00  0.00    +0.216 C 
ATOM     22  H   UNL     1     -12.622  -4.678  15.001  0.00  0.00    +0.149 HD
BRANCH  15   7
ATOM      7  C   UNL     1     -12.336  -3.899  12.602  0.00  0.00    +0.075 C 
ATOM      8  C   UNL     1     -13.398  -3.300  11.741  0.00  0.00    +0.013 C 
ATOM      9  C   UNL     1     -12.049  -3.613  11.165  0.00  0.00    +0.013 C 
ENDBRANCH  15   7
ENDBRANCH  13   4
ENDBRANCH  10  13
TORSDOF 7
ENDMDL
MODEL 7
REMARK VINA RESULT:      -6.0     13.882     15.620
REMARK  Name = 75536546
REMARK  7 active torsions:
REMARK  status: ('A' for Active; 'I' for Inactive)
REMARK    1  A    between atoms: O_2  and  C_11
REMARK    2  A    between atoms: N_4  and  C_13
REMARK    3  A    between atoms: N_5  and  C_12
REMARK    4  A    between atoms: N_5  and  C_16
REMARK    5  A    between atoms: C_7  and  C_15
REMARK    6  A    between atoms: C_10  and  C_13
REMARK    7  A    between atoms: C_16  and  C_17
REMARK                            x       y       z     vdW  Elec       q    Type
REMARK                         _______ _______ _______ _____ _____    ______ ____
ROOT
ATOM      1  O   UNL     1      -7.492 -13.093  18.263  0.00  0.00    -0.371 OA
ATOM     10  C   UNL     1      -7.541 -12.400  19.522  0.00  0.00    +0.165 C 
ATOM     11  C   UNL     1      -6.294 -11.527  19.569  0.00  0.00    +0.164 C 
ATOM     12  C   UNL     1      -5.293 -12.407  18.842  0.00  0.00    +0.111 C 
ATOM     14  C   UNL     1      -6.156 -12.995  17.738  0.00  0.00    +0.181 C 
ENDROOT
BRANCH  11   2
ATOM      2  O   UNL     1      -5.902 -11.238  20.896  0.00  0.00    -0.388 OA
ATOM     24  H   UNL     1      -5.870 -10.271  21.002  0.00  0.00    +0.210 HD
ENDBRANCH  11   2
BRANCH  12   5
ATOM      5  N   UNL     1      -4.141 -11.681  18.332  0.00  0.00    -0.305 NA
ATOM     23  H   UNL     1      -3.506 -12.340  17.881  0.00  0.00    +0.123 HD
BRANCH   5  16
ATOM     16  C   UNL     1      -4.543 -10.672  17.359  0.00  0.00    +0.118 C 
BRANCH  16  17
ATOM      6  N   UNL     1      -3.359 -10.628  13.764  0.00  0.00    -0.263 NA
ATOM     17  C   UNL     1      -3.624 -10.646  16.166  0.00  0.00    -0.015 A 
ATOM     18  C   UNL     1      -2.244 -10.618  16.327  0.00  0.00    +0.008 A 
ATOM     19  C   UNL     1      -4.128 -10.650  14.875  0.00  0.00    +0.115 A 
ATOM     20  C   UNL     1      -1.420 -10.595  15.207  0.00  0.00    +0.020 A 
ATOM     21  C   UNL     1      -2.022 -10.601  13.959  0.00  0.00    +0.111 A 
ENDBRANCH  16  17
ENDBRANCH   5  16
ENDBRANCH  12   5
BRANCH  10  13
ATOM     13  C   UNL     1      -8.832 -11.608  19.622  0.00  0.00    +0.138 C 
BRANCH  13   4
ATOM      3  O   UNL     1      -9.555 -10.995  16.872  0.00  0.00    -0.276 OA
ATOM      4  N   UNL     1      -8.722 -10.345  18.950  0.00  0.00    -0.313 N 
ATOM     15  C   UNL     1      -9.094 -10.146  17.628  0.00  0.00    +0.216 C 
ATOM     22  H   UNL     1      -8.352  -9.561  19.478  0.00  0.00    +0.149 HD
BRANCH  15   7
ATOM      7  C   UNL     1      -8.896  -8.752  17.134  0.00  0.00    +0.075 C 
ATOM      8  C   UNL     1     -10.007  -7.770  17.306  0.00  0.00    +0.013 C 
ATOM      9  C   UNL     1      -9.674  -8.300  15.943  0.00  0.00    +0.013 C 
ENDBRANCH  15   7
ENDBRANCH  13   4
ENDBRANCH  10  13
TORSDOF 7
ENDMDL
MODEL 8
REMARK VINA RESULT:      -6.0     14.573     16.683
REMARK  Name = 75536546
REMARK  7 active torsions:
REMARK  status: ('A' for Active; 'I' for Inactive)
REMARK    1  A    between atoms: O_2  and  C_11
REMARK    2  A    between atoms: N_4  and  C_13
REMARK    3  A    between atoms: N_5  and  C_12
REMARK    4  A    between atoms: N_5  and  C_16
REMARK    5  A    between atoms: C_7  and  C_15
REMARK    6  A    between atoms: C_10  and  C_13
REMARK    7  A    between atoms: C_16  and  C_17
REMARK                            x       y       z     vdW  Elec       q    Type
REMARK                         _______ _______ _______ _____ _____    ______ ____
ROOT
ATOM      1  O   UNL     1      -1.786 -10.930  12.796  0.00  0.00    -0.371 OA
ATOM     10  C   UNL     1      -2.036 -12.341  12.910  0.00  0.00    +0.165 C 
ATOM     11  C   UNL     1      -2.634 -12.550  14.295  0.00  0.00    +0.164 C 
ATOM     12  C   UNL     1      -1.885 -11.504  15.098  0.00  0.00    +0.111 C 
ATOM     14  C   UNL     1      -1.829 -10.349  14.111  0.00  0.00    +0.181 C 
ENDROOT
BRANCH  11   2
ATOM      2  O   UNL     1      -2.415 -13.864  14.771  0.00  0.00    -0.388 OA
ATOM     24  H   UNL     1      -3.232 -14.175  15.197  0.00  0.00    +0.210 HD
ENDBRANCH  11   2
BRANCH  12   5
ATOM      5  N   UNL     1      -2.539 -11.148  16.347  0.00  0.00    -0.305 NA
ATOM     23  H   UNL     1      -1.999 -10.415  16.808  0.00  0.00    +0.123 HD
BRANCH   5  16
ATOM     16  C   UNL     1      -3.892 -10.657  16.111  0.00  0.00    +0.118 C 
BRANCH  16  17
ATOM      6  N   UNL     1      -6.855 -10.329  18.443  0.00  0.00    -0.263 NA
ATOM     17  C   UNL     1      -4.762 -10.804  17.330  0.00  0.00    -0.015 A 
ATOM     18  C   UNL     1      -4.324 -11.517  18.441  0.00  0.00    +0.008 A 
ATOM     19  C   UNL     1      -6.025 -10.235  17.380  0.00  0.00    +0.115 A 
ATOM     20  C   UNL     1      -5.151 -11.635  19.553  0.00  0.00    +0.020 A 
ATOM     21  C   UNL     1      -6.395 -11.028  19.504  0.00  0.00    +0.111 A 
ENDBRANCH  16  17
ENDBRANCH   5  16
ENDBRANCH  12   5
BRANCH  10  13
ATOM     13  C   UNL     1      -2.952 -12.793  11.787  0.00  0.00    +0.138 C 
BRANCH  13   4
ATOM      3  O   UNL     1      -5.519 -11.437  11.605  0.00  0.00    -0.276 OA
ATOM      4  N   UNL     1      -3.303 -11.698  10.929  0.00  0.00    -0.313 N 
ATOM     15  C   UNL     1      -4.562 -11.111  10.912  0.00  0.00    +0.216 C 
ATOM     22  H   UNL     1      -2.587 -11.338  10.306  0.00  0.00    +0.149 HD
BRANCH  15   7
ATOM      7  C   UNL     1      -4.704  -9.985   9.944  0.00  0.00    +0.075 C 
ATOM      8  C   UNL     1      -3.538  -9.079   9.728  0.00  0.00    +0.013 C 
ATOM      9  C   UNL     1      -4.743  -8.590  10.474  0.00  0.00    +0.013 C 
ENDBRANCH  15   7
ENDBRANCH  13   4
ENDBRANCH  10  13
TORSDOF 7
ENDMDL
MODEL 9
REMARK VINA RESULT:      -6.0     24.082     26.413
REMARK  Name = 75536546
REMARK  7 active torsions:
REMARK  status: ('A' for Active; 'I' for Inactive)
REMARK    1  A    between atoms: O_2  and  C_11
REMARK    2  A    between atoms: N_4  and  C_13
REMARK    3  A    between atoms: N_5  and  C_12
REMARK    4  A    between atoms: N_5  and  C_16
REMARK    5  A    between atoms: C_7  and  C_15
REMARK    6  A    between atoms: C_10  and  C_13
REMARK    7  A    between atoms: C_16  and  C_17
REMARK                            x       y       z     vdW  Elec       q    Type
REMARK                         _______ _______ _______ _____ _____    ______ ____
ROOT
ATOM      1  O   UNL     1      12.914   8.009   4.571  0.00  0.00    -0.371 OA
ATOM     10  C   UNL     1      12.723   7.049   5.624  0.00  0.00    +0.165 C 
ATOM     11  C   UNL     1      13.877   7.258   6.596  0.00  0.00    +0.164 C 
ATOM     12  C   UNL     1      14.998   7.629   5.645  0.00  0.00    +0.111 C 
ATOM     14  C   UNL     1      14.264   8.501   4.639  0.00  0.00    +0.181 C 
ENDROOT
BRANCH  11   2
ATOM      2  O   UNL     1      14.157   6.089   7.341  0.00  0.00    -0.388 OA
ATOM     24  H   UNL     1      14.907   5.633   6.923  0.00  0.00    +0.210 HD
ENDBRANCH  11   2
BRANCH  12   5
ATOM      5  N   UNL     1      16.106   8.317   6.288  0.00  0.00    -0.305 NA
ATOM     23  H   UNL     1      16.643   7.644   6.835  0.00  0.00    +0.123 HD
BRANCH   5  16
ATOM     16  C   UNL     1      16.987   8.932   5.301  0.00  0.00    +0.118 C 
BRANCH  16  17
ATOM      6  N   UNL     1      20.372   7.445   4.491  0.00  0.00    -0.263 NA
ATOM     17  C   UNL     1      18.412   8.476   5.461  0.00  0.00    -0.015 A 
ATOM     18  C   UNL     1      19.086   8.643   6.665  0.00  0.00    +0.008 A 
ATOM     19  C   UNL     1      19.093   7.877   4.413  0.00  0.00    +0.115 A 
ATOM     20  C   UNL     1      20.403   8.210   6.783  0.00  0.00    +0.020 A 
ATOM     21  C   UNL     1      20.995   7.623   5.676  0.00  0.00    +0.111 A 
ENDBRANCH  16  17
ENDBRANCH   5  16
ENDBRANCH  12   5
BRANCH  10  13
ATOM     13  C   UNL     1      11.359   7.249   6.260  0.00  0.00    +0.138 C 
BRANCH  13   4
ATOM      3  O   UNL     1       8.936   6.835   7.813  0.00  0.00    -0.276 OA
ATOM      4  N   UNL     1      11.190   6.406   7.408  0.00  0.00    -0.313 N 
ATOM     15  C   UNL     1       9.988   6.270   8.089  0.00  0.00    +0.216 C 
ATOM     22  H   UNL     1      11.999   5.883   7.732  0.00  0.00    +0.149 HD
BRANCH  15   7
ATOM      7  C   UNL     1      10.041   5.338   9.253  0.00  0.00    +0.075 C 
ATOM      8  C   UNL     1       9.448   3.977   9.102  0.00  0.00    +0.013 C 
ATOM      9  C   UNL     1       8.767   5.004   9.956  0.00  0.00    +0.013 C 
ENDBRANCH  15   7
ENDBRANCH  13   4
ENDBRANCH  10  13
TORSDOF 7
ENDMDL
MODEL 10
REMARK VINA RESULT:      -5.9     23.860     26.165
REMARK  Name = 75536546
REMARK  7 active torsions:
REMARK  status: ('A' for Active; 'I' for Inactive)
REMARK    1  A    between atoms: O_2  and  C_11
REMARK    2  A    between atoms: N_4  and  C_13
REMARK    3  A    between atoms: N_5  and  C_12
REMARK    4  A    between atoms: N_5  and  C_16
REMARK    5  A    between atoms: C_7  and  C_15
REMARK    6  A    between atoms: C_10  and  C_13
REMARK    7  A    between atoms: C_16  and  C_17
REMARK                            x       y       z     vdW  Elec       q    Type
REMARK                         _______ _______ _______ _____ _____    ______ ____
ROOT
ATOM      1  O   UNL     1      11.670   7.561   3.913  0.00  0.00    -0.371 OA
ATOM     10  C   UNL     1      10.657   6.982   4.752  0.00  0.00    +0.165 C 
ATOM     11  C   UNL     1      10.800   5.473   4.601  0.00  0.00    +0.164 C 
ATOM     12  C   UNL     1      11.209   5.362   3.144  0.00  0.00    +0.111 C 
ATOM     14  C   UNL     1      12.143   6.553   3.002  0.00  0.00    +0.181 C 
ENDROOT
BRANCH  11   2
ATOM      2  O   UNL     1       9.589   4.798   4.881  0.00  0.00    -0.388 OA
ATOM     24  H   UNL     1       9.568   3.979   4.357  0.00  0.00    +0.210 HD
ENDBRANCH  11   2
BRANCH  12   5
ATOM      5  N   UNL     1      11.849   4.099   2.812  0.00  0.00    -0.305 NA
ATOM     23  H   UNL     1      11.357   3.342   3.289  0.00  0.00    +0.123 HD
BRANCH   5  16
ATOM     16  C   UNL     1      11.813   3.853   1.375  0.00  0.00    +0.118 C 
BRANCH  16  17
ATOM      6  N   UNL     1      15.576   3.624   1.036  0.00  0.00    -0.263 NA
ATOM     17  C   UNL     1      13.189   3.893   0.765  0.00  0.00    -0.015 A 
ATOM     18  C   UNL     1      13.369   4.219  -0.574  0.00  0.00    +0.008 A 
ATOM     19  C   UNL     1      14.314   3.606   1.521  0.00  0.00    +0.115 A 
ATOM     20  C   UNL     1      14.652   4.249  -1.109  0.00  0.00    +0.020 A 
ATOM     21  C   UNL     1      15.712   3.946  -0.270  0.00  0.00    +0.111 A 
ENDBRANCH  16  17
ENDBRANCH   5  16
ENDBRANCH  12   5
BRANCH  10  13
ATOM     13  C   UNL     1      10.838   7.461   6.181  0.00  0.00    +0.138 C 
BRANCH  13   4
ATOM      3  O   UNL     1      11.569   5.736   8.405  0.00  0.00    -0.276 OA
ATOM      4  N   UNL     1       9.956   6.771   7.078  0.00  0.00    -0.313 N 
ATOM     15  C   UNL     1      10.399   5.964   8.118  0.00  0.00    +0.216 C 
ATOM     22  H   UNL     1       8.957   6.885   6.938  0.00  0.00    +0.149 HD
BRANCH  15   7
ATOM      7  C   UNL     1       9.308   5.346   8.926  0.00  0.00    +0.075 C 
ATOM      8  C   UNL     1       9.651   4.765  10.258  0.00  0.00    +0.013 C 
ATOM      9  C   UNL     1       9.309   3.864   9.108  0.00  0.00    +0.013 C 
ENDBRANCH  15   7
ENDBRANCH  13   4
ENDBRANCH  10  13
TORSDOF 7
ENDMDL
