MODEL 1
REMARK VINA RESULT:      -6.9      0.000      0.000
REMARK  Name = 28962883
REMARK  10 active torsions:
REMARK  status: ('A' for Active; 'I' for Inactive)
REMARK    1  A    between atoms: O_1  and  C_9
REMARK    2  A    between atoms: N_4  and  C_13
REMARK    3  A    between atoms: N_5  and  C_21
REMARK    4  A    between atoms: C_6  and  C_16
REMARK    5  A    between atoms: C_8  and  C_18
REMARK    6  A    between atoms: C_11  and  C_17
REMARK    7  A    between atoms: C_17  and  C_19
REMARK    8  A    between atoms: C_17  and  C_20
REMARK    9  A    between atoms: C_22  and  C_25
REMARK   10  A    between atoms: C_25  and  C_26
REMARK                            x       y       z     vdW  Elec       q    Type
REMARK                         _______ _______ _______ _____ _____    ______ ____
ROOT
ATOM      6  C   UNL     1      -3.726 -10.661  10.420  0.00  0.00    -0.027 C 
ATOM      7  C   UNL     1      -5.064 -10.277  11.135  0.00  0.00    +0.028 C 
ATOM      8  C   UNL     1      -5.839  -9.179  10.320  0.00  0.00    +0.012 C 
ATOM      9  C   UNL     1      -4.826  -9.949  12.638  0.00  0.00    +0.122 C 
ATOM     10  C   UNL     1      -3.046 -11.820  11.186  0.00  0.00    +0.007 C 
ATOM     11  C   UNL     1      -4.053 -11.067  13.375  0.00  0.00    +0.029 C 
ATOM     12  C   UNL     1      -4.045 -11.162   8.992  0.00  0.00    +0.009 C 
ATOM     13  C   UNL     1      -6.087  -9.665   8.865  0.00  0.00    +0.076 C 
ATOM     14  C   UNL     1      -2.776 -11.489  12.647  0.00  0.00    +0.007 C 
ATOM     15  C   UNL     1      -4.820 -10.150   8.161  0.00  0.00    +0.023 C 
ATOM     16  C   UNL     1      -2.736  -9.472  10.333  0.00  0.00    +0.011 C 
ATOM     18  C   UNL     1      -7.181  -8.774  10.954  0.00  0.00    +0.010 C 
ENDROOT
BRANCH  13   4
ATOM      3  O   UNL     1      -8.330  -9.972   7.086  0.00  0.00    -0.275 OA
ATOM      4  N   UNL     1      -6.696  -8.633   8.052  0.00  0.00    -0.312 N 
ATOM     22  C   UNL     1      -7.779  -8.882   7.223  0.00  0.00    +0.218 C 
ATOM     32  H   UNL     1      -6.263  -7.715   8.054  0.00  0.00    +0.149 HD
BRANCH  22  25
ATOM     25  C   UNL     1      -8.217  -7.625   6.495  0.00  0.00    +0.130 C 
BRANCH  25  26
ATOM     26  C   UNL     1      -9.216  -6.806   7.268  0.00  0.00    -0.039 A 
ATOM     27  C   UNL     1     -10.581  -7.056   7.128  0.00  0.00    +0.004 A 
ATOM     28  C   UNL     1      -8.777  -5.795   8.123  0.00  0.00    +0.004 A 
ATOM     29  C   UNL     1     -11.507  -6.298   7.844  0.00  0.00    +0.000 A 
ATOM     30  C   UNL     1      -9.702  -5.036   8.839  0.00  0.00    +0.000 A 
ATOM     31  C   UNL     1     -11.067  -5.287   8.699  0.00  0.00    +0.000 A 
ENDBRANCH  25  26
ENDBRANCH  22  25
ENDBRANCH  13   4
BRANCH   9   1
ATOM      1  O   UNL     1      -6.083  -9.816  13.302  0.00  0.00    -0.391 OA
ATOM     33  H   UNL     1      -6.784  -9.846  12.630  0.00  0.00    +0.210 HD
ENDBRANCH   9   1
BRANCH  11  17
ATOM     17  C   UNL     1      -3.714 -10.670  14.816  0.00  0.00    +0.077 C 
ATOM     19  C   UNL     1      -2.202 -10.642  15.012  0.00  0.00    +0.017 C 
BRANCH  17  20
ATOM      2  O   UNL     1      -5.202 -12.478  15.437  0.00  0.00    -0.276 OA
ATOM      5  N   UNL     1      -3.964 -11.440  17.101  0.00  0.00    -0.312 N 
ATOM     20  C   UNL     1      -4.382 -11.633  15.793  0.00  0.00    +0.216 C 
ATOM     34  H   UNL     1      -3.283 -10.714  17.313  0.00  0.00    +0.149 HD
BRANCH   5  21
ATOM     21  C   UNL     1      -4.458 -12.230  18.205  0.00  0.00    +0.073 C 
ATOM     23  C   UNL     1      -5.172 -11.589  19.359  0.00  0.00    +0.024 C 
ATOM     24  C   UNL     1      -3.804 -12.174  19.554  0.00  0.00    +0.024 C 
ENDBRANCH   5  21
ENDBRANCH  17  20
ENDBRANCH  11  17
TORSDOF 7
ENDMDL
MODEL 2
REMARK VINA RESULT:      -6.7      1.616      9.072
REMARK  Name = 28962883
REMARK  10 active torsions:
REMARK  status: ('A' for Active; 'I' for Inactive)
REMARK    1  A    between atoms: O_1  and  C_9
REMARK    2  A    between atoms: N_4  and  C_13
REMARK    3  A    between atoms: N_5  and  C_21
REMARK    4  A    between atoms: C_6  and  C_16
REMARK    5  A    between atoms: C_8  and  C_18
REMARK    6  A    between atoms: C_11  and  C_17
REMARK    7  A    between atoms: C_17  and  C_19
REMARK    8  A    between atoms: C_17  and  C_20
REMARK    9  A    between atoms: C_22  and  C_25
REMARK   10  A    between atoms: C_25  and  C_26
REMARK                            x       y       z     vdW  Elec       q    Type
REMARK                         _______ _______ _______ _____ _____    ______ ____
ROOT
ATOM      6  C   UNL     1      -3.901 -10.230  10.519  0.00  0.00    -0.027 C 
ATOM      7  C   UNL     1      -5.187  -9.771  11.282  0.00  0.00    +0.028 C 
ATOM      8  C   UNL     1      -5.327 -10.530  12.650  0.00  0.00    +0.012 C 
ATOM      9  C   UNL     1      -6.439  -9.821  10.358  0.00  0.00    +0.122 C 
ATOM     10  C   UNL     1      -3.733  -9.384   9.234  0.00  0.00    +0.007 C 
ATOM     11  C   UNL     1      -6.228  -9.061   9.028  0.00  0.00    +0.029 C 
ATOM     12  C   UNL     1      -2.666  -9.976  11.415  0.00  0.00    +0.009 C 
ATOM     13  C   UNL     1      -4.049 -10.329  13.511  0.00  0.00    +0.076 C 
ATOM     14  C   UNL     1      -4.940  -9.463   8.309  0.00  0.00    +0.007 C 
ATOM     15  C   UNL     1      -2.757 -10.666  12.768  0.00  0.00    +0.023 C 
ATOM     16  C   UNL     1      -3.945 -11.729  10.126  0.00  0.00    +0.011 C 
ATOM     18  C   UNL     1      -6.560 -10.106  13.467  0.00  0.00    +0.010 C 
ENDROOT
BRANCH  13   4
ATOM      3  O   UNL     1      -2.496  -9.894  15.895  0.00  0.00    -0.275 OA
ATOM      4  N   UNL     1      -4.095 -11.110  14.729  0.00  0.00    -0.312 N 
ATOM     22  C   UNL     1      -3.303 -10.819  15.829  0.00  0.00    +0.218 C 
ATOM     32  H   UNL     1      -4.688 -11.934  14.739  0.00  0.00    +0.149 HD
BRANCH  22  25
ATOM     25  C   UNL     1      -3.557 -11.791  16.966  0.00  0.00    +0.130 C 
BRANCH  25  26
ATOM     26  C   UNL     1      -4.685 -11.368  17.870  0.00  0.00    -0.039 A 
ATOM     27  C   UNL     1      -5.710 -10.561  17.376  0.00  0.00    +0.004 A 
ATOM     28  C   UNL     1      -4.704 -11.783  19.201  0.00  0.00    +0.004 A 
ATOM     29  C   UNL     1      -6.755 -10.169  18.213  0.00  0.00    +0.000 A 
ATOM     30  C   UNL     1      -5.748 -11.392  20.038  0.00  0.00    +0.000 A 
ATOM     31  C   UNL     1      -6.774 -10.585  19.544  0.00  0.00    +0.000 A 
ENDBRANCH  25  26
ENDBRANCH  22  25
ENDBRANCH  13   4
BRANCH   9   1
ATOM      1  O   UNL     1      -7.542  -9.197  11.015  0.00  0.00    -0.391 OA
ATOM     33  H   UNL     1      -7.330  -8.256  11.135  0.00  0.00    +0.210 HD
ENDBRANCH   9   1
BRANCH  11  17
ATOM     17  C   UNL     1      -7.420  -9.233   8.079  0.00  0.00    +0.077 C 
ATOM     19  C   UNL     1      -6.992  -9.998   6.832  0.00  0.00    +0.017 C 
BRANCH  17  20
ATOM      2  O   UNL     1      -7.791  -7.319   6.642  0.00  0.00    -0.276 OA
ATOM      5  N   UNL     1      -8.775  -7.336   8.743  0.00  0.00    -0.312 N 
ATOM     20  C   UNL     1      -8.001  -7.868   7.722  0.00  0.00    +0.216 C 
ATOM     34  H   UNL     1      -8.895  -7.854   9.610  0.00  0.00    +0.149 HD
BRANCH   5  21
ATOM     21  C   UNL     1      -9.429  -6.052   8.640  0.00  0.00    +0.073 C 
ATOM     23  C   UNL     1     -10.762  -5.807   9.282  0.00  0.00    +0.024 C 
ATOM     24  C   UNL     1     -10.649  -5.869   7.787  0.00  0.00    +0.024 C 
ENDBRANCH   5  21
ENDBRANCH  17  20
ENDBRANCH  11  17
TORSDOF 7
ENDMDL
MODEL 3
REMARK VINA RESULT:      -6.6     27.567     31.143
REMARK  Name = 28962883
REMARK  10 active torsions:
REMARK  status: ('A' for Active; 'I' for Inactive)
REMARK    1  A    between atoms: O_1  and  C_9
REMARK    2  A    between atoms: N_4  and  C_13
REMARK    3  A    between atoms: N_5  and  C_21
REMARK    4  A    between atoms: C_6  and  C_16
REMARK    5  A    between atoms: C_8  and  C_18
REMARK    6  A    between atoms: C_11  and  C_17
REMARK    7  A    between atoms: C_17  and  C_19
REMARK    8  A    between atoms: C_17  and  C_20
REMARK    9  A    between atoms: C_22  and  C_25
REMARK   10  A    between atoms: C_25  and  C_26
REMARK                            x       y       z     vdW  Elec       q    Type
REMARK                         _______ _______ _______ _____ _____    ______ ____
ROOT
ATOM      6  C   UNL     1      15.359  10.303  21.255  0.00  0.00    -0.027 C 
ATOM      7  C   UNL     1      15.345   8.762  21.525  0.00  0.00    +0.028 C 
ATOM      8  C   UNL     1      16.662   8.089  20.994  0.00  0.00    +0.012 C 
ATOM      9  C   UNL     1      14.018   8.115  21.032  0.00  0.00    +0.122 C 
ATOM     10  C   UNL     1      14.104  10.949  21.888  0.00  0.00    +0.007 C 
ATOM     11  C   UNL     1      12.765   8.831  21.586  0.00  0.00    +0.029 C 
ATOM     12  C   UNL     1      16.602  10.922  21.935  0.00  0.00    +0.009 C 
ATOM     13  C   UNL     1      17.907   8.770  21.628  0.00  0.00    +0.076 C 
ATOM     14  C   UNL     1      12.802  10.345  21.379  0.00  0.00    +0.007 C 
ATOM     15  C   UNL     1      17.909  10.291  21.479  0.00  0.00    +0.023 C 
ATOM     16  C   UNL     1      15.383  10.641  19.742  0.00  0.00    +0.011 C 
ATOM     18  C   UNL     1      16.727   6.574  21.252  0.00  0.00    +0.010 C 
ENDROOT
BRANCH  13   4
ATOM      3  O   UNL     1      20.295   8.082  23.081  0.00  0.00    -0.275 OA
ATOM      4  N   UNL     1      19.141   8.254  21.073  0.00  0.00    -0.312 N 
ATOM     22  C   UNL     1      20.241   7.951  21.860  0.00  0.00    +0.218 C 
ATOM     32  H   UNL     1      19.207   8.175  20.062  0.00  0.00    +0.149 HD
BRANCH  22  25
ATOM     25  C   UNL     1      21.390   7.423  21.023  0.00  0.00    +0.130 C 
BRANCH  25  26
ATOM     26  C   UNL     1      21.696   5.971  21.279  0.00  0.00    -0.039 A 
ATOM     27  C   UNL     1      20.882   4.980  20.731  0.00  0.00    +0.004 A 
ATOM     28  C   UNL     1      22.793   5.617  22.064  0.00  0.00    +0.004 A 
ATOM     29  C   UNL     1      21.165   3.635  20.967  0.00  0.00    +0.000 A 
ATOM     30  C   UNL     1      23.076   4.272  22.301  0.00  0.00    +0.000 A 
ATOM     31  C   UNL     1      22.262   3.281  21.752  0.00  0.00    +0.000 A 
ENDBRANCH  25  26
ENDBRANCH  22  25
ENDBRANCH  13   4
BRANCH   9   1
ATOM      1  O   UNL     1      13.950   6.762  21.485  0.00  0.00    -0.391 OA
ATOM     33  H   UNL     1      13.027   6.570  21.722  0.00  0.00    +0.210 HD
ENDBRANCH   9   1
BRANCH  11  17
ATOM     17  C   UNL     1      11.473   8.263  20.987  0.00  0.00    +0.077 C 
ATOM     19  C   UNL     1      10.892   7.195  21.907  0.00  0.00    +0.017 C 
BRANCH  17  20
ATOM      2  O   UNL     1      12.051   6.533  19.394  0.00  0.00    -0.276 OA
ATOM      5  N   UNL     1      11.614   8.669  18.601  0.00  0.00    -0.312 N 
ATOM     20  C   UNL     1      11.746   7.707  19.593  0.00  0.00    +0.216 C 
ATOM     34  H   UNL     1      11.362   9.622  18.850  0.00  0.00    +0.149 HD
BRANCH   5  21
ATOM     21  C   UNL     1      11.826   8.382  17.201  0.00  0.00    +0.073 C 
ATOM     23  C   UNL     1      12.293   9.447  16.253  0.00  0.00    +0.024 C 
ATOM     24  C   UNL     1      10.895   8.912  16.151  0.00  0.00    +0.024 C 
ENDBRANCH   5  21
ENDBRANCH  17  20
ENDBRANCH  11  17
TORSDOF 7
ENDMDL
MODEL 4
REMARK VINA RESULT:      -6.6     23.451     25.868
REMARK  Name = 28962883
REMARK  10 active torsions:
REMARK  status: ('A' for Active; 'I' for Inactive)
REMARK    1  A    between atoms: O_1  and  C_9
REMARK    2  A    between atoms: N_4  and  C_13
REMARK    3  A    between atoms: N_5  and  C_21
REMARK    4  A    between atoms: C_6  and  C_16
REMARK    5  A    between atoms: C_8  and  C_18
REMARK    6  A    between atoms: C_11  and  C_17
REMARK    7  A    between atoms: C_17  and  C_19
REMARK    8  A    between atoms: C_17  and  C_20
REMARK    9  A    between atoms: C_22  and  C_25
REMARK   10  A    between atoms: C_25  and  C_26
REMARK                            x       y       z     vdW  Elec       q    Type
REMARK                         _______ _______ _______ _____ _____    ______ ____
ROOT
ATOM      6  C   UNL     1       9.704   6.900   6.593  0.00  0.00    -0.027 C 
ATOM      7  C   UNL     1      10.455   7.605   5.414  0.00  0.00    +0.028 C 
ATOM      8  C   UNL     1      11.383   6.589   4.655  0.00  0.00    +0.012 C 
ATOM      9  C   UNL     1      11.147   8.915   5.891  0.00  0.00    +0.122 C 
ATOM     10  C   UNL     1       8.718   7.897   7.245  0.00  0.00    +0.007 C 
ATOM     11  C   UNL     1      10.179   9.863   6.635  0.00  0.00    +0.029 C 
ATOM     12  C   UNL     1       8.878   5.720   6.029  0.00  0.00    +0.009 C 
ATOM     13  C   UNL     1      10.554   5.371   4.159  0.00  0.00    +0.076 C 
ATOM     14  C   UNL     1       9.397   9.163   7.748  0.00  0.00    +0.007 C 
ATOM     15  C   UNL     1       9.721   4.714   5.259  0.00  0.00    +0.023 C 
ATOM     16  C   UNL     1      10.671   6.371   7.682  0.00  0.00    +0.011 C 
ATOM     18  C   UNL     1      12.132   7.211   3.465  0.00  0.00    +0.010 C 
ENDROOT
BRANCH  13   4
ATOM      3  O   UNL     1      10.292   4.259   1.517  0.00  0.00    -0.275 OA
ATOM      4  N   UNL     1      11.397   4.359   3.557  0.00  0.00    -0.312 N 
ATOM     22  C   UNL     1      11.188   3.886   2.271  0.00  0.00    +0.218 C 
ATOM     32  H   UNL     1      12.125   3.947   4.134  0.00  0.00    +0.149 HD
BRANCH  22  25
ATOM     25  C   UNL     1      12.218   2.839   1.893  0.00  0.00    +0.130 C 
BRANCH  25  26
ATOM     26  C   UNL     1      13.275   3.355   0.951  0.00  0.00    -0.039 A 
ATOM     27  C   UNL     1      12.995   3.483  -0.409  0.00  0.00    +0.004 A 
ATOM     28  C   UNL     1      14.534   3.704   1.440  0.00  0.00    +0.004 A 
ATOM     29  C   UNL     1      13.973   3.960  -1.281  0.00  0.00    +0.000 A 
ATOM     30  C   UNL     1      15.512   4.181   0.568  0.00  0.00    +0.000 A 
ATOM     31  C   UNL     1      15.232   4.309  -0.792  0.00  0.00    +0.000 A 
ENDBRANCH  25  26
ENDBRANCH  22  25
ENDBRANCH  13   4
BRANCH   9   1
ATOM      1  O   UNL     1      11.634   9.636   4.758  0.00  0.00    -0.391 OA
ATOM     33  H   UNL     1      12.162  10.385   5.081  0.00  0.00    +0.210 HD
ENDBRANCH   9   1
BRANCH  11  17
ATOM     17  C   UNL     1      10.906  11.084   7.210  0.00  0.00    +0.077 C 
ATOM     19  C   UNL     1      12.082  10.637   8.072  0.00  0.00    +0.017 C 
BRANCH  17  20
ATOM      2  O   UNL     1       8.934  12.460   7.499  0.00  0.00    -0.276 OA
ATOM      5  N   UNL     1      10.297  12.075   9.336  0.00  0.00    -0.312 N 
ATOM     20  C   UNL     1       9.929  11.945   8.004  0.00  0.00    +0.216 C 
ATOM     34  H   UNL     1      11.141  11.620   9.675  0.00  0.00    +0.149 HD
BRANCH   5  21
ATOM     21  C   UNL     1       9.531  12.846  10.287  0.00  0.00    +0.073 C 
ATOM     23  C   UNL     1       9.320  12.359  11.690  0.00  0.00    +0.024 C 
ATOM     24  C   UNL     1       8.168  12.400  10.729  0.00  0.00    +0.024 C 
ENDBRANCH   5  21
ENDBRANCH  17  20
ENDBRANCH  11  17
TORSDOF 7
ENDMDL
MODEL 5
REMARK VINA RESULT:      -6.6     23.328     26.435
REMARK  Name = 28962883
REMARK  10 active torsions:
REMARK  status: ('A' for Active; 'I' for Inactive)
REMARK    1  A    between atoms: O_1  and  C_9
REMARK    2  A    between atoms: N_4  and  C_13
REMARK    3  A    between atoms: N_5  and  C_21
REMARK    4  A    between atoms: C_6  and  C_16
REMARK    5  A    between atoms: C_8  and  C_18
REMARK    6  A    between atoms: C_11  and  C_17
REMARK    7  A    between atoms: C_17  and  C_19
REMARK    8  A    between atoms: C_17  and  C_20
REMARK    9  A    between atoms: C_22  and  C_25
REMARK   10  A    between atoms: C_25  and  C_26
REMARK                            x       y       z     vdW  Elec       q    Type
REMARK                         _______ _______ _______ _____ _____    ______ ____
ROOT
ATOM      6  C   UNL     1      13.972   4.902   0.658  0.00  0.00    -0.027 C 
ATOM      7  C   UNL     1      12.449   5.148   0.920  0.00  0.00    +0.028 C 
ATOM      8  C   UNL     1      12.168   5.321   2.456  0.00  0.00    +0.012 C 
ATOM      9  C   UNL     1      11.573   4.086   0.195  0.00  0.00    +0.122 C 
ATOM     10  C   UNL     1      14.230   4.849  -0.867  0.00  0.00    +0.007 C 
ATOM     11  C   UNL     1      11.909   3.964  -1.309  0.00  0.00    +0.029 C 
ATOM     12  C   UNL     1      14.781   6.088   1.232  0.00  0.00    +0.009 C 
ATOM     13  C   UNL     1      13.042   6.468   3.038  0.00  0.00    +0.076 C 
ATOM     14  C   UNL     1      13.404   3.784  -1.574  0.00  0.00    +0.007 C 
ATOM     15  C   UNL     1      14.528   6.322   2.714  0.00  0.00    +0.023 C 
ATOM     16  C   UNL     1      14.480   3.583   1.294  0.00  0.00    +0.011 C 
ATOM     18  C   UNL     1      10.690   5.595   2.785  0.00  0.00    +0.010 C 
ENDROOT
BRANCH  13   4
ATOM      3  O   UNL     1      13.120   8.886   4.597  0.00  0.00    -0.275 OA
ATOM      4  N   UNL     1      12.894   6.578   4.474  0.00  0.00    -0.312 N 
ATOM     22  C   UNL     1      12.947   7.795   5.136  0.00  0.00    +0.218 C 
ATOM     32  H   UNL     1      12.812   5.717   5.007  0.00  0.00    +0.149 HD
BRANCH  22  25
ATOM     25  C   UNL     1      12.757   7.620   6.630  0.00  0.00    +0.130 C 
BRANCH  25  26
ATOM     26  C   UNL     1      11.322   7.384   7.025  0.00  0.00    -0.039 A 
ATOM     27  C   UNL     1      10.379   8.397   6.862  0.00  0.00    +0.004 A 
ATOM     28  C   UNL     1      10.939   6.152   7.555  0.00  0.00    +0.004 A 
ATOM     29  C   UNL     1       9.050   8.180   7.228  0.00  0.00    +0.000 A 
ATOM     30  C   UNL     1       9.611   5.934   7.921  0.00  0.00    +0.000 A 
ATOM     31  C   UNL     1       8.667   6.947   7.757  0.00  0.00    +0.000 A 
ENDBRANCH  25  26
ENDBRANCH  22  25
ENDBRANCH  13   4
BRANCH   9   1
ATOM      1  O   UNL     1      10.199   4.465   0.277  0.00  0.00    -0.391 OA
ATOM     33  H   UNL     1      10.097   5.073   1.028  0.00  0.00    +0.210 HD
ENDBRANCH   9   1
BRANCH  11  17
ATOM     17  C   UNL     1      11.130   2.824  -1.976  0.00  0.00    +0.077 C 
ATOM     19  C   UNL     1      12.084   1.714  -2.401  0.00  0.00    +0.017 C 
BRANCH  17  20
ATOM      2  O   UNL     1      10.514   2.964  -4.314  0.00  0.00    -0.276 OA
ATOM      5  N   UNL     1       9.416   4.330  -2.795  0.00  0.00    -0.312 N 
ATOM     20  C   UNL     1      10.337   3.361  -3.164  0.00  0.00    +0.216 C 
ATOM     34  H   UNL     1       9.334   4.606  -1.819  0.00  0.00    +0.149 HD
BRANCH   5  21
ATOM     21  C   UNL     1       8.550   4.988  -3.745  0.00  0.00    +0.073 C 
ATOM     23  C   UNL     1       8.914   6.320  -4.333  0.00  0.00    +0.024 C 
ATOM     24  C   UNL     1       7.771   6.213  -3.367  0.00  0.00    +0.024 C 
ENDBRANCH   5  21
ENDBRANCH  17  20
ENDBRANCH  11  17
TORSDOF 7
ENDMDL
MODEL 6
REMARK VINA RESULT:      -6.6     19.850     22.634
REMARK  Name = 28962883
REMARK  10 active torsions:
REMARK  status: ('A' for Active; 'I' for Inactive)
REMARK    1  A    between atoms: O_1  and  C_9
REMARK    2  A    between atoms: N_4  and  C_13
REMARK    3  A    between atoms: N_5  and  C_21
REMARK    4  A    between atoms: C_6  and  C_16
REMARK    5  A    between atoms: C_8  and  C_18
REMARK    6  A    between atoms: C_11  and  C_17
REMARK    7  A    between atoms: C_17  and  C_19
REMARK    8  A    between atoms: C_17  and  C_20
REMARK    9  A    between atoms: C_22  and  C_25
REMARK   10  A    between atoms: C_25  and  C_26
REMARK                            x       y       z     vdW  Elec       q    Type
REMARK                         _______ _______ _______ _____ _____    ______ ____
ROOT
ATOM      6  C   UNL     1     -17.457   4.804  21.601  0.00  0.00    -0.027 C 
ATOM      7  C   UNL     1     -16.111   4.646  22.384  0.00  0.00    +0.028 C 
ATOM      8  C   UNL     1     -16.376   4.195  23.865  0.00  0.00    +0.012 C 
ATOM      9  C   UNL     1     -15.211   5.905  22.219  0.00  0.00    +0.122 C 
ATOM     10  C   UNL     1     -17.156   5.138  20.120  0.00  0.00    +0.007 C 
ATOM     11  C   UNL     1     -15.000   6.296  20.738  0.00  0.00    +0.029 C 
ATOM     12  C   UNL     1     -18.221   3.460  21.635  0.00  0.00    +0.009 C 
ATOM     13  C   UNL     1     -17.209   2.883  23.888  0.00  0.00    +0.076 C 
ATOM     14  C   UNL     1     -16.309   6.392  19.953  0.00  0.00    +0.007 C 
ATOM     15  C   UNL     1     -18.483   2.958  23.048  0.00  0.00    +0.023 C 
ATOM     16  C   UNL     1     -18.359   5.919  22.189  0.00  0.00    +0.011 C 
ATOM     18  C   UNL     1     -15.091   3.993  24.687  0.00  0.00    +0.010 C 
ENDROOT
BRANCH  13   4
ATOM      3  O   UNL     1     -16.256   0.590  25.344  0.00  0.00    -0.275 OA
ATOM      4  N   UNL     1     -17.571   2.501  25.236  0.00  0.00    -0.312 N 
ATOM     22  C   UNL     1     -17.055   1.372  25.853  0.00  0.00    +0.218 C 
ATOM     32  H   UNL     1     -18.277   3.057  25.710  0.00  0.00    +0.149 HD
BRANCH  22  25
ATOM     25  C   UNL     1     -17.597   1.215  27.261  0.00  0.00    +0.130 C 
BRANCH  25  26
ATOM     26  C   UNL     1     -16.613   1.617  28.328  0.00  0.00    -0.039 A 
ATOM     27  C   UNL     1     -16.208   0.691  29.288  0.00  0.00    +0.004 A 
ATOM     28  C   UNL     1     -16.106   2.916  28.356  0.00  0.00    +0.004 A 
ATOM     29  C   UNL     1     -15.296   1.062  30.276  0.00  0.00    +0.000 A 
ATOM     30  C   UNL     1     -15.195   3.288  29.343  0.00  0.00    +0.000 A 
ATOM     31  C   UNL     1     -14.790   2.361  30.303  0.00  0.00    +0.000 A 
ENDBRANCH  25  26
ENDBRANCH  22  25
ENDBRANCH  13   4
BRANCH   9   1
ATOM      1  O   UNL     1     -13.917   5.641  22.760  0.00  0.00    -0.391 OA
ATOM     33  H   UNL     1     -13.948   5.812  23.716  0.00  0.00    +0.210 HD
ENDBRANCH   9   1
BRANCH  11  17
ATOM     17  C   UNL     1     -14.223   7.610  20.601  0.00  0.00    +0.077 C 
ATOM     19  C   UNL     1     -14.949   8.553  19.647  0.00  0.00    +0.017 C 
BRANCH  17  20
ATOM      2  O   UNL     1     -11.992   6.687  20.796  0.00  0.00    -0.276 OA
ATOM      5  N   UNL     1     -12.538   7.872  18.878  0.00  0.00    -0.312 N 
ATOM     20  C   UNL     1     -12.800   7.327  20.127  0.00  0.00    +0.216 C 
ATOM     34  H   UNL     1     -13.262   8.393  18.391  0.00  0.00    +0.149 HD
BRANCH   5  21
ATOM     21  C   UNL     1     -11.258   7.739  18.221  0.00  0.00    +0.073 C 
ATOM     23  C   UNL     1     -10.298   8.890  18.152  0.00  0.00    +0.024 C 
ATOM     24  C   UNL     1     -10.986   8.412  16.908  0.00  0.00    +0.024 C 
ENDBRANCH   5  21
ENDBRANCH  17  20
ENDBRANCH  11  17
TORSDOF 7
ENDMDL
MODEL 7
REMARK VINA RESULT:      -6.5      4.406      8.735
REMARK  Name = 28962883
REMARK  10 active torsions:
REMARK  status: ('A' for Active; 'I' for Inactive)
REMARK    1  A    between atoms: O_1  and  C_9
REMARK    2  A    between atoms: N_4  and  C_13
REMARK    3  A    between atoms: N_5  and  C_21
REMARK    4  A    between atoms: C_6  and  C_16
REMARK    5  A    between atoms: C_8  and  C_18
REMARK    6  A    between atoms: C_11  and  C_17
REMARK    7  A    between atoms: C_17  and  C_19
REMARK    8  A    between atoms: C_17  and  C_20
REMARK    9  A    between atoms: C_22  and  C_25
REMARK   10  A    between atoms: C_25  and  C_26
REMARK                            x       y       z     vdW  Elec       q    Type
REMARK                         _______ _______ _______ _____ _____    ______ ____
ROOT
ATOM      6  C   UNL     1      -6.818 -11.445  18.763  0.00  0.00    -0.027 C 
ATOM      7  C   UNL     1      -7.341 -10.955  17.372  0.00  0.00    +0.028 C 
ATOM      8  C   UNL     1      -6.160 -10.409  16.492  0.00  0.00    +0.012 C 
ATOM      9  C   UNL     1      -8.555  -9.994  17.532  0.00  0.00    +0.122 C 
ATOM     10  C   UNL     1      -7.985 -12.079  19.558  0.00  0.00    +0.007 C 
ATOM     11  C   UNL     1      -9.674 -10.592  18.415  0.00  0.00    +0.029 C 
ATOM     12  C   UNL     1      -5.749 -12.540  18.542  0.00  0.00    +0.009 C 
ATOM     13  C   UNL     1      -5.056 -11.493  16.339  0.00  0.00    +0.076 C 
ATOM     14  C   UNL     1      -9.158 -11.129  19.751  0.00  0.00    +0.007 C 
ATOM     15  C   UNL     1      -4.589 -12.077  17.672  0.00  0.00    +0.023 C 
ATOM     16  C   UNL     1      -6.206 -10.298  19.606  0.00  0.00    +0.011 C 
ATOM     18  C   UNL     1      -6.600  -9.934  15.096  0.00  0.00    +0.010 C 
ENDROOT
BRANCH  13   4
ATOM      3  O   UNL     1      -3.419 -12.930  14.457  0.00  0.00    -0.275 OA
ATOM      4  N   UNL     1      -3.900 -10.985  15.631  0.00  0.00    -0.312 N 
ATOM     22  C   UNL     1      -3.173 -11.759  14.741  0.00  0.00    +0.218 C 
ATOM     32  H   UNL     1      -3.586 -10.045  15.854  0.00  0.00    +0.149 HD
BRANCH  22  25
ATOM     25  C   UNL     1      -2.022 -10.977  14.140  0.00  0.00    +0.130 C 
BRANCH  25  26
ATOM     26  C   UNL     1      -2.353 -10.356  12.808  0.00  0.00    -0.039 A 
ATOM     27  C   UNL     1      -3.661 -10.393  12.327  0.00  0.00    +0.004 A 
ATOM     28  C   UNL     1      -1.350  -9.747  12.054  0.00  0.00    +0.004 A 
ATOM     29  C   UNL     1      -3.969  -9.819  11.094  0.00  0.00    +0.000 A 
ATOM     30  C   UNL     1      -1.656  -9.172  10.821  0.00  0.00    +0.000 A 
ATOM     31  C   UNL     1      -2.966  -9.209  10.341  0.00  0.00    +0.000 A 
ENDBRANCH  25  26
ENDBRANCH  22  25
ENDBRANCH  13   4
BRANCH   9   1
ATOM      1  O   UNL     1      -9.135  -9.742  16.253  0.00  0.00    -0.391 OA
ATOM     33  H   UNL     1      -9.494  -8.838  16.257  0.00  0.00    +0.210 HD
ENDBRANCH   9   1
BRANCH  11  17
ATOM     17  C   UNL     1     -10.800  -9.583  18.669  0.00  0.00    +0.077 C 
ATOM     19  C   UNL     1     -11.673 -10.050  19.829  0.00  0.00    +0.017 C 
BRANCH  17  20
ATOM      2  O   UNL     1     -12.120 -10.328  16.780  0.00  0.00    -0.276 OA
ATOM      5  N   UNL     1     -11.730  -8.055  17.033  0.00  0.00    -0.312 N 
ATOM     20  C   UNL     1     -11.622  -9.390  17.398  0.00  0.00    +0.216 C 
ATOM     34  H   UNL     1     -11.283  -7.338  17.598  0.00  0.00    +0.149 HD
BRANCH   5  21
ATOM     21  C   UNL     1     -12.459  -7.622  15.864  0.00  0.00    +0.073 C 
ATOM     23  C   UNL     1     -11.741  -7.127  14.642  0.00  0.00    +0.024 C 
ATOM     24  C   UNL     1     -12.530  -6.171  15.488  0.00  0.00    +0.024 C 
ENDBRANCH   5  21
ENDBRANCH  17  20
ENDBRANCH  11  17
TORSDOF 7
ENDMDL
MODEL 8
REMARK VINA RESULT:      -6.5      4.878      8.189
REMARK  Name = 28962883
REMARK  10 active torsions:
REMARK  status: ('A' for Active; 'I' for Inactive)
REMARK    1  A    between atoms: O_1  and  C_9
REMARK    2  A    between atoms: N_4  and  C_13
REMARK    3  A    between atoms: N_5  and  C_21
REMARK    4  A    between atoms: C_6  and  C_16
REMARK    5  A    between atoms: C_8  and  C_18
REMARK    6  A    between atoms: C_11  and  C_17
REMARK    7  A    between atoms: C_17  and  C_19
REMARK    8  A    between atoms: C_17  and  C_20
REMARK    9  A    between atoms: C_22  and  C_25
REMARK   10  A    between atoms: C_25  and  C_26
REMARK                            x       y       z     vdW  Elec       q    Type
REMARK                         _______ _______ _______ _____ _____    ______ ____
ROOT
ATOM      6  C   UNL     1      -5.855 -10.886  17.603  0.00  0.00    -0.027 C 
ATOM      7  C   UNL     1      -6.296 -12.329  17.189  0.00  0.00    +0.028 C 
ATOM      8  C   UNL     1      -5.940 -12.613  15.686  0.00  0.00    +0.012 C 
ATOM      9  C   UNL     1      -7.775 -12.604  17.589  0.00  0.00    +0.122 C 
ATOM     10  C   UNL     1      -6.117 -10.681  19.114  0.00  0.00    +0.007 C 
ATOM     11  C   UNL     1      -8.055 -12.297  19.079  0.00  0.00    +0.029 C 
ATOM     12  C   UNL     1      -4.335 -10.735  17.363  0.00  0.00    +0.009 C 
ATOM     13  C   UNL     1      -4.422 -12.385  15.440  0.00  0.00    +0.076 C 
ATOM     14  C   UNL     1      -7.571 -10.910  19.503  0.00  0.00    +0.007 C 
ATOM     15  C   UNL     1      -3.925 -11.024  15.927  0.00  0.00    +0.023 C 
ATOM     16  C   UNL     1      -6.608  -9.785  16.814  0.00  0.00    +0.011 C 
ATOM     18  C   UNL     1      -6.322 -14.028  15.218  0.00  0.00    +0.010 C 
ENDROOT
BRANCH  13   4
ATOM      3  O   UNL     1      -2.280 -13.962  14.339  0.00  0.00    -0.275 OA
ATOM      4  N   UNL     1      -4.079 -12.524  14.040  0.00  0.00    -0.312 N 
ATOM     22  C   UNL     1      -3.023 -13.311  13.608  0.00  0.00    +0.218 C 
ATOM     32  H   UNL     1      -4.602 -11.969  13.369  0.00  0.00    +0.149 HD
BRANCH  22  25
ATOM     25  C   UNL     1      -2.894 -13.281  12.097  0.00  0.00    +0.130 C 
BRANCH  25  26
ATOM     26  C   UNL     1      -2.863 -11.886  11.529  0.00  0.00    -0.039 A 
ATOM     27  C   UNL     1      -1.898 -10.978  11.963  0.00  0.00    +0.004 A 
ATOM     28  C   UNL     1      -3.799 -11.503  10.569  0.00  0.00    +0.004 A 
ATOM     29  C   UNL     1      -1.868  -9.686  11.438  0.00  0.00    +0.000 A 
ATOM     30  C   UNL     1      -3.771 -10.212  10.043  0.00  0.00    +0.000 A 
ATOM     31  C   UNL     1      -2.805  -9.304  10.478  0.00  0.00    +0.000 A 
ENDBRANCH  25  26
ENDBRANCH  22  25
ENDBRANCH  13   4
BRANCH   9   1
ATOM      1  O   UNL     1      -8.073 -13.987  17.395  0.00  0.00    -0.391 OA
ATOM     33  H   UNL     1      -7.257 -14.435  17.115  0.00  0.00    +0.210 HD
ENDBRANCH   9   1
BRANCH  11  17
ATOM     17  C   UNL     1      -9.542 -12.447  19.421  0.00  0.00    +0.077 C 
ATOM     19  C   UNL     1     -10.046 -11.197  20.133  0.00  0.00    +0.017 C 
BRANCH  17  20
ATOM      2  O   UNL     1      -9.082 -14.715  20.137  0.00  0.00    -0.276 OA
ATOM      5  N   UNL     1     -10.786 -13.543  21.189  0.00  0.00    -0.312 N 
ATOM     20  C   UNL     1      -9.757 -13.696  20.271  0.00  0.00    +0.216 C 
ATOM     34  H   UNL     1     -11.300 -12.667  21.233  0.00  0.00    +0.149 HD
BRANCH   5  21
ATOM     21  C   UNL     1     -11.178 -14.590  22.104  0.00  0.00    +0.073 C 
ATOM     23  C   UNL     1     -11.907 -14.275  23.377  0.00  0.00    +0.024 C 
ATOM     24  C   UNL     1     -10.490 -14.765  23.425  0.00  0.00    +0.024 C 
ENDBRANCH   5  21
ENDBRANCH  17  20
ENDBRANCH  11  17
TORSDOF 7
ENDMDL
MODEL 9
REMARK VINA RESULT:      -6.5     19.867     21.524
REMARK  Name = 28962883
REMARK  10 active torsions:
REMARK  status: ('A' for Active; 'I' for Inactive)
REMARK    1  A    between atoms: O_1  and  C_9
REMARK    2  A    between atoms: N_4  and  C_13
REMARK    3  A    between atoms: N_5  and  C_21
REMARK    4  A    between atoms: C_6  and  C_16
REMARK    5  A    between atoms: C_8  and  C_18
REMARK    6  A    between atoms: C_11  and  C_17
REMARK    7  A    between atoms: C_17  and  C_19
REMARK    8  A    between atoms: C_17  and  C_20
REMARK    9  A    between atoms: C_22  and  C_25
REMARK   10  A    between atoms: C_25  and  C_26
REMARK                            x       y       z     vdW  Elec       q    Type
REMARK                         _______ _______ _______ _____ _____    ______ ____
ROOT
ATOM      6  C   UNL     1     -16.305   6.238  22.146  0.00  0.00    -0.027 C 
ATOM      7  C   UNL     1     -14.897   5.828  22.691  0.00  0.00    +0.028 C 
ATOM      8  C   UNL     1     -13.836   5.795  21.532  0.00  0.00    +0.012 C 
ATOM      9  C   UNL     1     -14.981   4.538  23.557  0.00  0.00    +0.122 C 
ATOM     10  C   UNL     1     -17.296   6.371  23.326  0.00  0.00    +0.007 C 
ATOM     11  C   UNL     1     -16.049   4.638  24.671  0.00  0.00    +0.029 C 
ATOM     12  C   UNL     1     -16.197   7.622  21.463  0.00  0.00    +0.009 C 
ATOM     13  C   UNL     1     -13.791   7.168  20.805  0.00  0.00    +0.076 C 
ATOM     14  C   UNL     1     -17.411   5.098  24.152  0.00  0.00    +0.007 C 
ATOM     15  C   UNL     1     -15.164   7.659  20.346  0.00  0.00    +0.023 C 
ATOM     16  C   UNL     1     -16.872   5.212  21.132  0.00  0.00    +0.011 C 
ATOM     18  C   UNL     1     -12.420   5.425  22.004  0.00  0.00    +0.010 C 
ENDROOT
BRANCH  13   4
ATOM      3  O   UNL     1     -11.538   8.892  20.317  0.00  0.00    -0.275 OA
ATOM      4  N   UNL     1     -12.909   7.137  19.657  0.00  0.00    -0.312 N 
ATOM     22  C   UNL     1     -11.845   8.015  19.513  0.00  0.00    +0.218 C 
ATOM     32  H   UNL     1     -13.129   6.485  18.911  0.00  0.00    +0.149 HD
BRANCH  22  25
ATOM     25  C   UNL     1     -11.087   7.757  18.226  0.00  0.00    +0.130 C 
BRANCH  25  26
ATOM     26  C   UNL     1     -11.146   8.908  17.257  0.00  0.00    -0.039 A 
ATOM     27  C   UNL     1     -10.084   9.808  17.176  0.00  0.00    +0.004 A 
ATOM     28  C   UNL     1     -12.265   9.076  16.441  0.00  0.00    +0.004 A 
ATOM     29  C   UNL     1     -10.138  10.875  16.280  0.00  0.00    +0.000 A 
ATOM     30  C   UNL     1     -12.320  10.142  15.544  0.00  0.00    +0.000 A 
ATOM     31  C   UNL     1     -11.257  11.041  15.463  0.00  0.00    +0.000 A 
ENDBRANCH  25  26
ENDBRANCH  22  25
ENDBRANCH  13   4
BRANCH   9   1
ATOM      1  O   UNL     1     -13.730   4.318  24.209  0.00  0.00    -0.391 OA
ATOM     33  H   UNL     1     -13.625   3.362  24.347  0.00  0.00    +0.210 HD
ENDBRANCH   9   1
BRANCH  11  17
ATOM     17  C   UNL     1     -16.208   3.314  25.427  0.00  0.00    +0.077 C 
ATOM     19  C   UNL     1     -17.330   2.487  24.808  0.00  0.00    +0.017 C 
BRANCH  17  20
ATOM      2  O   UNL     1     -17.543   4.019  27.321  0.00  0.00    -0.276 OA
ATOM      5  N   UNL     1     -15.372   3.296  27.702  0.00  0.00    -0.312 N 
ATOM     20  C   UNL     1     -16.470   3.587  26.905  0.00  0.00    +0.216 C 
ATOM     34  H   UNL     1     -14.517   2.945  27.278  0.00  0.00    +0.149 HD
BRANCH   5  21
ATOM     21  C   UNL     1     -15.377   3.475  29.135  0.00  0.00    +0.073 C 
ATOM     23  C   UNL     1     -14.515   2.630  30.026  0.00  0.00    +0.024 C 
ATOM     24  C   UNL     1     -16.006   2.459  30.043  0.00  0.00    +0.024 C 
ENDBRANCH   5  21
ENDBRANCH  17  20
ENDBRANCH  11  17
TORSDOF 7
ENDMDL
MODEL 10
REMARK VINA RESULT:      -6.4     23.624     25.932
REMARK  Name = 28962883
REMARK  10 active torsions:
REMARK  status: ('A' for Active; 'I' for Inactive)
REMARK    1  A    between atoms: O_1  and  C_9
REMARK    2  A    between atoms: N_4  and  C_13
REMARK    3  A    between atoms: N_5  and  C_21
REMARK    4  A    between atoms: C_6  and  C_16
REMARK    5  A    between atoms: C_8  and  C_18
REMARK    6  A    between atoms: C_11  and  C_17
REMARK    7  A    between atoms: C_17  and  C_19
REMARK    8  A    between atoms: C_17  and  C_20
REMARK    9  A    between atoms: C_22  and  C_25
REMARK   10  A    between atoms: C_25  and  C_26
REMARK                            x       y       z     vdW  Elec       q    Type
REMARK                         _______ _______ _______ _____ _____    ______ ____
ROOT
ATOM      6  C   UNL     1      13.934   8.150   4.787  0.00  0.00    -0.027 C 
ATOM      7  C   UNL     1      12.829   7.077   4.507  0.00  0.00    +0.028 C 
ATOM      8  C   UNL     1      12.925   6.547   3.031  0.00  0.00    +0.012 C 
ATOM      9  C   UNL     1      11.425   7.586   4.945  0.00  0.00    +0.122 C 
ATOM     10  C   UNL     1      13.883   8.566   6.276  0.00  0.00    +0.007 C 
ATOM     11  C   UNL     1      11.406   8.099   6.403  0.00  0.00    +0.029 C 
ATOM     12  C   UNL     1      15.322   7.525   4.519  0.00  0.00    +0.009 C 
ATOM     13  C   UNL     1      14.349   5.989   2.751  0.00  0.00    +0.076 C 
ATOM     14  C   UNL     1      12.522   9.102   6.698  0.00  0.00    +0.007 C 
ATOM     15  C   UNL     1      15.466   6.968   3.110  0.00  0.00    +0.023 C 
ATOM     16  C   UNL     1      13.767   9.417   3.910  0.00  0.00    +0.011 C 
ATOM     18  C   UNL     1      11.883   5.466   2.695  0.00  0.00    +0.010 C 
ENDROOT
BRANCH  13   4
ATOM      3  O   UNL     1      14.994   3.364   1.763  0.00  0.00    -0.275 OA
ATOM      4  N   UNL     1      14.508   5.600   1.366  0.00  0.00    -0.312 N 
ATOM     22  C   UNL     1      14.821   4.303   0.990  0.00  0.00    +0.218 C 
ATOM     32  H   UNL     1      14.447   6.328   0.661  0.00  0.00    +0.149 HD
BRANCH  22  25
ATOM     25  C   UNL     1      14.922   4.174  -0.518  0.00  0.00    +0.130 C 
BRANCH  25  26
ATOM     26  C   UNL     1      13.583   4.188  -1.208  0.00  0.00    -0.039 A 
ATOM     27  C   UNL     1      13.239   5.253  -2.040  0.00  0.00    +0.004 A 
ATOM     28  C   UNL     1      12.687   3.137  -1.015  0.00  0.00    +0.004 A 
ATOM     29  C   UNL     1      11.999   5.268  -2.680  0.00  0.00    +0.000 A 
ATOM     30  C   UNL     1      11.448   3.151  -1.653  0.00  0.00    +0.000 A 
ATOM     31  C   UNL     1      11.104   4.216  -2.486  0.00  0.00    +0.000 A 
ENDBRANCH  25  26
ENDBRANCH  22  25
ENDBRANCH  13   4
BRANCH   9   1
ATOM      1  O   UNL     1      10.486   6.512   4.877  0.00  0.00    -0.391 OA
ATOM     33  H   UNL     1       9.655   6.861   4.514  0.00  0.00    +0.210 HD
ENDBRANCH   9   1
BRANCH  11  17
ATOM     17  C   UNL     1      10.052   8.715   6.772  0.00  0.00    +0.077 C 
ATOM     19  C   UNL     1      10.247   9.852   7.770  0.00  0.00    +0.017 C 
BRANCH  17  20
ATOM      2  O   UNL     1       7.912   7.639   7.129  0.00  0.00    -0.276 OA
ATOM      5  N   UNL     1       9.803   6.688   8.077  0.00  0.00    -0.312 N 
ATOM     20  C   UNL     1       9.124   7.640   7.330  0.00  0.00    +0.216 C 
ATOM     34  H   UNL     1      10.809   6.763   8.200  0.00  0.00    +0.149 HD
BRANCH   5  21
ATOM     21  C   UNL     1       9.138   5.572   8.709  0.00  0.00    +0.073 C 
ATOM     23  C   UNL     1       9.747   4.874   9.890  0.00  0.00    +0.024 C 
ATOM     24  C   UNL     1       9.663   4.173   8.566  0.00  0.00    +0.024 C 
ENDBRANCH   5  21
ENDBRANCH  17  20
ENDBRANCH  11  17
TORSDOF 7
ENDMDL
