MODEL 1
REMARK VINA RESULT:      -7.7      0.000      0.000
REMARK  Name = 40779087
REMARK  4 active torsions:
REMARK  status: ('A' for Active; 'I' for Inactive)
REMARK    1  A    between atoms: O_3  and  C_29
REMARK    2  A    between atoms: O_3  and  C_30
REMARK    3  A    between atoms: C_13  and  C_14
REMARK    4  A    between atoms: C_17  and  C_24
REMARK                            x       y       z     vdW  Elec       q    Type
REMARK                         _______ _______ _______ _____ _____    ______ ____
ROOT
ATOM      1  O   UNL     1      11.572  11.959  21.338  0.00  0.00    -0.275 OA
ATOM      2  O   UNL     1      11.047   8.993  17.018  0.00  0.00    -0.268 OA
ATOM      4  N   UNL     1      12.386   9.822  21.752  0.00  0.00    -0.300 N 
ATOM      5  N   UNL     1      12.134   8.294  18.972  0.00  0.00    -0.311 N 
ATOM      6  C   UNL     1      10.854   7.947  21.167  0.00  0.00    +0.027 C 
ATOM      7  C   UNL     1      13.286   7.596  21.095  0.00  0.00    +0.054 C 
ATOM      8  C   UNL     1      11.957   6.950  21.484  0.00  0.00    +0.018 C 
ATOM      9  C   UNL     1      11.054   9.253  21.955  0.00  0.00    +0.113 C 
ATOM     10  C   UNL     1      13.497   8.878  21.929  0.00  0.00    +0.117 C 
ATOM     11  C   UNL     1      10.838   8.189  19.657  0.00  0.00    +0.130 C 
ATOM     12  C   UNL     1      13.339   7.922  19.600  0.00  0.00    +0.034 A 
ATOM     14  C   UNL     1      12.521  11.184  21.482  0.00  0.00    +0.219 C 
ATOM     17  C   UNL     1      14.493   7.891  18.883  0.00  0.00    +0.002 A 
ATOM     20  C   UNL     1      12.073   8.672  17.619  0.00  0.00    +0.252 A 
ATOM     22  C   UNL     1      14.470   8.278  17.486  0.00  0.00    +0.015 A 
ATOM     23  C   UNL     1      13.351   8.663  16.872  0.00  0.00    +0.071 A 
ENDROOT
BRANCH  14  13
ATOM     13  C   UNL     1      13.918  11.708  21.357  0.00  0.00    +0.075 C 
ATOM     15  C   UNL     1      14.412  11.536  19.920  0.00  0.00    +0.013 C 
ATOM     16  C   UNL     1      13.948  13.175  21.788  0.00  0.00    +0.013 C 
ATOM     18  C   UNL     1      15.796  12.151  19.725  0.00  0.00    +0.001 C 
ATOM     19  C   UNL     1      15.330  13.791  21.589  0.00  0.00    +0.001 C 
ATOM     21  C   UNL     1      15.824  13.616  20.156  0.00  0.00    +0.000 C 
ENDBRANCH  14  13
BRANCH  17  24
ATOM     24  C   UNL     1      15.779   7.488  19.495  0.00  0.00    -0.016 A 
ATOM     25  C   UNL     1      16.432   8.351  20.375  0.00  0.00    +0.012 A 
ATOM     26  C   UNL     1      16.339   6.248  19.189  0.00  0.00    +0.012 A 
ATOM     27  C   UNL     1      17.644   7.971  20.952  0.00  0.00    +0.046 A 
ATOM     28  C   UNL     1      17.552   5.869  19.765  0.00  0.00    +0.046 A 
ATOM     29  C   UNL     1      18.204   6.730  20.646  0.00  0.00    +0.120 A 
BRANCH  29   3
ATOM      3  O   UNL     1      19.387   6.361  21.208  0.00  0.00    -0.495 OA
ATOM     30  C   UNL     1      19.745   6.986  22.440  0.00  0.00    +0.277 C 
ENDBRANCH  29   3
ENDBRANCH  17  24
TORSDOF 3
ENDMDL
MODEL 2
REMARK VINA RESULT:      -7.2     13.551     16.393
REMARK  Name = 40779087
REMARK  4 active torsions:
REMARK  status: ('A' for Active; 'I' for Inactive)
REMARK    1  A    between atoms: O_3  and  C_29
REMARK    2  A    between atoms: O_3  and  C_30
REMARK    3  A    between atoms: C_13  and  C_14
REMARK    4  A    between atoms: C_17  and  C_24
REMARK                            x       y       z     vdW  Elec       q    Type
REMARK                         _______ _______ _______ _____ _____    ______ ____
ROOT
ATOM      1  O   UNL     1      11.356   9.955   7.536  0.00  0.00    -0.275 OA
ATOM      2  O   UNL     1       7.145   9.167   4.473  0.00  0.00    -0.268 OA
ATOM      4  N   UNL     1      11.182   7.699   7.009  0.00  0.00    -0.300 N 
ATOM      5  N   UNL     1       8.702   7.507   5.024  0.00  0.00    -0.311 N 
ATOM      6  C   UNL     1       8.960   6.655   7.429  0.00  0.00    +0.027 C 
ATOM      7  C   UNL     1      10.403   5.764   5.650  0.00  0.00    +0.054 C 
ATOM      8  C   UNL     1       9.440   5.373   6.770  0.00  0.00    +0.018 C 
ATOM      9  C   UNL     1      10.144   7.449   8.008  0.00  0.00    +0.113 C 
ATOM     10  C   UNL     1      11.610   6.516   6.251  0.00  0.00    +0.117 C 
ATOM     11  C   UNL     1       8.178   7.469   6.396  0.00  0.00    +0.130 C 
ATOM     12  C   UNL     1       9.715   6.629   4.590  0.00  0.00    +0.034 A 
ATOM     14  C   UNL     1      11.731   8.975   6.888  0.00  0.00    +0.219 C 
ATOM     17  C   UNL     1      10.064   6.594   3.277  0.00  0.00    +0.002 A 
ATOM     20  C   UNL     1       8.044   8.390   4.151  0.00  0.00    +0.252 A 
ATOM     22  C   UNL     1       9.409   7.493   2.347  0.00  0.00    +0.015 A 
ATOM     23  C   UNL     1       8.469   8.356   2.732  0.00  0.00    +0.071 A 
ENDROOT
BRANCH  14  13
ATOM     13  C   UNL     1      12.839   9.138   5.893  0.00  0.00    +0.075 C 
ATOM     15  C   UNL     1      12.263   9.519   4.529  0.00  0.00    +0.013 C 
ATOM     16  C   UNL     1      13.823  10.194   6.401  0.00  0.00    +0.013 C 
ATOM     18  C   UNL     1      13.367   9.795   3.511  0.00  0.00    +0.001 C 
ATOM     19  C   UNL     1      14.923  10.472   5.382  0.00  0.00    +0.001 C 
ATOM     21  C   UNL     1      14.348  10.849   4.019  0.00  0.00    +0.000 C 
ENDBRANCH  14  13
BRANCH  17  24
ATOM     24  C   UNL     1      11.107   5.675   2.772  0.00  0.00    -0.016 A 
ATOM     25  C   UNL     1      12.372   6.167   2.448  0.00  0.00    +0.012 A 
ATOM     26  C   UNL     1      10.827   4.318   2.618  0.00  0.00    +0.012 A 
ATOM     27  C   UNL     1      13.356   5.300   1.972  0.00  0.00    +0.046 A 
ATOM     28  C   UNL     1      11.810   3.451   2.141  0.00  0.00    +0.046 A 
ATOM     29  C   UNL     1      13.075   3.943   1.818  0.00  0.00    +0.120 A 
BRANCH  29   3
ATOM      3  O   UNL     1      14.035   3.098   1.353  0.00  0.00    -0.495 OA
ATOM     30  C   UNL     1      15.313   3.663   1.062  0.00  0.00    +0.277 C 
ENDBRANCH  29   3
ENDBRANCH  17  24
TORSDOF 3
ENDMDL
MODEL 3
REMARK VINA RESULT:      -6.9     13.586     17.061
REMARK  Name = 40779087
REMARK  4 active torsions:
REMARK  status: ('A' for Active; 'I' for Inactive)
REMARK    1  A    between atoms: O_3  and  C_29
REMARK    2  A    between atoms: O_3  and  C_30
REMARK    3  A    between atoms: C_13  and  C_14
REMARK    4  A    between atoms: C_17  and  C_24
REMARK                            x       y       z     vdW  Elec       q    Type
REMARK                         _______ _______ _______ _____ _____    ______ ____
ROOT
ATOM      1  O   UNL     1      10.745  10.673   6.734  0.00  0.00    -0.275 OA
ATOM      2  O   UNL     1      10.879   5.827   8.790  0.00  0.00    -0.268 OA
ATOM      4  N   UNL     1      11.966   9.267   5.345  0.00  0.00    -0.300 N 
ATOM      5  N   UNL     1      11.748   6.391   6.689  0.00  0.00    -0.311 N 
ATOM      6  C   UNL     1      13.769   7.951   6.449  0.00  0.00    +0.027 C 
ATOM      7  C   UNL     1      12.665   7.054   4.444  0.00  0.00    +0.054 C 
ATOM      8  C   UNL     1      14.012   7.199   5.151  0.00  0.00    +0.018 C 
ATOM      9  C   UNL     1      13.169   9.340   6.172  0.00  0.00    +0.113 C 
ATOM     10  C   UNL     1      12.098   8.455   4.128  0.00  0.00    +0.117 C 
ATOM     11  C   UNL     1      12.858   7.102   7.338  0.00  0.00    +0.130 C 
ATOM     12  C   UNL     1      11.667   6.258   5.289  0.00  0.00    +0.034 A 
ATOM     14  C   UNL     1      10.833   9.996   5.706  0.00  0.00    +0.219 C 
ATOM     17  C   UNL     1      10.710   5.465   4.740  0.00  0.00    +0.002 A 
ATOM     20  C   UNL     1      10.847   5.755   7.561  0.00  0.00    +0.252 A 
ATOM     22  C   UNL     1       9.760   4.796   5.607  0.00  0.00    +0.015 A 
ATOM     23  C   UNL     1       9.792   4.926   6.933  0.00  0.00    +0.071 A 
ENDROOT
BRANCH  14  13
ATOM     13  C   UNL     1       9.664   9.928   4.773  0.00  0.00    +0.075 C 
ATOM     15  C   UNL     1       8.803   8.709   5.105  0.00  0.00    +0.013 C 
ATOM     16  C   UNL     1       8.861  11.226   4.875  0.00  0.00    +0.013 C 
ATOM     18  C   UNL     1       7.545   8.660   4.242  0.00  0.00    +0.001 C 
ATOM     19  C   UNL     1       7.601  11.175   4.015  0.00  0.00    +0.001 C 
ATOM     21  C   UNL     1       6.744   9.955   4.344  0.00  0.00    +0.000 C 
ENDBRANCH  14  13
BRANCH  17  24
ATOM     24  C   UNL     1      10.598   5.279   3.276  0.00  0.00    -0.016 A 
ATOM     25  C   UNL     1       9.898   6.208   2.507  0.00  0.00    +0.012 A 
ATOM     26  C   UNL     1      11.192   4.173   2.666  0.00  0.00    +0.012 A 
ATOM     27  C   UNL     1       9.793   6.033   1.126  0.00  0.00    +0.046 A 
ATOM     28  C   UNL     1      11.086   3.998   1.286  0.00  0.00    +0.046 A 
ATOM     29  C   UNL     1      10.387   4.927   0.516  0.00  0.00    +0.120 A 
BRANCH  29   3
ATOM      3  O   UNL     1      10.283   4.757  -0.830  0.00  0.00    -0.495 OA
ATOM     30  C   UNL     1      11.271   3.941  -1.460  0.00  0.00    +0.277 C 
ENDBRANCH  29   3
ENDBRANCH  17  24
TORSDOF 3
ENDMDL
MODEL 4
REMARK VINA RESULT:      -6.9      2.540      5.581
REMARK  Name = 40779087
REMARK  4 active torsions:
REMARK  status: ('A' for Active; 'I' for Inactive)
REMARK    1  A    between atoms: O_3  and  C_29
REMARK    2  A    between atoms: O_3  and  C_30
REMARK    3  A    between atoms: C_13  and  C_14
REMARK    4  A    between atoms: C_17  and  C_24
REMARK                            x       y       z     vdW  Elec       q    Type
REMARK                         _______ _______ _______ _____ _____    ______ ____
ROOT
ATOM      1  O   UNL     1      14.554   6.315  20.685  0.00  0.00    -0.275 OA
ATOM      2  O   UNL     1      11.210  10.089  22.205  0.00  0.00    -0.268 OA
ATOM      4  N   UNL     1      14.088   7.718  18.892  0.00  0.00    -0.300 N 
ATOM      5  N   UNL     1      12.218   9.995  20.093  0.00  0.00    -0.311 N 
ATOM      6  C   UNL     1      11.674   8.122  18.430  0.00  0.00    +0.027 C 
ATOM      7  C   UNL     1      13.327   9.843  17.842  0.00  0.00    +0.054 C 
ATOM      8  C   UNL     1      12.050   9.148  17.373  0.00  0.00    +0.018 C 
ATOM      9  C   UNL     1      12.798   7.088  18.613  0.00  0.00    +0.113 C 
ATOM     10  C   UNL     1      14.460   8.802  17.973  0.00  0.00    +0.117 C 
ATOM     11  C   UNL     1      11.359   8.859  19.732  0.00  0.00    +0.130 C 
ATOM     12  C   UNL     1      13.119  10.569  19.174  0.00  0.00    +0.034 A 
ATOM     14  C   UNL     1      14.887   7.229  19.925  0.00  0.00    +0.219 C 
ATOM     17  C   UNL     1      13.781  11.710  19.498  0.00  0.00    +0.002 A 
ATOM     20  C   UNL     1      11.993  10.541  21.369  0.00  0.00    +0.252 A 
ATOM     22  C   UNL     1      13.577  12.300  20.807  0.00  0.00    +0.015 A 
ATOM     23  C   UNL     1      12.756  11.764  21.710  0.00  0.00    +0.071 A 
ENDROOT
BRANCH  14  13
ATOM     13  C   UNL     1      16.224   7.878  20.105  0.00  0.00    +0.075 C 
ATOM     15  C   UNL     1      16.094   9.091  21.028  0.00  0.00    +0.013 C 
ATOM     16  C   UNL     1      17.213   6.852  20.663  0.00  0.00    +0.013 C 
ATOM     18  C   UNL     1      17.454   9.721  21.320  0.00  0.00    +0.001 C 
ATOM     19  C   UNL     1      18.570   7.484  20.959  0.00  0.00    +0.001 C 
ATOM     21  C   UNL     1      18.439   8.696  21.877  0.00  0.00    +0.000 C 
ENDBRANCH  14  13
BRANCH  17  24
ATOM     24  C   UNL     1      14.721  12.359  18.558  0.00  0.00    -0.016 A 
ATOM     25  C   UNL     1      14.234  13.166  17.530  0.00  0.00    +0.012 A 
ATOM     26  C   UNL     1      16.095  12.163  18.699  0.00  0.00    +0.012 A 
ATOM     27  C   UNL     1      15.121  13.779  16.644  0.00  0.00    +0.046 A 
ATOM     28  C   UNL     1      16.982  12.775  17.812  0.00  0.00    +0.046 A 
ATOM     29  C   UNL     1      16.495  13.582  16.785  0.00  0.00    +0.120 A 
BRANCH  29   3
ATOM      3  O   UNL     1      17.359  14.179  15.920  0.00  0.00    -0.495 OA
ATOM     30  C   UNL     1      18.349  13.350  15.313  0.00  0.00    +0.277 C 
ENDBRANCH  29   3
ENDBRANCH  17  24
TORSDOF 3
ENDMDL
MODEL 5
REMARK VINA RESULT:      -6.7     27.614     29.586
REMARK  Name = 40779087
REMARK  4 active torsions:
REMARK  status: ('A' for Active; 'I' for Inactive)
REMARK    1  A    between atoms: O_3  and  C_29
REMARK    2  A    between atoms: O_3  and  C_30
REMARK    3  A    between atoms: C_13  and  C_14
REMARK    4  A    between atoms: C_17  and  C_24
REMARK                            x       y       z     vdW  Elec       q    Type
REMARK                         _______ _______ _______ _____ _____    ______ ____
ROOT
ATOM      1  O   UNL     1      -8.298 -10.290  18.955  0.00  0.00    -0.275 OA
ATOM      2  O   UNL     1      -7.021 -14.976  16.918  0.00  0.00    -0.268 OA
ATOM      4  N   UNL     1      -6.322 -10.106  17.747  0.00  0.00    -0.300 N 
ATOM      5  N   UNL     1      -5.864 -12.988  16.476  0.00  0.00    -0.311 N 
ATOM      6  C   UNL     1      -4.550 -11.765  18.307  0.00  0.00    +0.027 C 
ATOM      7  C   UNL     1      -4.659 -10.825  16.039  0.00  0.00    +0.054 C 
ATOM      8  C   UNL     1      -3.705 -11.249  17.154  0.00  0.00    +0.018 C 
ATOM      9  C   UNL     1      -5.504 -10.672  18.819  0.00  0.00    +0.113 C 
ATOM     10  C   UNL     1      -5.576  -9.693  16.550  0.00  0.00    +0.117 C 
ATOM     11  C   UNL     1      -5.307 -13.008  17.836  0.00  0.00    +0.130 C 
ATOM     12  C   UNL     1      -5.500 -12.002  15.537  0.00  0.00    +0.034 A 
ATOM     14  C   UNL     1      -7.692  -9.936  17.940  0.00  0.00    +0.219 C 
ATOM     17  C   UNL     1      -5.919 -12.107  14.249  0.00  0.00    +0.002 A 
ATOM     20  C   UNL     1      -6.683 -14.081  16.143  0.00  0.00    +0.252 A 
ATOM     22  C   UNL     1      -6.769 -13.219  13.870  0.00  0.00    +0.015 A 
ATOM     23  C   UNL     1      -7.155 -14.151  14.741  0.00  0.00    +0.071 A 
ENDROOT
BRANCH  14  13
ATOM     13  C   UNL     1      -8.452  -9.285  16.826  0.00  0.00    +0.075 C 
ATOM     15  C   UNL     1      -9.008 -10.353  15.882  0.00  0.00    +0.013 C 
ATOM     16  C   UNL     1      -9.568  -8.420  17.413  0.00  0.00    +0.013 C 
ATOM     18  C   UNL     1      -9.876  -9.736  14.788  0.00  0.00    +0.001 C 
ATOM     19  C   UNL     1     -10.438  -7.808  16.319  0.00  0.00    +0.001 C 
ATOM     21  C   UNL     1     -10.990  -8.873  15.375  0.00  0.00    +0.000 C 
ENDBRANCH  14  13
BRANCH  17  24
ATOM     24  C   UNL     1      -5.546 -11.107  13.224  0.00  0.00    -0.016 A 
ATOM     25  C   UNL     1      -4.335 -11.225  12.543  0.00  0.00    +0.012 A 
ATOM     26  C   UNL     1      -6.406 -10.046  12.941  0.00  0.00    +0.012 A 
ATOM     27  C   UNL     1      -3.984 -10.282  11.577  0.00  0.00    +0.046 A 
ATOM     28  C   UNL     1      -6.055  -9.103  11.975  0.00  0.00    +0.046 A 
ATOM     29  C   UNL     1      -4.844  -9.220  11.293  0.00  0.00    +0.120 A 
BRANCH  29   3
ATOM      3  O   UNL     1      -4.500  -8.301  10.351  0.00  0.00    -0.495 OA
ATOM     30  C   UNL     1      -4.082  -8.797   9.080  0.00  0.00    +0.277 C 
ENDBRANCH  29   3
ENDBRANCH  17  24
TORSDOF 3
ENDMDL
MODEL 6
REMARK VINA RESULT:      -6.7      2.463      3.802
REMARK  Name = 40779087
REMARK  4 active torsions:
REMARK  status: ('A' for Active; 'I' for Inactive)
REMARK    1  A    between atoms: O_3  and  C_29
REMARK    2  A    between atoms: O_3  and  C_30
REMARK    3  A    between atoms: C_13  and  C_14
REMARK    4  A    between atoms: C_17  and  C_24
REMARK                            x       y       z     vdW  Elec       q    Type
REMARK                         _______ _______ _______ _____ _____    ______ ____
ROOT
ATOM      1  O   UNL     1      10.546   8.664  21.248  0.00  0.00    -0.275 OA
ATOM      2  O   UNL     1      13.076   9.585  16.722  0.00  0.00    -0.268 OA
ATOM      4  N   UNL     1      12.785   8.085  21.471  0.00  0.00    -0.300 N 
ATOM      5  N   UNL     1      14.124   8.897  18.701  0.00  0.00    -0.311 N 
ATOM      6  C   UNL     1      13.695   6.578  19.709  0.00  0.00    +0.027 C 
ATOM      7  C   UNL     1      15.195   8.155  20.852  0.00  0.00    +0.054 C 
ATOM      8  C   UNL     1      15.088   6.736  20.297  0.00  0.00    +0.018 C 
ATOM      9  C   UNL     1      12.619   6.804  20.784  0.00  0.00    +0.113 C 
ATOM     10  C   UNL     1      14.142   8.352  21.964  0.00  0.00    +0.117 C 
ATOM     11  C   UNL     1      13.548   7.554  18.540  0.00  0.00    +0.130 C 
ATOM     12  C   UNL     1      15.008   9.206  19.754  0.00  0.00    +0.034 A 
ATOM     14  C   UNL     1      11.678   8.910  21.671  0.00  0.00    +0.219 C 
ATOM     17  C   UNL     1      15.634  10.412  19.778  0.00  0.00    +0.002 A 
ATOM     20  C   UNL     1      13.828   9.807  17.671  0.00  0.00    +0.252 A 
ATOM     22  C   UNL     1      15.352  11.378  18.735  0.00  0.00    +0.015 A 
ATOM     23  C   UNL     1      14.498  11.127  17.743  0.00  0.00    +0.071 A 
ENDROOT
BRANCH  14  13
ATOM     13  C   UNL     1      11.912  10.171  22.444  0.00  0.00    +0.075 C 
ATOM     15  C   UNL     1      12.107  11.344  21.482  0.00  0.00    +0.013 C 
ATOM     16  C   UNL     1      10.732  10.411  23.388  0.00  0.00    +0.013 C 
ATOM     18  C   UNL     1      12.246  12.666  22.231  0.00  0.00    +0.001 C 
ATOM     19  C   UNL     1      10.870  11.735  24.133  0.00  0.00    +0.001 C 
ATOM     21  C   UNL     1      11.068  12.905  23.173  0.00  0.00    +0.000 C 
ENDBRANCH  14  13
BRANCH  17  24
ATOM     24  C   UNL     1      16.585  10.774  20.853  0.00  0.00    -0.016 A 
ATOM     25  C   UNL     1      16.163  11.569  21.918  0.00  0.00    +0.012 A 
ATOM     26  C   UNL     1      17.903  10.321  20.799  0.00  0.00    +0.012 A 
ATOM     27  C   UNL     1      17.060  11.910  22.931  0.00  0.00    +0.046 A 
ATOM     28  C   UNL     1      18.800  10.663  21.812  0.00  0.00    +0.046 A 
ATOM     29  C   UNL     1      18.378  11.457  22.878  0.00  0.00    +0.120 A 
BRANCH  29   3
ATOM      3  O   UNL     1      19.252  11.791  23.866  0.00  0.00    -0.495 OA
ATOM     30  C   UNL     1      18.990  12.994  24.587  0.00  0.00    +0.277 C 
ENDBRANCH  29   3
ENDBRANCH  17  24
TORSDOF 3
ENDMDL
MODEL 7
REMARK VINA RESULT:      -6.4     25.322     28.176
REMARK  Name = 40779087
REMARK  4 active torsions:
REMARK  status: ('A' for Active; 'I' for Inactive)
REMARK    1  A    between atoms: O_3  and  C_29
REMARK    2  A    between atoms: O_3  and  C_30
REMARK    3  A    between atoms: C_13  and  C_14
REMARK    4  A    between atoms: C_17  and  C_24
REMARK                            x       y       z     vdW  Elec       q    Type
REMARK                         _______ _______ _______ _____ _____    ______ ____
ROOT
ATOM      1  O   UNL     1     -14.190  10.914  14.685  0.00  0.00    -0.275 OA
ATOM      2  O   UNL     1     -10.765  12.886  18.166  0.00  0.00    -0.268 OA
ATOM      4  N   UNL     1     -13.037   9.181  15.717  0.00  0.00    -0.300 N 
ATOM      5  N   UNL     1     -11.185  10.600  17.882  0.00  0.00    -0.311 N 
ATOM      6  C   UNL     1     -10.554   9.379  15.717  0.00  0.00    +0.027 C 
ATOM      7  C   UNL     1     -11.674   8.158  17.532  0.00  0.00    +0.054 C 
ATOM      8  C   UNL     1     -10.458   8.152  16.607  0.00  0.00    +0.018 C 
ATOM      9  C   UNL     1     -11.847   9.351  14.884  0.00  0.00    +0.113 C 
ATOM     10  C   UNL     1     -12.962   8.079  16.686  0.00  0.00    +0.117 C 
ATOM     11  C   UNL     1     -10.470  10.627  16.598  0.00  0.00    +0.130 C 
ATOM     12  C   UNL     1     -11.700   9.405  18.421  0.00  0.00    +0.034 A 
ATOM     14  C   UNL     1     -14.150   9.994  15.506  0.00  0.00    +0.219 C 
ATOM     17  C   UNL     1     -12.218   9.398  19.677  0.00  0.00    +0.002 A 
ATOM     20  C   UNL     1     -11.212  11.818  18.583  0.00  0.00    +0.252 A 
ATOM     22  C   UNL     1     -12.266  10.636  20.430  0.00  0.00    +0.015 A 
ATOM     23  C   UNL     1     -11.815  11.789  19.936  0.00  0.00    +0.071 A 
ENDROOT
BRANCH  14  13
ATOM     13  C   UNL     1     -15.355   9.714  16.349  0.00  0.00    +0.075 C 
ATOM     15  C   UNL     1     -15.257  10.479  17.670  0.00  0.00    +0.013 C 
ATOM     16  C   UNL     1     -16.616  10.098  15.572  0.00  0.00    +0.013 C 
ATOM     18  C   UNL     1     -16.515  10.302  18.516  0.00  0.00    +0.001 C 
ATOM     19  C   UNL     1     -17.873   9.925  16.420  0.00  0.00    +0.001 C 
ATOM     21  C   UNL     1     -17.772  10.686  17.739  0.00  0.00    +0.000 C 
ENDBRANCH  14  13
BRANCH  17  24
ATOM     24  C   UNL     1     -12.753   8.164  20.293  0.00  0.00    -0.016 A 
ATOM     25  C   UNL     1     -14.130   7.943  20.330  0.00  0.00    +0.012 A 
ATOM     26  C   UNL     1     -11.880   7.221  20.838  0.00  0.00    +0.012 A 
ATOM     27  C   UNL     1     -14.633   6.778  20.911  0.00  0.00    +0.046 A 
ATOM     28  C   UNL     1     -12.384   6.058  21.419  0.00  0.00    +0.046 A 
ATOM     29  C   UNL     1     -13.761   5.836  21.456  0.00  0.00    +0.120 A 
BRANCH  29   3
ATOM      3  O   UNL     1     -14.253   4.701  22.022  0.00  0.00    -0.495 OA
ATOM     30  C   UNL     1     -14.614   4.766  23.401  0.00  0.00    +0.277 C 
ENDBRANCH  29   3
ENDBRANCH  17  24
TORSDOF 3
ENDMDL
MODEL 8
REMARK VINA RESULT:      -6.3     25.142     28.570
REMARK  Name = 40779087
REMARK  4 active torsions:
REMARK  status: ('A' for Active; 'I' for Inactive)
REMARK    1  A    between atoms: O_3  and  C_29
REMARK    2  A    between atoms: O_3  and  C_30
REMARK    3  A    between atoms: C_13  and  C_14
REMARK    4  A    between atoms: C_17  and  C_24
REMARK                            x       y       z     vdW  Elec       q    Type
REMARK                         _______ _______ _______ _____ _____    ______ ____
ROOT
ATOM      1  O   UNL     1     -12.069   9.629  15.045  0.00  0.00    -0.275 OA
ATOM      2  O   UNL     1     -13.145  13.085  18.870  0.00  0.00    -0.268 OA
ATOM      4  N   UNL     1     -11.606   8.677  17.113  0.00  0.00    -0.300 N 
ATOM      5  N   UNL     1     -12.503  10.864  19.244  0.00  0.00    -0.311 N 
ATOM      6  C   UNL     1     -10.160  10.024  18.628  0.00  0.00    +0.027 C 
ATOM      7  C   UNL     1     -11.807   8.472  19.586  0.00  0.00    +0.054 C 
ATOM      8  C   UNL     1     -10.387   9.014  19.741  0.00  0.00    +0.018 C 
ATOM      9  C   UNL     1     -10.323   9.365  17.248  0.00  0.00    +0.113 C 
ATOM     10  C   UNL     1     -11.943   7.769  18.218  0.00  0.00    +0.117 C 
ATOM     11  C   UNL     1     -11.133  11.188  18.823  0.00  0.00    +0.130 C 
ATOM     12  C   UNL     1     -12.852   9.583  19.716  0.00  0.00    +0.034 A 
ATOM     14  C   UNL     1     -12.371   8.861  15.962  0.00  0.00    +0.219 C 
ATOM     17  C   UNL     1     -14.089   9.369  20.237  0.00  0.00    +0.002 A 
ATOM     20  C   UNL     1     -13.402  11.945  19.257  0.00  0.00    +0.252 A 
ATOM     22  C   UNL     1     -15.045  10.459  20.264  0.00  0.00    +0.015 A 
ATOM     23  C   UNL     1     -14.754  11.673  19.797  0.00  0.00    +0.071 A 
ENDROOT
BRANCH  14  13
ATOM     13  C   UNL     1     -13.639   8.069  15.864  0.00  0.00    +0.075 C 
ATOM     15  C   UNL     1     -14.784   8.836  16.526  0.00  0.00    +0.013 C 
ATOM     16  C   UNL     1     -13.938   7.775  14.393  0.00  0.00    +0.013 C 
ATOM     18  C   UNL     1     -16.116   8.109  16.358  0.00  0.00    +0.001 C 
ATOM     19  C   UNL     1     -15.272   7.053  14.225  0.00  0.00    +0.001 C 
ATOM     21  C   UNL     1     -16.414   7.816  14.889  0.00  0.00    +0.000 C 
ENDBRANCH  14  13
BRANCH  17  24
ATOM     24  C   UNL     1     -14.495   8.047  20.763  0.00  0.00    -0.016 A 
ATOM     25  C   UNL     1     -14.103   7.655  22.043  0.00  0.00    +0.012 A 
ATOM     26  C   UNL     1     -15.267   7.191  19.977  0.00  0.00    +0.012 A 
ATOM     27  C   UNL     1     -14.486   6.409  22.538  0.00  0.00    +0.046 A 
ATOM     28  C   UNL     1     -15.650   5.944  20.472  0.00  0.00    +0.046 A 
ATOM     29  C   UNL     1     -15.259   5.553  21.752  0.00  0.00    +0.120 A 
BRANCH  29   3
ATOM      3  O   UNL     1     -15.632   4.337  22.236  0.00  0.00    -0.495 OA
ATOM     30  C   UNL     1     -15.554   4.147  23.648  0.00  0.00    +0.277 C 
ENDBRANCH  29   3
ENDBRANCH  17  24
TORSDOF 3
ENDMDL
MODEL 9
REMARK VINA RESULT:      -6.3     14.000     17.365
REMARK  Name = 40779087
REMARK  4 active torsions:
REMARK  status: ('A' for Active; 'I' for Inactive)
REMARK    1  A    between atoms: O_3  and  C_29
REMARK    2  A    between atoms: O_3  and  C_30
REMARK    3  A    between atoms: C_13  and  C_14
REMARK    4  A    between atoms: C_17  and  C_24
REMARK                            x       y       z     vdW  Elec       q    Type
REMARK                         _______ _______ _______ _____ _____    ______ ____
ROOT
ATOM      1  O   UNL     1      12.939   9.875   1.143  0.00  0.00    -0.275 OA
ATOM      2  O   UNL     1      10.886   5.271  -0.381  0.00  0.00    -0.268 OA
ATOM      4  N   UNL     1      11.163   9.312   2.531  0.00  0.00    -0.300 N 
ATOM      5  N   UNL     1      10.220   6.440   1.537  0.00  0.00    -0.311 N 
ATOM      6  C   UNL     1       9.037   8.709   1.381  0.00  0.00    +0.027 C 
ATOM      7  C   UNL     1       9.545   7.738   3.581  0.00  0.00    +0.054 C 
ATOM      8  C   UNL     1       8.427   8.320   2.717  0.00  0.00    +0.018 C 
ATOM      9  C   UNL     1      10.151   9.753   1.571  0.00  0.00    +0.113 C 
ATOM     10  C   UNL     1      10.632   8.812   3.806  0.00  0.00    +0.117 C 
ATOM     11  C   UNL     1       9.553   7.443   0.695  0.00  0.00    +0.130 C 
ATOM     12  C   UNL     1      10.159   6.489   2.943  0.00  0.00    +0.034 A 
ATOM     14  C   UNL     1      12.515   9.451   2.221  0.00  0.00    +0.219 C 
ATOM     17  C   UNL     1      10.659   5.461   3.678  0.00  0.00    +0.002 A 
ATOM     20  C   UNL     1      10.816   5.371   0.844  0.00  0.00    +0.252 A 
ATOM     22  C   UNL     1      11.284   4.343   2.999  0.00  0.00    +0.015 A 
ATOM     23  C   UNL     1      11.385   4.282   1.671  0.00  0.00    +0.071 A 
ENDROOT
BRANCH  14  13
ATOM     13  C   UNL     1      13.492   9.044   3.281  0.00  0.00    +0.075 C 
ATOM     15  C   UNL     1      13.861   7.569   3.111  0.00  0.00    +0.013 C 
ATOM     16  C   UNL     1      14.728   9.943   3.201  0.00  0.00    +0.013 C 
ATOM     18  C   UNL     1      14.933   7.141   4.110  0.00  0.00    +0.001 C 
ATOM     19  C   UNL     1      15.801   9.511   4.197  0.00  0.00    +0.001 C 
ATOM     21  C   UNL     1      16.165   8.039   4.030  0.00  0.00    +0.000 C 
ENDBRANCH  14  13
BRANCH  17  24
ATOM     24  C   UNL     1      10.600   5.459   5.157  0.00  0.00    -0.016 A 
ATOM     25  C   UNL     1      11.474   6.261   5.891  0.00  0.00    +0.012 A 
ATOM     26  C   UNL     1       9.670   4.655   5.817  0.00  0.00    +0.012 A 
ATOM     27  C   UNL     1      11.418   6.259   7.285  0.00  0.00    +0.046 A 
ATOM     28  C   UNL     1       9.615   4.653   7.210  0.00  0.00    +0.046 A 
ATOM     29  C   UNL     1      10.488   5.455   7.944  0.00  0.00    +0.120 A 
BRANCH  29   3
ATOM      3  O   UNL     1      10.435   5.453   9.304  0.00  0.00    -0.495 OA
ATOM     30  C   UNL     1       9.396   4.687   9.913  0.00  0.00    +0.277 C 
ENDBRANCH  29   3
ENDBRANCH  17  24
TORSDOF 3
ENDMDL
MODEL 10
REMARK VINA RESULT:      -6.2     26.721     29.876
REMARK  Name = 40779087
REMARK  4 active torsions:
REMARK  status: ('A' for Active; 'I' for Inactive)
REMARK    1  A    between atoms: O_3  and  C_29
REMARK    2  A    between atoms: O_3  and  C_30
REMARK    3  A    between atoms: C_13  and  C_14
REMARK    4  A    between atoms: C_17  and  C_24
REMARK                            x       y       z     vdW  Elec       q    Type
REMARK                         _______ _______ _______ _____ _____    ______ ____
ROOT
ATOM      1  O   UNL     1      -9.276 -13.795  17.459  0.00  0.00    -0.275 OA
ATOM      2  O   UNL     1      -5.995 -11.498  20.878  0.00  0.00    -0.268 OA
ATOM      4  N   UNL     1      -8.184 -12.024  16.426  0.00  0.00    -0.300 N 
ATOM      5  N   UNL     1      -6.146 -10.928  18.612  0.00  0.00    -0.311 N 
ATOM      6  C   UNL     1      -8.259  -9.849  17.638  0.00  0.00    +0.027 C 
ATOM      7  C   UNL     1      -6.352 -10.356  16.172  0.00  0.00    +0.054 C 
ATOM      8  C   UNL     1      -7.307  -9.249  16.617  0.00  0.00    +0.018 C 
ATOM      9  C   UNL     1      -9.055 -11.014  17.026  0.00  0.00    +0.113 C 
ATOM     10  C   UNL     1      -7.160 -11.496  15.514  0.00  0.00    +0.117 C 
ATOM     11  C   UNL     1      -7.447 -10.291  18.857  0.00  0.00    +0.130 C 
ATOM     12  C   UNL     1      -5.530 -10.898  17.345  0.00  0.00    +0.034 A 
ATOM     14  C   UNL     1      -8.409 -13.375  16.689  0.00  0.00    +0.219 C 
ATOM     17  C   UNL     1      -4.263 -11.365  17.198  0.00  0.00    +0.002 A 
ATOM     20  C   UNL     1      -5.510 -11.459  19.747  0.00  0.00    +0.252 A 
ATOM     22  C   UNL     1      -3.576 -11.923  18.346  0.00  0.00    +0.015 A 
ATOM     23  C   UNL     1      -4.143 -11.993  19.550  0.00  0.00    +0.071 A 
ENDROOT
BRANCH  14  13
ATOM     13  C   UNL     1      -7.521 -14.353  15.983  0.00  0.00    +0.075 C 
ATOM     15  C   UNL     1      -6.242 -14.573  16.793  0.00  0.00    +0.013 C 
ATOM     16  C   UNL     1      -8.282 -15.663  15.770  0.00  0.00    +0.013 C 
ATOM     18  C   UNL     1      -5.355 -15.642  16.159  0.00  0.00    +0.001 C 
ATOM     19  C   UNL     1      -7.394 -16.732  15.141  0.00  0.00    +0.001 C 
ATOM     21  C   UNL     1      -6.116 -16.949  15.947  0.00  0.00    +0.000 C 
ENDBRANCH  14  13
BRANCH  17  24
ATOM     24  C   UNL     1      -3.569 -11.336  15.891  0.00  0.00    -0.016 A 
ATOM     25  C   UNL     1      -3.856 -12.302  14.928  0.00  0.00    +0.012 A 
ATOM     26  C   UNL     1      -2.626 -10.343  15.624  0.00  0.00    +0.012 A 
ATOM     27  C   UNL     1      -3.201 -12.275  13.696  0.00  0.00    +0.046 A 
ATOM     28  C   UNL     1      -1.971 -10.316  14.393  0.00  0.00    +0.046 A 
ATOM     29  C   UNL     1      -2.258 -11.282  13.429  0.00  0.00    +0.120 A 
BRANCH  29   3
ATOM      3  O   UNL     1      -1.620 -11.256  12.227  0.00  0.00    -0.495 OA
ATOM     30  C   UNL     1      -1.684 -10.041  11.483  0.00  0.00    +0.277 C 
ENDBRANCH  29   3
ENDBRANCH  17  24
TORSDOF 3
ENDMDL
