MODEL 1
REMARK VINA RESULT:      -6.8      0.000      0.000
REMARK  Name = 40779167
REMARK  8 active torsions:
REMARK  status: ('A' for Active; 'I' for Inactive)
REMARK    1  A    between atoms: O_2  and  C_21
REMARK    2  A    between atoms: O_2  and  C_27
REMARK    3  A    between atoms: N_4  and  C_18
REMARK    4  A    between atoms: N_5  and  C_15
REMARK    5  A    between atoms: C_8  and  C_14
REMARK    6  A    between atoms: C_9  and  C_15
REMARK    7  A    between atoms: C_17  and  C_20
REMARK    8  A    between atoms: C_19  and  C_21
REMARK                            x       y       z     vdW  Elec       q    Type
REMARK                         _______ _______ _______ _____ _____    ______ ____
ROOT
ATOM      3  N   UNL     1      12.999   7.149  21.314  0.00  0.00    -0.297 NA
ATOM      7  C   UNL     1      11.392   8.899  20.247  0.00  0.00    +0.002 C 
ATOM      8  C   UNL     1      12.202   8.161  19.145  0.00  0.00    +0.055 C 
ATOM      9  C   UNL     1      13.158   8.463  21.990  0.00  0.00    +0.074 C 
ATOM     10  C   UNL     1      12.369   9.559  21.242  0.00  0.00    +0.024 C 
ATOM     11  C   UNL     1      10.613   7.817  21.027  0.00  0.00    +0.019 C 
ATOM     12  C   UNL     1      13.272   7.289  19.862  0.00  0.00    +0.094 C 
ATOM     13  C   UNL     1      11.590   6.719  21.481  0.00  0.00    +0.085 C 
ENDROOT
BRANCH   8  14
ATOM      4  N   UNL     1      12.141   9.214  16.837  0.00  0.00    -0.270 N 
ATOM      6  N   UNL     1      12.836   9.969  15.967  0.00  0.00    -0.171 NA
ATOM     14  C   UNL     1      12.794   8.988  18.013  0.00  0.00    +0.044 A 
ATOM     16  C   UNL     1      13.999   9.639  17.905  0.00  0.00    +0.053 A 
ATOM     17  C   UNL     1      13.969  10.226  16.626  0.00  0.00    +0.093 A 
ATOM     18  C   UNL     1      10.831   8.734  16.464  0.00  0.00    +0.172 C 
BRANCH  17  20
ATOM     20  C   UNL     1      15.003  11.023  16.020  0.00  0.00    +0.002 A 
ATOM     22  C   UNL     1      15.628  12.030  16.756  0.00  0.00    +0.010 A 
ATOM     23  C   UNL     1      15.380  10.790  14.698  0.00  0.00    +0.010 A 
ATOM     24  C   UNL     1      16.629  12.804  16.170  0.00  0.00    +0.001 A 
ATOM     25  C   UNL     1      16.381  11.564  14.111  0.00  0.00    +0.001 A 
ATOM     26  C   UNL     1      17.006  12.571  14.847  0.00  0.00    +0.000 A 
ENDBRANCH  17  20
ENDBRANCH   8  14
BRANCH   9  15
ATOM     15  C   UNL     1      14.626   8.847  22.182  0.00  0.00    +0.123 C 
BRANCH  15   5
ATOM      1  O   UNL     1      17.110   8.831  20.700  0.00  0.00    -0.273 OA
ATOM      5  N   UNL     1      15.483   7.727  21.944  0.00  0.00    -0.312 N 
ATOM     19  C   UNL     1      16.667   7.807  21.215  0.00  0.00    +0.239 C 
ATOM     28  H   UNL     1      15.204   6.827  22.327  0.00  0.00    +0.149 HD
BRANCH  19  21
ATOM     21  C   UNL     1      17.373   6.472  21.121  0.00  0.00    +0.255 C 
BRANCH  21   2
ATOM      2  O   UNL     1      18.177   6.413  19.962  0.00  0.00    -0.374 OA
ATOM     27  C   UNL     1      17.557   5.662  18.922  0.00  0.00    +0.194 C 
ENDBRANCH  21   2
ENDBRANCH  19  21
ENDBRANCH  15   5
ENDBRANCH   9  15
TORSDOF 6
ENDMDL
MODEL 2
REMARK VINA RESULT:      -6.6      3.581      7.227
REMARK  Name = 40779167
REMARK  8 active torsions:
REMARK  status: ('A' for Active; 'I' for Inactive)
REMARK    1  A    between atoms: O_2  and  C_21
REMARK    2  A    between atoms: O_2  and  C_27
REMARK    3  A    between atoms: N_4  and  C_18
REMARK    4  A    between atoms: N_5  and  C_15
REMARK    5  A    between atoms: C_8  and  C_14
REMARK    6  A    between atoms: C_9  and  C_15
REMARK    7  A    between atoms: C_17  and  C_20
REMARK    8  A    between atoms: C_19  and  C_21
REMARK                            x       y       z     vdW  Elec       q    Type
REMARK                         _______ _______ _______ _____ _____    ______ ____
ROOT
ATOM      3  N   UNL     1      13.306   8.826  17.382  0.00  0.00    -0.297 NA
ATOM      7  C   UNL     1      14.226   8.446  19.789  0.00  0.00    +0.002 C 
ATOM      8  C   UNL     1      12.672   8.471  19.798  0.00  0.00    +0.055 C 
ATOM      9  C   UNL     1      14.346   9.842  17.695  0.00  0.00    +0.074 C 
ATOM     10  C   UNL     1      14.754   9.763  19.182  0.00  0.00    +0.024 C 
ATOM     11  C   UNL     1      14.647   7.307  18.836  0.00  0.00    +0.019 C 
ATOM     12  C   UNL     1      12.208   8.901  18.377  0.00  0.00    +0.094 C 
ATOM     13  C   UNL     1      13.933   7.487  17.485  0.00  0.00    +0.085 C 
ENDROOT
BRANCH   8  14
ATOM      4  N   UNL     1      11.071   8.699  21.753  0.00  0.00    -0.270 N 
ATOM      6  N   UNL     1      10.567   9.563  22.652  0.00  0.00    -0.171 NA
ATOM     14  C   UNL     1      11.974   9.258  20.897  0.00  0.00    +0.044 A 
ATOM     16  C   UNL     1      12.065  10.580  21.260  0.00  0.00    +0.053 A 
ATOM     17  C   UNL     1      11.178  10.710  22.345  0.00  0.00    +0.093 A 
ATOM     18  C   UNL     1      10.631   7.323  21.774  0.00  0.00    +0.172 C 
BRANCH  17  20
ATOM     20  C   UNL     1      10.901  11.908  23.092  0.00  0.00    +0.002 A 
ATOM     22  C   UNL     1      10.687  13.113  22.423  0.00  0.00    +0.010 A 
ATOM     23  C   UNL     1      10.848  11.867  24.485  0.00  0.00    +0.010 A 
ATOM     24  C   UNL     1      10.420  14.276  23.146  0.00  0.00    +0.001 A 
ATOM     25  C   UNL     1      10.581  13.028  25.209  0.00  0.00    +0.001 A 
ATOM     26  C   UNL     1      10.366  14.233  24.539  0.00  0.00    +0.000 A 
ENDBRANCH  17  20
ENDBRANCH   8  14
BRANCH   9  15
ATOM     15  C   UNL     1      13.920  11.256  17.295  0.00  0.00    +0.123 C 
BRANCH  15   5
ATOM      1  O   UNL     1      13.158  10.791  14.544  0.00  0.00    -0.273 OA
ATOM      5  N   UNL     1      14.615  11.686  16.122  0.00  0.00    -0.312 N 
ATOM     19  C   UNL     1      14.176  11.417  14.827  0.00  0.00    +0.239 C 
ATOM     28  H   UNL     1      15.476  12.212  16.247  0.00  0.00    +0.149 HD
BRANCH  19  21
ATOM     21  C   UNL     1      15.103  11.992  13.778  0.00  0.00    +0.255 C 
BRANCH  21   2
ATOM      2  O   UNL     1      14.625  11.707  12.480  0.00  0.00    -0.374 OA
ATOM     27  C   UNL     1      14.415  12.892  11.718  0.00  0.00    +0.194 C 
ENDBRANCH  21   2
ENDBRANCH  19  21
ENDBRANCH  15   5
ENDBRANCH   9  15
TORSDOF 6
ENDMDL
MODEL 3
REMARK VINA RESULT:      -6.6     26.099     28.582
REMARK  Name = 40779167
REMARK  8 active torsions:
REMARK  status: ('A' for Active; 'I' for Inactive)
REMARK    1  A    between atoms: O_2  and  C_21
REMARK    2  A    between atoms: O_2  and  C_27
REMARK    3  A    between atoms: N_4  and  C_18
REMARK    4  A    between atoms: N_5  and  C_15
REMARK    5  A    between atoms: C_8  and  C_14
REMARK    6  A    between atoms: C_9  and  C_15
REMARK    7  A    between atoms: C_17  and  C_20
REMARK    8  A    between atoms: C_19  and  C_21
REMARK                            x       y       z     vdW  Elec       q    Type
REMARK                         _______ _______ _______ _____ _____    ______ ____
ROOT
ATOM      3  N   UNL     1      -6.326 -10.330  17.814  0.00  0.00    -0.297 NA
ATOM      7  C   UNL     1      -4.564 -12.110  17.099  0.00  0.00    +0.002 C 
ATOM      8  C   UNL     1      -4.222 -10.726  16.481  0.00  0.00    +0.055 C 
ATOM      9  C   UNL     1      -7.011 -11.542  17.291  0.00  0.00    +0.074 C 
ATOM     10  C   UNL     1      -5.989 -12.520  16.673  0.00  0.00    +0.024 C 
ATOM     11  C   UNL     1      -4.586 -11.919  18.631  0.00  0.00    +0.019 C 
ATOM     12  C   UNL     1      -5.416  -9.776  16.782  0.00  0.00    +0.094 C 
ATOM     13  C   UNL     1      -5.508 -10.739  18.981  0.00  0.00    +0.085 C 
ENDROOT
BRANCH   8  14
ATOM      4  N   UNL     1      -2.496 -10.597  14.625  0.00  0.00    -0.270 N 
ATOM      6  N   UNL     1      -2.334 -10.564  13.290  0.00  0.00    -0.171 NA
ATOM     14  C   UNL     1      -3.799 -10.677  15.019  0.00  0.00    +0.044 A 
ATOM     16  C   UNL     1      -4.541 -10.696  13.864  0.00  0.00    +0.053 A 
ATOM     17  C   UNL     1      -3.586 -10.625  12.831  0.00  0.00    +0.093 A 
ATOM     18  C   UNL     1      -1.331 -10.547  15.478  0.00  0.00    +0.172 C 
BRANCH  17  20
ATOM     20  C   UNL     1      -3.848 -10.612  11.416  0.00  0.00    +0.002 A 
ATOM     22  C   UNL     1      -3.960  -9.397  10.739  0.00  0.00    +0.010 A 
ATOM     23  C   UNL     1      -3.989 -11.812  10.720  0.00  0.00    +0.010 A 
ATOM     24  C   UNL     1      -4.215  -9.382   9.368  0.00  0.00    +0.001 A 
ATOM     25  C   UNL     1      -4.243 -11.799   9.349  0.00  0.00    +0.001 A 
ATOM     26  C   UNL     1      -4.356 -10.583   8.673  0.00  0.00    +0.000 A 
ENDBRANCH  17  20
ENDBRANCH   8  14
BRANCH   9  15
ATOM     15  C   UNL     1      -8.136 -11.199  16.312  0.00  0.00    +0.123 C 
BRANCH  15   5
ATOM      1  O   UNL     1      -9.140  -9.089  14.608  0.00  0.00    -0.273 OA
ATOM      5  N   UNL     1      -8.824 -10.014  16.720  0.00  0.00    -0.312 N 
ATOM     19  C   UNL     1      -9.276  -9.043  15.828  0.00  0.00    +0.239 C 
ATOM     28  H   UNL     1      -8.986  -9.878  17.715  0.00  0.00    +0.149 HD
BRANCH  19  21
ATOM     21  C   UNL     1      -9.971  -7.898  16.532  0.00  0.00    +0.255 C 
BRANCH  21   2
ATOM      2  O   UNL     1     -10.023  -6.759  15.700  0.00  0.00    -0.374 OA
ATOM     27  C   UNL     1     -11.228  -6.021  15.883  0.00  0.00    +0.194 C 
ENDBRANCH  21   2
ENDBRANCH  19  21
ENDBRANCH  15   5
ENDBRANCH   9  15
TORSDOF 6
ENDMDL
MODEL 4
REMARK VINA RESULT:      -6.4     26.142     28.750
REMARK  Name = 40779167
REMARK  8 active torsions:
REMARK  status: ('A' for Active; 'I' for Inactive)
REMARK    1  A    between atoms: O_2  and  C_21
REMARK    2  A    between atoms: O_2  and  C_27
REMARK    3  A    between atoms: N_4  and  C_18
REMARK    4  A    between atoms: N_5  and  C_15
REMARK    5  A    between atoms: C_8  and  C_14
REMARK    6  A    between atoms: C_9  and  C_15
REMARK    7  A    between atoms: C_17  and  C_20
REMARK    8  A    between atoms: C_19  and  C_21
REMARK                            x       y       z     vdW  Elec       q    Type
REMARK                         _______ _______ _______ _____ _____    ______ ____
ROOT
ATOM      3  N   UNL     1      -6.338 -10.398  17.916  0.00  0.00    -0.297 NA
ATOM      7  C   UNL     1      -4.422 -12.045  17.286  0.00  0.00    +0.002 C 
ATOM      8  C   UNL     1      -4.200 -10.667  16.604  0.00  0.00    +0.055 C 
ATOM      9  C   UNL     1      -6.910 -11.689  17.448  0.00  0.00    +0.074 C 
ATOM     10  C   UNL     1      -5.802 -12.600  16.878  0.00  0.00    +0.024 C 
ATOM     11  C   UNL     1      -4.468 -11.787  18.807  0.00  0.00    +0.019 C 
ATOM     12  C   UNL     1      -5.475  -9.813  16.860  0.00  0.00    +0.094 C 
ATOM     13  C   UNL     1      -5.494 -10.678  19.101  0.00  0.00    +0.085 C 
ENDROOT
BRANCH   8  14
ATOM      4  N   UNL     1      -2.470 -10.628  14.748  0.00  0.00    -0.270 N 
ATOM      6  N   UNL     1      -2.307 -10.613  13.414  0.00  0.00    -0.171 NA
ATOM     14  C   UNL     1      -3.776 -10.648  15.143  0.00  0.00    +0.044 A 
ATOM     16  C   UNL     1      -4.517 -10.645  13.987  0.00  0.00    +0.053 A 
ATOM     17  C   UNL     1      -3.560 -10.624  12.954  0.00  0.00    +0.093 A 
ATOM     18  C   UNL     1      -1.305 -10.619  15.602  0.00  0.00    +0.172 C 
BRANCH  17  20
ATOM     20  C   UNL     1      -3.821 -10.611  11.539  0.00  0.00    +0.002 A 
ATOM     22  C   UNL     1      -3.945 -11.813  10.842  0.00  0.00    +0.010 A 
ATOM     23  C   UNL     1      -3.951  -9.398  10.863  0.00  0.00    +0.010 A 
ATOM     24  C   UNL     1      -4.197 -11.803   9.470  0.00  0.00    +0.001 A 
ATOM     25  C   UNL     1      -4.203  -9.386   9.492  0.00  0.00    +0.001 A 
ATOM     26  C   UNL     1      -4.326 -10.589   8.795  0.00  0.00    +0.000 A 
ENDBRANCH  17  20
ENDBRANCH   8  14
BRANCH   9  15
ATOM     15  C   UNL     1      -8.056 -11.493  16.453  0.00  0.00    +0.123 C 
BRANCH  15   5
ATOM      1  O   UNL     1     -10.328 -11.561  18.241  0.00  0.00    -0.273 OA
ATOM      5  N   UNL     1      -8.885 -10.393  16.839  0.00  0.00    -0.312 N 
ATOM     19  C   UNL     1      -9.966 -10.515  17.710  0.00  0.00    +0.239 C 
ATOM     28  H   UNL     1      -8.670  -9.479  16.450  0.00  0.00    +0.149 HD
BRANCH  19  21
ATOM     21  C   UNL     1     -10.664  -9.193  17.943  0.00  0.00    +0.255 C 
BRANCH  21   2
ATOM      2  O   UNL     1      -9.857  -8.119  17.509  0.00  0.00    -0.374 OA
ATOM     27  C   UNL     1     -10.569  -7.229  16.654  0.00  0.00    +0.194 C 
ENDBRANCH  21   2
ENDBRANCH  19  21
ENDBRANCH  15   5
ENDBRANCH   9  15
TORSDOF 6
ENDMDL
MODEL 5
REMARK VINA RESULT:      -6.3      3.464      6.492
REMARK  Name = 40779167
REMARK  8 active torsions:
REMARK  status: ('A' for Active; 'I' for Inactive)
REMARK    1  A    between atoms: O_2  and  C_21
REMARK    2  A    between atoms: O_2  and  C_27
REMARK    3  A    between atoms: N_4  and  C_18
REMARK    4  A    between atoms: N_5  and  C_15
REMARK    5  A    between atoms: C_8  and  C_14
REMARK    6  A    between atoms: C_9  and  C_15
REMARK    7  A    between atoms: C_17  and  C_20
REMARK    8  A    between atoms: C_19  and  C_21
REMARK                            x       y       z     vdW  Elec       q    Type
REMARK                         _______ _______ _______ _____ _____    ______ ____
ROOT
ATOM      3  N   UNL     1      14.266   7.765  17.888  0.00  0.00    -0.297 NA
ATOM      7  C   UNL     1      12.632   9.762  17.532  0.00  0.00    +0.002 C 
ATOM      8  C   UNL     1      13.891  10.222  18.319  0.00  0.00    +0.055 C 
ATOM      9  C   UNL     1      12.891   7.376  18.298  0.00  0.00    +0.074 C 
ATOM     10  C   UNL     1      11.953   8.603  18.290  0.00  0.00    +0.024 C 
ATOM     11  C   UNL     1      13.132   9.193  16.187  0.00  0.00    +0.019 C 
ATOM     12  C   UNL     1      14.712   8.948  18.665  0.00  0.00    +0.094 C 
ATOM     13  C   UNL     1      14.223   8.143  16.455  0.00  0.00    +0.085 C 
ENDROOT
BRANCH   8  14
ATOM      4  N   UNL     1      14.682  11.917  20.034  0.00  0.00    -0.270 N 
ATOM      6  N   UNL     1      14.304  12.641  21.102  0.00  0.00    -0.171 NA
ATOM     14  C   UNL     1      13.692  11.128  19.526  0.00  0.00    +0.044 A 
ATOM     16  C   UNL     1      12.592  11.349  20.317  0.00  0.00    +0.053 A 
ATOM     17  C   UNL     1      13.027  12.290  21.271  0.00  0.00    +0.093 A 
ATOM     18  C   UNL     1      16.036  12.035  19.545  0.00  0.00    +0.172 C 
BRANCH  17  20
ATOM     20  C   UNL     1      12.247  12.856  22.339  0.00  0.00    +0.002 A 
ATOM     22  C   UNL     1      10.990  13.399  22.072  0.00  0.00    +0.010 A 
ATOM     23  C   UNL     1      12.746  12.863  23.641  0.00  0.00    +0.010 A 
ATOM     24  C   UNL     1      10.233  13.950  23.106  0.00  0.00    +0.001 A 
ATOM     25  C   UNL     1      11.991  13.413  24.676  0.00  0.00    +0.001 A 
ATOM     26  C   UNL     1      10.733  13.956  24.408  0.00  0.00    +0.000 A 
ENDBRANCH  17  20
ENDBRANCH   8  14
BRANCH   9  15
ATOM     15  C   UNL     1      12.867   6.649  19.644  0.00  0.00    +0.123 C 
BRANCH  15   5
ATOM      1  O   UNL     1      10.891   5.531  21.437  0.00  0.00    -0.273 OA
ATOM      5  N   UNL     1      12.062   7.356  20.592  0.00  0.00    -0.312 N 
ATOM     19  C   UNL     1      11.130   6.736  21.421  0.00  0.00    +0.239 C 
ATOM     28  H   UNL     1      12.181   8.364  20.656  0.00  0.00    +0.149 HD
BRANCH  19  21
ATOM     21  C   UNL     1      10.423   7.723  22.325  0.00  0.00    +0.255 C 
BRANCH  21   2
ATOM      2  O   UNL     1      11.291   8.774  22.692  0.00  0.00    -0.374 OA
ATOM     27  C   UNL     1      10.577   9.917  23.154  0.00  0.00    +0.194 C 
ENDBRANCH  21   2
ENDBRANCH  19  21
ENDBRANCH  15   5
ENDBRANCH   9  15
TORSDOF 6
ENDMDL
MODEL 6
REMARK VINA RESULT:      -6.2     13.144     15.744
REMARK  Name = 40779167
REMARK  8 active torsions:
REMARK  status: ('A' for Active; 'I' for Inactive)
REMARK    1  A    between atoms: O_2  and  C_21
REMARK    2  A    between atoms: O_2  and  C_27
REMARK    3  A    between atoms: N_4  and  C_18
REMARK    4  A    between atoms: N_5  and  C_15
REMARK    5  A    between atoms: C_8  and  C_14
REMARK    6  A    between atoms: C_9  and  C_15
REMARK    7  A    between atoms: C_17  and  C_20
REMARK    8  A    between atoms: C_19  and  C_21
REMARK                            x       y       z     vdW  Elec       q    Type
REMARK                         _______ _______ _______ _____ _____    ______ ____
ROOT
ATOM      3  N   UNL     1      10.293   6.195   7.632  0.00  0.00    -0.297 NA
ATOM      7  C   UNL     1       9.533   7.911   5.827  0.00  0.00    +0.002 C 
ATOM      8  C   UNL     1       9.353   6.458   5.307  0.00  0.00    +0.055 C 
ATOM      9  C   UNL     1      11.346   7.226   7.436  0.00  0.00    +0.074 C 
ATOM     10  C   UNL     1      11.007   8.128   6.230  0.00  0.00    +0.024 C 
ATOM     11  C   UNL     1       8.688   8.031   7.113  0.00  0.00    +0.019 C 
ATOM     12  C   UNL     1      10.010   5.508   6.348  0.00  0.00    +0.094 C 
ATOM     13  C   UNL     1       9.057   6.885   8.070  0.00  0.00    +0.085 C 
ENDROOT
BRANCH   8  14
ATOM      4  N   UNL     1       9.379   6.871   2.803  0.00  0.00    -0.270 N 
ATOM      6  N   UNL     1       9.876   6.432   1.633  0.00  0.00    -0.171 NA
ATOM     14  C   UNL     1       9.789   6.145   3.882  0.00  0.00    +0.044 A 
ATOM     16  C   UNL     1      10.611   5.164   3.385  0.00  0.00    +0.053 A 
ATOM     17  C   UNL     1      10.628   5.390   1.995  0.00  0.00    +0.093 A 
ATOM     18  C   UNL     1       8.496   8.014   2.809  0.00  0.00    +0.172 C 
BRANCH  17  20
ATOM     20  C   UNL     1      11.347   4.628   1.008  0.00  0.00    +0.002 A 
ATOM     22  C   UNL     1      12.527   3.971   1.357  0.00  0.00    +0.010 A 
ATOM     23  C   UNL     1      10.865   4.546  -0.298  0.00  0.00    +0.010 A 
ATOM     24  C   UNL     1      13.225   3.233   0.401  0.00  0.00    +0.001 A 
ATOM     25  C   UNL     1      11.561   3.808  -1.255  0.00  0.00    +0.001 A 
ATOM     26  C   UNL     1      12.742   3.152  -0.905  0.00  0.00    +0.000 A 
ENDBRANCH  17  20
ENDBRANCH   8  14
BRANCH   9  15
ATOM     15  C   UNL     1      12.744   6.617   7.317  0.00  0.00    +0.123 C 
BRANCH  15   5
ATOM      1  O   UNL     1      15.289   7.760   6.553  0.00  0.00    -0.273 OA
ATOM      5  N   UNL     1      13.258   6.774   5.991  0.00  0.00    -0.312 N 
ATOM     19  C   UNL     1      14.501   7.338   5.711  0.00  0.00    +0.239 C 
ATOM     28  H   UNL     1      12.679   6.457   5.218  0.00  0.00    +0.149 HD
BRANCH  19  21
ATOM     21  C   UNL     1      14.789   7.378   4.226  0.00  0.00    +0.255 C 
BRANCH  21   2
ATOM      2  O   UNL     1      13.657   6.971   3.487  0.00  0.00    -0.374 OA
ATOM     27  C   UNL     1      13.272   7.947   2.523  0.00  0.00    +0.194 C 
ENDBRANCH  21   2
ENDBRANCH  19  21
ENDBRANCH  15   5
ENDBRANCH   9  15
TORSDOF 6
ENDMDL
MODEL 7
REMARK VINA RESULT:      -6.2     25.982     28.460
REMARK  Name = 40779167
REMARK  8 active torsions:
REMARK  status: ('A' for Active; 'I' for Inactive)
REMARK    1  A    between atoms: O_2  and  C_21
REMARK    2  A    between atoms: O_2  and  C_27
REMARK    3  A    between atoms: N_4  and  C_18
REMARK    4  A    between atoms: N_5  and  C_15
REMARK    5  A    between atoms: C_8  and  C_14
REMARK    6  A    between atoms: C_9  and  C_15
REMARK    7  A    between atoms: C_17  and  C_20
REMARK    8  A    between atoms: C_19  and  C_21
REMARK                            x       y       z     vdW  Elec       q    Type
REMARK                         _______ _______ _______ _____ _____    ______ ____
ROOT
ATOM      3  N   UNL     1      -8.916 -11.392  17.533  0.00  0.00    -0.297 NA
ATOM      7  C   UNL     1      -8.645  -8.984  16.577  0.00  0.00    +0.002 C 
ATOM      8  C   UNL     1      -8.867 -10.006  15.426  0.00  0.00    +0.055 C 
ATOM      9  C   UNL     1      -7.705 -10.749  18.109  0.00  0.00    +0.074 C 
ATOM     10  C   UNL     1      -7.413  -9.408  17.403  0.00  0.00    +0.024 C 
ATOM     11  C   UNL     1      -9.873  -9.089  17.507  0.00  0.00    +0.019 C 
ATOM     12  C   UNL     1      -8.817 -11.428  16.053  0.00  0.00    +0.094 C 
ATOM     13  C   UNL     1     -10.088 -10.561  17.898  0.00  0.00    +0.085 C 
ENDROOT
BRANCH   8  14
ATOM      4  N   UNL     1      -8.505  -9.740  12.929  0.00  0.00    -0.270 N 
ATOM      6  N   UNL     1      -7.568  -9.657  11.968  0.00  0.00    -0.171 NA
ATOM     14  C   UNL     1      -7.995  -9.890  14.185  0.00  0.00    +0.044 A 
ATOM     16  C   UNL     1      -6.629  -9.909  14.036  0.00  0.00    +0.053 A 
ATOM     17  C   UNL     1      -6.424  -9.761  12.650  0.00  0.00    +0.093 A 
ATOM     18  C   UNL     1      -9.900  -9.666  12.561  0.00  0.00    +0.172 C 
BRANCH  17  20
ATOM     20  C   UNL     1      -5.159  -9.719  11.967  0.00  0.00    +0.002 A 
ATOM     22  C   UNL     1      -5.036  -9.017  10.768  0.00  0.00    +0.010 A 
ATOM     23  C   UNL     1      -4.053 -10.380  12.503  0.00  0.00    +0.010 A 
ATOM     24  C   UNL     1      -3.810  -8.977  10.104  0.00  0.00    +0.001 A 
ATOM     25  C   UNL     1      -2.827 -10.340  11.840  0.00  0.00    +0.001 A 
ATOM     26  C   UNL     1      -2.705  -9.638  10.641  0.00  0.00    +0.000 A 
ENDBRANCH  17  20
ENDBRANCH   8  14
BRANCH   9  15
ATOM     15  C   UNL     1      -6.489 -11.678  18.095  0.00  0.00    +0.123 C 
BRANCH  15   5
ATOM      1  O   UNL     1      -3.625 -11.619  18.493  0.00  0.00    -0.273 OA
ATOM      5  N   UNL     1      -5.499 -11.209  17.176  0.00  0.00    -0.312 N 
ATOM     19  C   UNL     1      -4.133 -11.216  17.450  0.00  0.00    +0.239 C 
ATOM     28  H   UNL     1      -5.817 -10.849  16.279  0.00  0.00    +0.149 HD
BRANCH  19  21
ATOM     21  C   UNL     1      -3.317 -10.665  16.301  0.00  0.00    +0.255 C 
BRANCH  21   2
ATOM      2  O   UNL     1      -1.944 -10.938  16.488  0.00  0.00    -0.374 OA
ATOM     27  C   UNL     1      -1.124 -10.164  15.617  0.00  0.00    +0.194 C 
ENDBRANCH  21   2
ENDBRANCH  19  21
ENDBRANCH  15   5
ENDBRANCH   9  15
TORSDOF 6
ENDMDL
MODEL 8
REMARK VINA RESULT:      -6.1     26.890     28.567
REMARK  Name = 40779167
REMARK  8 active torsions:
REMARK  status: ('A' for Active; 'I' for Inactive)
REMARK    1  A    between atoms: O_2  and  C_21
REMARK    2  A    between atoms: O_2  and  C_27
REMARK    3  A    between atoms: N_4  and  C_18
REMARK    4  A    between atoms: N_5  and  C_15
REMARK    5  A    between atoms: C_8  and  C_14
REMARK    6  A    between atoms: C_9  and  C_15
REMARK    7  A    between atoms: C_17  and  C_20
REMARK    8  A    between atoms: C_19  and  C_21
REMARK                            x       y       z     vdW  Elec       q    Type
REMARK                         _______ _______ _______ _____ _____    ______ ____
ROOT
ATOM      3  N   UNL     1      -7.085 -12.632  18.147  0.00  0.00    -0.297 NA
ATOM      7  C   UNL     1      -6.202 -10.212  17.762  0.00  0.00    +0.002 C 
ATOM      8  C   UNL     1      -7.238 -10.594  16.668  0.00  0.00    +0.055 C 
ATOM      9  C   UNL     1      -5.599 -12.621  18.186  0.00  0.00    +0.074 C 
ATOM     10  C   UNL     1      -5.053 -11.242  17.757  0.00  0.00    +0.024 C 
ATOM     11  C   UNL     1      -6.922 -10.342  19.121  0.00  0.00    +0.019 C 
ATOM     12  C   UNL     1      -7.562 -12.104  16.844  0.00  0.00    +0.094 C 
ATOM     13  C   UNL     1      -7.575 -11.731  19.218  0.00  0.00    +0.085 C 
ENDROOT
BRANCH   8  14
ATOM      4  N   UNL     1      -7.877  -9.858  14.325  0.00  0.00    -0.270 N 
ATOM      6  N   UNL     1      -7.393  -9.584  13.101  0.00  0.00    -0.171 NA
ATOM     14  C   UNL     1      -6.922 -10.235  15.223  0.00  0.00    +0.044 A 
ATOM     16  C   UNL     1      -5.732 -10.206  14.539  0.00  0.00    +0.053 A 
ATOM     17  C   UNL     1      -6.082  -9.798  13.238  0.00  0.00    +0.093 A 
ATOM     18  C   UNL     1      -9.297  -9.737  14.565  0.00  0.00    +0.172 C 
BRANCH  17  20
ATOM     20  C   UNL     1      -5.190  -9.612  12.124  0.00  0.00    +0.002 A 
ATOM     22  C   UNL     1      -4.005 -10.345  12.050  0.00  0.00    +0.010 A 
ATOM     23  C   UNL     1      -5.508  -8.699  11.119  0.00  0.00    +0.010 A 
ATOM     24  C   UNL     1      -3.139 -10.165  10.971  0.00  0.00    +0.001 A 
ATOM     25  C   UNL     1      -4.643  -8.518  10.041  0.00  0.00    +0.001 A 
ATOM     26  C   UNL     1      -3.458  -9.252   9.967  0.00  0.00    +0.000 A 
ENDBRANCH  17  20
ENDBRANCH   8  14
BRANCH   9  15
ATOM     15  C   UNL     1      -4.985 -13.757  17.366  0.00  0.00    +0.123 C 
BRANCH  15   5
ATOM      1  O   UNL     1      -4.447 -14.919  14.773  0.00  0.00    -0.273 OA
ATOM      5  N   UNL     1      -4.115 -13.244  16.353  0.00  0.00    -0.312 N 
ATOM     19  C   UNL     1      -3.913 -13.871  15.126  0.00  0.00    +0.239 C 
ATOM     28  H   UNL     1      -3.619 -12.378  16.548  0.00  0.00    +0.149 HD
BRANCH  19  21
ATOM     21  C   UNL     1      -2.944 -13.109  14.247  0.00  0.00    +0.255 C 
BRANCH  21   2
ATOM      2  O   UNL     1      -2.653 -11.845  14.805  0.00  0.00    -0.374 OA
ATOM     27  C   UNL     1      -1.253 -11.583  14.827  0.00  0.00    +0.194 C 
ENDBRANCH  21   2
ENDBRANCH  19  21
ENDBRANCH  15   5
ENDBRANCH   9  15
TORSDOF 6
ENDMDL
MODEL 9
REMARK VINA RESULT:      -6.1     27.358     29.468
REMARK  Name = 40779167
REMARK  8 active torsions:
REMARK  status: ('A' for Active; 'I' for Inactive)
REMARK    1  A    between atoms: O_2  and  C_21
REMARK    2  A    between atoms: O_2  and  C_27
REMARK    3  A    between atoms: N_4  and  C_18
REMARK    4  A    between atoms: N_5  and  C_15
REMARK    5  A    between atoms: C_8  and  C_14
REMARK    6  A    between atoms: C_9  and  C_15
REMARK    7  A    between atoms: C_17  and  C_20
REMARK    8  A    between atoms: C_19  and  C_21
REMARK                            x       y       z     vdW  Elec       q    Type
REMARK                         _______ _______ _______ _____ _____    ______ ____
ROOT
ATOM      3  N   UNL     1      -5.366 -12.463  16.833  0.00  0.00    -0.297 NA
ATOM      7  C   UNL     1      -5.867 -10.724  18.706  0.00  0.00    +0.002 C 
ATOM      8  C   UNL     1      -7.173 -11.445  18.269  0.00  0.00    +0.055 C 
ATOM      9  C   UNL     1      -4.757 -11.151  16.485  0.00  0.00    +0.074 C 
ATOM     10  C   UNL     1      -5.215 -10.059  17.476  0.00  0.00    +0.024 C 
ATOM     11  C   UNL     1      -4.897 -11.820  19.197  0.00  0.00    +0.019 C 
ATOM     12  C   UNL     1      -6.829 -12.309  17.022  0.00  0.00    +0.094 C 
ATOM     13  C   UNL     1      -4.777 -12.910  18.118  0.00  0.00    +0.085 C 
ENDROOT
BRANCH   8  14
ATOM      4  N   UNL     1      -9.545 -10.736  18.826  0.00  0.00    -0.270 N 
ATOM      6  N   UNL     1     -10.540  -9.900  18.481  0.00  0.00    -0.171 NA
ATOM     14  C   UNL     1      -8.423 -10.603  18.061  0.00  0.00    +0.044 A 
ATOM     16  C   UNL     1      -8.704  -9.611  17.153  0.00  0.00    +0.053 A 
ATOM     17  C   UNL     1     -10.020  -9.215  17.459  0.00  0.00    +0.093 A 
ATOM     18  C   UNL     1      -9.745 -11.657  19.920  0.00  0.00    +0.172 C 
BRANCH  17  20
ATOM     20  C   UNL     1     -10.790  -8.198  16.793  0.00  0.00    +0.002 A 
ATOM     22  C   UNL     1     -10.152  -7.077  16.262  0.00  0.00    +0.010 A 
ATOM     23  C   UNL     1     -12.173  -8.332  16.678  0.00  0.00    +0.010 A 
ATOM     24  C   UNL     1     -10.897  -6.089  15.617  0.00  0.00    +0.001 A 
ATOM     25  C   UNL     1     -12.919  -7.346  16.033  0.00  0.00    +0.001 A 
ATOM     26  C   UNL     1     -12.280  -6.224  15.502  0.00  0.00    +0.000 A 
ENDBRANCH  17  20
ENDBRANCH   8  14
BRANCH   9  15
ATOM     15  C   UNL     1      -5.023 -10.751  15.033  0.00  0.00    +0.123 C 
BRANCH  15   5
ATOM      1  O   UNL     1      -2.281 -10.299  14.231  0.00  0.00    -0.273 OA
ATOM      5  N   UNL     1      -4.244 -11.545  14.133  0.00  0.00    -0.312 N 
ATOM     19  C   UNL     1      -2.923 -11.254  13.800  0.00  0.00    +0.239 C 
ATOM     28  H   UNL     1      -4.686 -12.361  13.717  0.00  0.00    +0.149 HD
BRANCH  19  21
ATOM     21  C   UNL     1      -2.343 -12.260  12.830  0.00  0.00    +0.255 C 
BRANCH  21   2
ATOM      2  O   UNL     1      -1.327 -13.021  13.449  0.00  0.00    -0.374 OA
ATOM     27  C   UNL     1      -1.733 -14.368  13.672  0.00  0.00    +0.194 C 
ENDBRANCH  21   2
ENDBRANCH  19  21
ENDBRANCH  15   5
ENDBRANCH   9  15
TORSDOF 6
ENDMDL
MODEL 10
REMARK VINA RESULT:      -6.1      3.041      5.805
REMARK  Name = 40779167
REMARK  8 active torsions:
REMARK  status: ('A' for Active; 'I' for Inactive)
REMARK    1  A    between atoms: O_2  and  C_21
REMARK    2  A    between atoms: O_2  and  C_27
REMARK    3  A    between atoms: N_4  and  C_18
REMARK    4  A    between atoms: N_5  and  C_15
REMARK    5  A    between atoms: C_8  and  C_14
REMARK    6  A    between atoms: C_9  and  C_15
REMARK    7  A    between atoms: C_17  and  C_20
REMARK    8  A    between atoms: C_19  and  C_21
REMARK                            x       y       z     vdW  Elec       q    Type
REMARK                         _______ _______ _______ _____ _____    ______ ____
ROOT
ATOM      3  N   UNL     1      14.305   8.056  18.087  0.00  0.00    -0.297 NA
ATOM      7  C   UNL     1      12.268   9.657  17.813  0.00  0.00    +0.002 C 
ATOM      8  C   UNL     1      13.460  10.400  18.479  0.00  0.00    +0.055 C 
ATOM      9  C   UNL     1      13.076   7.412  18.622  0.00  0.00    +0.074 C 
ATOM     10  C   UNL     1      11.906   8.417  18.658  0.00  0.00    +0.024 C 
ATOM     11  C   UNL     1      12.772   9.143  16.447  0.00  0.00    +0.019 C 
ATOM     12  C   UNL     1      14.553   9.339  18.791  0.00  0.00    +0.094 C 
ATOM     13  C   UNL     1      14.075   8.352  16.653  0.00  0.00    +0.085 C 
ENDROOT
BRANCH   8  14
ATOM      4  N   UNL     1      13.764  12.514  19.850  0.00  0.00    -0.270 N 
ATOM      6  N   UNL     1      13.373  13.151  20.968  0.00  0.00    -0.171 NA
ATOM     14  C   UNL     1      13.169  11.299  19.672  0.00  0.00    +0.044 A 
ATOM     16  C   UNL     1      12.333  11.129  20.748  0.00  0.00    +0.053 A 
ATOM     17  C   UNL     1      12.498  12.300  21.512  0.00  0.00    +0.093 A 
ATOM     18  C   UNL     1      14.733  13.142  18.982  0.00  0.00    +0.172 C 
BRANCH  17  20
ATOM     20  C   UNL     1      11.840  12.621  22.751  0.00  0.00    +0.002 A 
ATOM     22  C   UNL     1      10.671  13.381  22.743  0.00  0.00    +0.010 A 
ATOM     23  C   UNL     1      12.369  12.171  23.960  0.00  0.00    +0.010 A 
ATOM     24  C   UNL     1      10.032  13.693  23.943  0.00  0.00    +0.001 A 
ATOM     25  C   UNL     1      11.731  12.482  25.160  0.00  0.00    +0.001 A 
ATOM     26  C   UNL     1      10.562  13.243  25.151  0.00  0.00    +0.000 A 
ENDBRANCH  17  20
ENDBRANCH   8  14
BRANCH   9  15
ATOM     15  C   UNL     1      13.307   6.756  19.985  0.00  0.00    +0.123 C 
BRANCH  15   5
ATOM      1  O   UNL     1      14.910   7.592  22.243  0.00  0.00    -0.273 OA
ATOM      5  N   UNL     1      14.698   6.500  20.199  0.00  0.00    -0.312 N 
ATOM     19  C   UNL     1      15.396   6.943  21.321  0.00  0.00    +0.239 C 
ATOM     28  H   UNL     1      15.197   5.970  19.490  0.00  0.00    +0.149 HD
BRANCH  19  21
ATOM     21  C   UNL     1      16.851   6.529  21.290  0.00  0.00    +0.255 C 
BRANCH  21   2
ATOM      2  O   UNL     1      17.268   6.274  19.965  0.00  0.00    -0.374 OA
ATOM     27  C   UNL     1      18.614   5.808  19.911  0.00  0.00    +0.194 C 
ENDBRANCH  21   2
ENDBRANCH  19  21
ENDBRANCH  15   5
ENDBRANCH   9  15
TORSDOF 6
ENDMDL
