MODEL 1
REMARK VINA RESULT:      -6.5      0.000      0.000
REMARK  Name = 26744640
REMARK  10 active torsions:
REMARK  status: ('A' for Active; 'I' for Inactive)
REMARK    1  A    between atoms: O_2  and  C_10
REMARK    2  A    between atoms: O_3  and  C_11
REMARK    3  A    between atoms: N_6  and  C_13
REMARK    4  A    between atoms: N_7  and  C_14
REMARK    5  A    between atoms: N_8  and  C_23
REMARK    6  A    between atoms: C_9  and  C_14
REMARK    7  A    between atoms: C_12  and  C_17
REMARK    8  A    between atoms: C_17  and  C_22
REMARK    9  A    between atoms: C_23  and  C_24
REMARK   10  A    between atoms: C_23  and  C_25
REMARK                            x       y       z     vdW  Elec       q    Type
REMARK                         _______ _______ _______ _____ _____    ______ ____
ROOT
ATOM      1  O   UNL     1      10.549   7.236   5.992  0.00  0.00    -0.366 OA
ATOM      9  C   UNL     1      10.654   5.982   5.296  0.00  0.00    +0.167 C 
ATOM     10  C   UNL     1       9.725   5.027   6.026  0.00  0.00    +0.176 C 
ATOM     11  C   UNL     1       9.884   5.487   7.462  0.00  0.00    +0.175 C 
ATOM     12  C   UNL     1       9.978   7.001   7.301  0.00  0.00    +0.158 C 
ENDROOT
BRANCH  10   2
ATOM      2  O   UNL     1      10.089   3.677   5.828  0.00  0.00    -0.387 OA
ATOM     28  H   UNL     1       9.508   3.133   6.386  0.00  0.00    +0.210 HD
ENDBRANCH  10   2
BRANCH  11   3
ATOM      3  O   UNL     1      11.121   5.020   7.997  0.00  0.00    -0.387 OA
ATOM     29  H   UNL     1      11.803   5.674   7.765  0.00  0.00    +0.210 HD
ENDBRANCH  11   3
BRANCH   9  14
ATOM     14  C   UNL     1      10.290   6.176   3.835  0.00  0.00    +0.140 C 
BRANCH  14   7
ATOM      4  O   UNL     1      11.222   3.596   2.973  0.00  0.00    -0.253 OA
ATOM      6  N   UNL     1      12.916   4.642   1.776  0.00  0.00    -0.297 N 
ATOM      7  N   UNL     1      11.410   5.910   2.982  0.00  0.00    -0.297 N 
ATOM     21  C   UNL     1      11.799   4.620   2.608  0.00  0.00    +0.300 C 
ATOM     26  H   UNL     1      13.270   5.545   1.480  0.00  0.00    +0.151 HD
ATOM     27  H   UNL     1      11.944   6.697   2.624  0.00  0.00    +0.150 HD
BRANCH   6  13
ATOM     13  C   UNL     1      13.527   3.445   1.242  0.00  0.00    +0.074 C 
ATOM     15  C   UNL     1      13.073   3.189  -0.199  0.00  0.00    +0.022 C 
ATOM     16  C   UNL     1      15.055   3.518   1.338  0.00  0.00    +0.022 C 
ATOM     18  C   UNL     1      13.676   4.186  -1.188  0.00  0.00    +0.002 C 
ATOM     19  C   UNL     1      15.656   4.514   0.345  0.00  0.00    +0.002 C 
ATOM     20  C   UNL     1      15.198   4.232  -1.083  0.00  0.00    +0.000 C 
ENDBRANCH   6  13
ENDBRANCH  14   7
ENDBRANCH   9  14
BRANCH  12  17
ATOM     17  C   UNL     1       8.622   7.690   7.349  0.00  0.00    +0.130 C 
BRANCH  17  22
ATOM      5  O   UNL     1       9.027   9.984   6.696  0.00  0.00    -0.276 OA
ATOM      8  N   UNL     1       7.871   8.582   5.248  0.00  0.00    -0.313 N 
ATOM     22  C   UNL     1       8.546   8.889   6.421  0.00  0.00    +0.216 C 
ATOM     30  H   UNL     1       7.565   7.625   5.095  0.00  0.00    +0.149 HD
BRANCH   8  23
ATOM     23  C   UNL     1       7.652   9.541   4.190  0.00  0.00    +0.067 C 
ATOM     24  C   UNL     1       6.279  10.185   4.335  0.00  0.00    +0.027 C 
ATOM     25  C   UNL     1       7.809   8.877   2.827  0.00  0.00    +0.027 C 
ENDBRANCH   8  23
ENDBRANCH  17  22
ENDBRANCH  12  17
TORSDOF 8
ENDMDL
MODEL 2
REMARK VINA RESULT:      -6.3     16.312     19.254
REMARK  Name = 26744640
REMARK  10 active torsions:
REMARK  status: ('A' for Active; 'I' for Inactive)
REMARK    1  A    between atoms: O_2  and  C_10
REMARK    2  A    between atoms: O_3  and  C_11
REMARK    3  A    between atoms: N_6  and  C_13
REMARK    4  A    between atoms: N_7  and  C_14
REMARK    5  A    between atoms: N_8  and  C_23
REMARK    6  A    between atoms: C_9  and  C_14
REMARK    7  A    between atoms: C_12  and  C_17
REMARK    8  A    between atoms: C_17  and  C_22
REMARK    9  A    between atoms: C_23  and  C_24
REMARK   10  A    between atoms: C_23  and  C_25
REMARK                            x       y       z     vdW  Elec       q    Type
REMARK                         _______ _______ _______ _____ _____    ______ ____
ROOT
ATOM      1  O   UNL     1      10.903   8.836  20.179  0.00  0.00    -0.366 OA
ATOM      9  C   UNL     1      10.926   7.705  21.068  0.00  0.00    +0.167 C 
ATOM     10  C   UNL     1      12.348   7.173  21.020  0.00  0.00    +0.176 C 
ATOM     11  C   UNL     1      12.716   7.419  19.570  0.00  0.00    +0.175 C 
ATOM     12  C   UNL     1      12.049   8.765  19.299  0.00  0.00    +0.158 C 
ENDROOT
BRANCH  10   2
ATOM      2  O   UNL     1      12.418   5.812  21.390  0.00  0.00    -0.387 OA
ATOM     28  H   UNL     1      11.689   5.349  20.942  0.00  0.00    +0.210 HD
ENDBRANCH  10   2
BRANCH  11   3
ATOM      3  O   UNL     1      12.101   6.444  18.731  0.00  0.00    -0.387 OA
ATOM     29  H   UNL     1      11.207   6.283  19.078  0.00  0.00    +0.210 HD
ENDBRANCH  11   3
BRANCH   9  14
ATOM     14  C   UNL     1      10.493   8.138  22.458  0.00  0.00    +0.140 C 
BRANCH  14   7
ATOM      4  O   UNL     1      12.242  10.310  23.161  0.00  0.00    -0.253 OA
ATOM      6  N   UNL     1      10.497  11.797  22.785  0.00  0.00    -0.297 N 
ATOM      7  N   UNL     1      10.162   9.533  22.486  0.00  0.00    -0.297 N 
ATOM     21  C   UNL     1      11.075  10.530  22.840  0.00  0.00    +0.300 C 
ATOM     26  H   UNL     1       9.547  11.871  22.439  0.00  0.00    +0.151 HD
ATOM     27  H   UNL     1       9.219   9.811  22.227  0.00  0.00    +0.150 HD
BRANCH   6  13
ATOM     13  C   UNL     1      11.220  13.009  23.104  0.00  0.00    +0.074 C 
ATOM     15  C   UNL     1      11.758  13.679  21.835  0.00  0.00    +0.022 C 
ATOM     16  C   UNL     1      10.345  13.973  23.913  0.00  0.00    +0.022 C 
ATOM     18  C   UNL     1      10.651  14.315  20.994  0.00  0.00    +0.002 C 
ATOM     19  C   UNL     1       9.241  14.609  23.068  0.00  0.00    +0.002 C 
ATOM     20  C   UNL     1       9.802  15.279  21.818  0.00  0.00    +0.000 C 
ENDBRANCH   6  13
ENDBRANCH  14   7
ENDBRANCH   9  14
BRANCH  12  17
ATOM     17  C   UNL     1      12.952   9.950  19.612  0.00  0.00    +0.130 C 
BRANCH  17  22
ATOM      5  O   UNL     1      14.860   9.580  18.172  0.00  0.00    -0.276 OA
ATOM      8  N   UNL     1      15.150   9.512  20.477  0.00  0.00    -0.313 N 
ATOM     22  C   UNL     1      14.412   9.664  19.312  0.00  0.00    +0.216 C 
ATOM     30  H   UNL     1      14.691   9.662  21.372  0.00  0.00    +0.149 HD
BRANCH   8  23
ATOM     23  C   UNL     1      16.567   9.231  20.482  0.00  0.00    +0.067 C 
ATOM     24  C   UNL     1      16.841   7.907  21.183  0.00  0.00    +0.027 C 
ATOM     25  C   UNL     1      17.336  10.372  21.138  0.00  0.00    +0.027 C 
ENDBRANCH   8  23
ENDBRANCH  17  22
ENDBRANCH  12  17
TORSDOF 8
ENDMDL
MODEL 3
REMARK VINA RESULT:      -6.3     14.401     18.538
REMARK  Name = 26744640
REMARK  10 active torsions:
REMARK  status: ('A' for Active; 'I' for Inactive)
REMARK    1  A    between atoms: O_2  and  C_10
REMARK    2  A    between atoms: O_3  and  C_11
REMARK    3  A    between atoms: N_6  and  C_13
REMARK    4  A    between atoms: N_7  and  C_14
REMARK    5  A    between atoms: N_8  and  C_23
REMARK    6  A    between atoms: C_9  and  C_14
REMARK    7  A    between atoms: C_12  and  C_17
REMARK    8  A    between atoms: C_17  and  C_22
REMARK    9  A    between atoms: C_23  and  C_24
REMARK   10  A    between atoms: C_23  and  C_25
REMARK                            x       y       z     vdW  Elec       q    Type
REMARK                         _______ _______ _______ _____ _____    ______ ____
ROOT
ATOM      1  O   UNL     1      10.841   8.734  20.167  0.00  0.00    -0.366 OA
ATOM      9  C   UNL     1      10.900   7.648  21.108  0.00  0.00    +0.167 C 
ATOM     10  C   UNL     1      12.336   7.152  21.074  0.00  0.00    +0.176 C 
ATOM     11  C   UNL     1      12.688   7.340  19.612  0.00  0.00    +0.175 C 
ATOM     12  C   UNL     1      11.982   8.652  19.282  0.00  0.00    +0.158 C 
ENDROOT
BRANCH  10   2
ATOM      2  O   UNL     1      12.446   5.814  21.508  0.00  0.00    -0.387 OA
ATOM     28  H   UNL     1      13.072   5.364  20.916  0.00  0.00    +0.210 HD
ENDBRANCH  10   2
BRANCH  11   3
ATOM      3  O   UNL     1      12.095   6.309  18.825  0.00  0.00    -0.387 OA
ATOM     29  H   UNL     1      12.727   5.571  18.787  0.00  0.00    +0.210 HD
ENDBRANCH  11   3
BRANCH   9  14
ATOM     14  C   UNL     1      10.464   8.135  22.479  0.00  0.00    +0.140 C 
BRANCH  14   7
ATOM      4  O   UNL     1      12.199  10.293  23.256  0.00  0.00    -0.253 OA
ATOM      6  N   UNL     1      10.510  11.799  22.734  0.00  0.00    -0.297 N 
ATOM      7  N   UNL     1      10.156   9.535  22.457  0.00  0.00    -0.297 N 
ATOM     21  C   UNL     1      11.060  10.525  22.853  0.00  0.00    +0.300 C 
ATOM     26  H   UNL     1       9.586  11.881  22.323  0.00  0.00    +0.151 HD
ATOM     27  H   UNL     1       9.238   9.823  22.130  0.00  0.00    +0.150 HD
BRANCH   6  13
ATOM     13  C   UNL     1      11.230  13.006  23.077  0.00  0.00    +0.074 C 
ATOM     15  C   UNL     1      11.909  13.611  21.844  0.00  0.00    +0.022 C 
ATOM     16  C   UNL     1      10.307  14.022  23.758  0.00  0.00    +0.022 C 
ATOM     18  C   UNL     1      10.909  14.239  20.873  0.00  0.00    +0.002 C 
ATOM     19  C   UNL     1       9.309  14.649  22.784  0.00  0.00    +0.002 C 
ATOM     20  C   UNL     1      10.010  15.255  21.571  0.00  0.00    +0.000 C 
ENDBRANCH   6  13
ENDBRANCH  14   7
ENDBRANCH   9  14
BRANCH  12  17
ATOM     17  C   UNL     1      12.854   9.875  19.531  0.00  0.00    +0.130 C 
BRANCH  17  22
ATOM      5  O   UNL     1      15.113   9.399  18.808  0.00  0.00    -0.276 OA
ATOM      8  N   UNL     1      13.742  10.703  17.458  0.00  0.00    -0.313 N 
ATOM     22  C   UNL     1      14.038   9.948  18.584  0.00  0.00    +0.216 C 
ATOM     30  H   UNL     1      12.799  11.062  17.342  0.00  0.00    +0.149 HD
BRANCH   8  23
ATOM     23  C   UNL     1      14.691  10.937  16.394  0.00  0.00    +0.067 C 
ATOM     24  C   UNL     1      15.585  12.122  16.734  0.00  0.00    +0.027 C 
ATOM     25  C   UNL     1      13.968  11.152  15.070  0.00  0.00    +0.027 C 
ENDBRANCH   8  23
ENDBRANCH  17  22
ENDBRANCH  12  17
TORSDOF 8
ENDMDL
MODEL 4
REMARK VINA RESULT:      -6.3      1.782      2.617
REMARK  Name = 26744640
REMARK  10 active torsions:
REMARK  status: ('A' for Active; 'I' for Inactive)
REMARK    1  A    between atoms: O_2  and  C_10
REMARK    2  A    between atoms: O_3  and  C_11
REMARK    3  A    between atoms: N_6  and  C_13
REMARK    4  A    between atoms: N_7  and  C_14
REMARK    5  A    between atoms: N_8  and  C_23
REMARK    6  A    between atoms: C_9  and  C_14
REMARK    7  A    between atoms: C_12  and  C_17
REMARK    8  A    between atoms: C_17  and  C_22
REMARK    9  A    between atoms: C_23  and  C_24
REMARK   10  A    between atoms: C_23  and  C_25
REMARK                            x       y       z     vdW  Elec       q    Type
REMARK                         _______ _______ _______ _____ _____    ______ ____
ROOT
ATOM      1  O   UNL     1       9.712   8.024   6.540  0.00  0.00    -0.366 OA
ATOM      9  C   UNL     1      10.905   7.456   7.108  0.00  0.00    +0.167 C 
ATOM     10  C   UNL     1      10.643   5.962   7.206  0.00  0.00    +0.176 C 
ATOM     11  C   UNL     1       9.165   5.935   7.539  0.00  0.00    +0.175 C 
ATOM     12  C   UNL     1       8.627   7.079   6.686  0.00  0.00    +0.158 C 
ENDROOT
BRANCH  10   2
ATOM      2  O   UNL     1      11.448   5.345   8.187  0.00  0.00    -0.387 OA
ATOM     28  H   UNL     1      11.695   4.466   7.853  0.00  0.00    +0.210 HD
ENDBRANCH  10   2
BRANCH  11   3
ATOM      3  O   UNL     1       8.960   6.271   8.910  0.00  0.00    -0.387 OA
ATOM     29  H   UNL     1       9.494   7.062   9.098  0.00  0.00    +0.210 HD
ENDBRANCH  11   3
BRANCH   9  14
ATOM     14  C   UNL     1      12.100   7.800   6.237  0.00  0.00    +0.140 C 
BRANCH  14   7
ATOM      4  O   UNL     1      11.699   7.892   3.390  0.00  0.00    -0.253 OA
ATOM      6  N   UNL     1      12.502   5.718   3.237  0.00  0.00    -0.297 N 
ATOM      7  N   UNL     1      12.375   6.753   5.297  0.00  0.00    -0.297 N 
ATOM     21  C   UNL     1      12.151   6.879   3.922  0.00  0.00    +0.300 C 
ATOM     26  H   UNL     1      12.932   4.967   3.766  0.00  0.00    +0.151 HD
ATOM     27  H   UNL     1      12.759   5.879   5.645  0.00  0.00    +0.150 HD
BRANCH   6  13
ATOM     13  C   UNL     1      12.371   5.577   1.804  0.00  0.00    +0.074 C 
ATOM     15  C   UNL     1      13.663   5.990   1.090  0.00  0.00    +0.022 C 
ATOM     16  C   UNL     1      11.960   4.149   1.428  0.00  0.00    +0.022 C 
ATOM     18  C   UNL     1      14.792   4.980   1.293  0.00  0.00    +0.002 C 
ATOM     19  C   UNL     1      13.093   3.143   1.630  0.00  0.00    +0.002 C 
ATOM     20  C   UNL     1      14.363   3.569   0.901  0.00  0.00    +0.000 C 
ENDBRANCH   6  13
ENDBRANCH  14   7
ENDBRANCH   9  14
BRANCH  12  17
ATOM     17  C   UNL     1       8.205   6.636   5.292  0.00  0.00    +0.130 C 
BRANCH  17  22
ATOM      5  O   UNL     1       8.446   7.755   3.162  0.00  0.00    -0.276 OA
ATOM      8  N   UNL     1       7.465   8.894   4.935  0.00  0.00    -0.313 N 
ATOM     22  C   UNL     1       8.066   7.800   4.328  0.00  0.00    +0.216 C 
ATOM     30  H   UNL     1       7.132   8.803   5.891  0.00  0.00    +0.149 HD
BRANCH   8  23
ATOM     23  C   UNL     1       7.213  10.138   4.245  0.00  0.00    +0.067 C 
ATOM     24  C   UNL     1       8.047  11.258   4.854  0.00  0.00    +0.027 C 
ATOM     25  C   UNL     1       5.727  10.475   4.277  0.00  0.00    +0.027 C 
ENDBRANCH   8  23
ENDBRANCH  17  22
ENDBRANCH  12  17
TORSDOF 8
ENDMDL
MODEL 5
REMARK VINA RESULT:      -6.1      2.064      2.610
REMARK  Name = 26744640
REMARK  10 active torsions:
REMARK  status: ('A' for Active; 'I' for Inactive)
REMARK    1  A    between atoms: O_2  and  C_10
REMARK    2  A    between atoms: O_3  and  C_11
REMARK    3  A    between atoms: N_6  and  C_13
REMARK    4  A    between atoms: N_7  and  C_14
REMARK    5  A    between atoms: N_8  and  C_23
REMARK    6  A    between atoms: C_9  and  C_14
REMARK    7  A    between atoms: C_12  and  C_17
REMARK    8  A    between atoms: C_17  and  C_22
REMARK    9  A    between atoms: C_23  and  C_24
REMARK   10  A    between atoms: C_23  and  C_25
REMARK                            x       y       z     vdW  Elec       q    Type
REMARK                         _______ _______ _______ _____ _____    ______ ____
ROOT
ATOM      1  O   UNL     1      11.025   6.902   7.536  0.00  0.00    -0.366 OA
ATOM      9  C   UNL     1      11.276   6.125   6.352  0.00  0.00    +0.167 C 
ATOM     10  C   UNL     1      10.028   5.284   6.139  0.00  0.00    +0.176 C 
ATOM     11  C   UNL     1       9.618   4.983   7.567  0.00  0.00    +0.175 C 
ATOM     12  C   UNL     1       9.936   6.298   8.272  0.00  0.00    +0.158 C 
ENDROOT
BRANCH  10   2
ATOM      2  O   UNL     1      10.292   4.126   5.377  0.00  0.00    -0.387 OA
ATOM     28  H   UNL     1       9.517   3.963   4.812  0.00  0.00    +0.210 HD
ENDBRANCH  10   2
BRANCH  11   3
ATOM      3  O   UNL     1      10.457   3.970   8.119  0.00  0.00    -0.387 OA
ATOM     29  H   UNL     1      11.176   4.418   8.599  0.00  0.00    +0.210 HD
ENDBRANCH  11   3
BRANCH   9  14
ATOM     14  C   UNL     1      11.583   7.051   5.188  0.00  0.00    +0.140 C 
BRANCH  14   7
ATOM      4  O   UNL     1      10.893   5.744   2.721  0.00  0.00    -0.253 OA
ATOM      6  N   UNL     1      13.144   5.302   2.361  0.00  0.00    -0.297 N 
ATOM      7  N   UNL     1      12.487   6.435   4.261  0.00  0.00    -0.297 N 
ATOM     21  C   UNL     1      12.068   5.819   3.078  0.00  0.00    +0.300 C 
ATOM     26  H   UNL     1      14.079   5.482   2.712  0.00  0.00    +0.151 HD
ATOM     27  H   UNL     1      13.481   6.455   4.470  0.00  0.00    +0.150 HD
BRANCH   6  13
ATOM     13  C   UNL     1      12.995   4.613   1.098  0.00  0.00    +0.074 C 
ATOM     15  C   UNL     1      13.309   5.543  -0.078  0.00  0.00    +0.022 C 
ATOM     16  C   UNL     1      13.862   3.349   1.056  0.00  0.00    +0.022 C 
ATOM     18  C   UNL     1      14.801   5.857  -0.193  0.00  0.00    +0.002 C 
ATOM     19  C   UNL     1      15.353   3.668   0.938  0.00  0.00    +0.002 C 
ATOM     20  C   UNL     1      15.642   4.585  -0.246  0.00  0.00    +0.000 C 
ENDBRANCH   6  13
ENDBRANCH  14   7
ENDBRANCH   9  14
BRANCH  12  17
ATOM     17  C   UNL     1       8.769   7.275   8.263  0.00  0.00    +0.130 C 
BRANCH  17  22
ATOM      5  O   UNL     1       8.687   8.842   6.422  0.00  0.00    -0.276 OA
ATOM      8  N   UNL     1       9.917   9.385   8.317  0.00  0.00    -0.313 N 
ATOM     22  C   UNL     1       9.100   8.571   7.545  0.00  0.00    +0.216 C 
ATOM     30  H   UNL     1      10.152   9.091   9.261  0.00  0.00    +0.149 HD
BRANCH   8  23
ATOM     23  C   UNL     1      10.386  10.678   7.875  0.00  0.00    +0.067 C 
ATOM     24  C   UNL     1      11.873  10.830   8.170  0.00  0.00    +0.027 C 
ATOM     25  C   UNL     1       9.576  11.792   8.527  0.00  0.00    +0.027 C 
ENDBRANCH   8  23
ENDBRANCH  17  22
ENDBRANCH  12  17
TORSDOF 8
ENDMDL
MODEL 6
REMARK VINA RESULT:      -6.0      2.606      7.800
REMARK  Name = 26744640
REMARK  10 active torsions:
REMARK  status: ('A' for Active; 'I' for Inactive)
REMARK    1  A    between atoms: O_2  and  C_10
REMARK    2  A    between atoms: O_3  and  C_11
REMARK    3  A    between atoms: N_6  and  C_13
REMARK    4  A    between atoms: N_7  and  C_14
REMARK    5  A    between atoms: N_8  and  C_23
REMARK    6  A    between atoms: C_9  and  C_14
REMARK    7  A    between atoms: C_12  and  C_17
REMARK    8  A    between atoms: C_17  and  C_22
REMARK    9  A    between atoms: C_23  and  C_24
REMARK   10  A    between atoms: C_23  and  C_25
REMARK                            x       y       z     vdW  Elec       q    Type
REMARK                         _______ _______ _______ _____ _____    ______ ____
ROOT
ATOM      1  O   UNL     1      12.950   4.086   0.698  0.00  0.00    -0.366 OA
ATOM      9  C   UNL     1      13.293   4.905   1.829  0.00  0.00    +0.167 C 
ATOM     10  C   UNL     1      14.739   5.319   1.612  0.00  0.00    +0.176 C 
ATOM     11  C   UNL     1      15.315   4.080   0.956  0.00  0.00    +0.175 C 
ATOM     12  C   UNL     1      14.166   3.634   0.058  0.00  0.00    +0.158 C 
ENDROOT
BRANCH  10   2
ATOM      2  O   UNL     1      15.381   5.660   2.823  0.00  0.00    -0.387 OA
ATOM     28  H   UNL     1      14.697   5.979   3.437  0.00  0.00    +0.210 HD
ENDBRANCH  10   2
BRANCH  11   3
ATOM      3  O   UNL     1      15.535   3.062   1.931  0.00  0.00    -0.387 OA
ATOM     29  H   UNL     1      14.719   2.978   2.453  0.00  0.00    +0.210 HD
ENDBRANCH  11   3
BRANCH   9  14
ATOM     14  C   UNL     1      12.338   6.082   1.916  0.00  0.00    +0.140 C 
BRANCH  14   7
ATOM      4  O   UNL     1      10.091   4.769   3.140  0.00  0.00    -0.253 OA
ATOM      6  N   UNL     1      10.510   5.944   5.099  0.00  0.00    -0.297 N 
ATOM      7  N   UNL     1      11.863   6.265   3.257  0.00  0.00    -0.297 N 
ATOM     21  C   UNL     1      10.758   5.584   3.777  0.00  0.00    +0.300 C 
ATOM     26  H   UNL     1      11.165   6.574   5.551  0.00  0.00    +0.151 HD
ATOM     27  H   UNL     1      12.358   6.915   3.861  0.00  0.00    +0.150 HD
BRANCH   6  13
ATOM     13  C   UNL     1       9.425   5.390   5.879  0.00  0.00    +0.074 C 
ATOM     15  C   UNL     1       9.862   5.132   7.325  0.00  0.00    +0.022 C 
ATOM     16  C   UNL     1       8.191   6.297   5.825  0.00  0.00    +0.022 C 
ATOM     18  C   UNL     1      10.047   6.424   8.121  0.00  0.00    +0.002 C 
ATOM     19  C   UNL     1       8.378   7.587   6.625  0.00  0.00    +0.002 C 
ATOM     20  C   UNL     1       8.802   7.303   8.062  0.00  0.00    +0.000 C 
ENDBRANCH   6  13
ENDBRANCH  14   7
ENDBRANCH   9  14
BRANCH  12  17
ATOM     17  C   UNL     1      14.221   4.256  -1.331  0.00  0.00    +0.130 C 
BRANCH  17  22
ATOM      5  O   UNL     1      13.107   6.387  -1.598  0.00  0.00    -0.276 OA
ATOM      8  N   UNL     1      11.886   4.428  -1.873  0.00  0.00    -0.313 N 
ATOM     22  C   UNL     1      13.035   5.161  -1.610  0.00  0.00    +0.216 C 
ATOM     30  H   UNL     1      11.950   3.415  -1.917  0.00  0.00    +0.149 HD
BRANCH   8  23
ATOM     23  C   UNL     1      10.611   5.040  -2.169  0.00  0.00    +0.067 C 
ATOM     24  C   UNL     1       9.815   5.252  -0.887  0.00  0.00    +0.027 C 
ATOM     25  C   UNL     1       9.832   4.194  -3.169  0.00  0.00    +0.027 C 
ENDBRANCH   8  23
ENDBRANCH  17  22
ENDBRANCH  12  17
TORSDOF 8
ENDMDL
MODEL 7
REMARK VINA RESULT:      -5.8     34.235     37.402
REMARK  Name = 26744640
REMARK  10 active torsions:
REMARK  status: ('A' for Active; 'I' for Inactive)
REMARK    1  A    between atoms: O_2  and  C_10
REMARK    2  A    between atoms: O_3  and  C_11
REMARK    3  A    between atoms: N_6  and  C_13
REMARK    4  A    between atoms: N_7  and  C_14
REMARK    5  A    between atoms: N_8  and  C_23
REMARK    6  A    between atoms: C_9  and  C_14
REMARK    7  A    between atoms: C_12  and  C_17
REMARK    8  A    between atoms: C_17  and  C_22
REMARK    9  A    between atoms: C_23  and  C_24
REMARK   10  A    between atoms: C_23  and  C_25
REMARK                            x       y       z     vdW  Elec       q    Type
REMARK                         _______ _______ _______ _____ _____    ______ ____
ROOT
ATOM      1  O   UNL     1     -15.613   2.470  31.135  0.00  0.00    -0.366 OA
ATOM      9  C   UNL     1     -14.472   1.647  31.437  0.00  0.00    +0.167 C 
ATOM     10  C   UNL     1     -13.855   1.292  30.094  0.00  0.00    +0.176 C 
ATOM     11  C   UNL     1     -15.086   1.161  29.219  0.00  0.00    +0.175 C 
ATOM     12  C   UNL     1     -15.970   2.287  29.745  0.00  0.00    +0.158 C 
ENDROOT
BRANCH  10   2
ATOM      2  O   UNL     1     -13.088   0.109  30.160  0.00  0.00    -0.387 OA
ATOM     28  H   UNL     1     -13.312  -0.341  30.992  0.00  0.00    +0.210 HD
ENDBRANCH  10   2
BRANCH  11   3
ATOM      3  O   UNL     1     -15.746  -0.077  29.477  0.00  0.00    -0.387 OA
ATOM     29  H   UNL     1     -15.192  -0.579  30.099  0.00  0.00    +0.210 HD
ENDBRANCH  11   3
BRANCH   9  14
ATOM     14  C   UNL     1     -13.526   2.401  32.353  0.00  0.00    +0.140 C 
BRANCH  14   7
ATOM      4  O   UNL     1     -14.094   4.486  34.251  0.00  0.00    -0.253 OA
ATOM      6  N   UNL     1     -13.827   6.056  32.561  0.00  0.00    -0.297 N 
ATOM      7  N   UNL     1     -13.566   3.811  32.093  0.00  0.00    -0.297 N 
ATOM     21  C   UNL     1     -13.852   4.762  33.077  0.00  0.00    +0.300 C 
ATOM     26  H   UNL     1     -13.546   6.176  31.593  0.00  0.00    +0.151 HD
ATOM     27  H   UNL     1     -13.371   4.134  31.150  0.00  0.00    +0.150 HD
BRANCH   6  13
ATOM     13  C   UNL     1     -14.088   7.232  33.362  0.00  0.00    +0.074 C 
ATOM     15  C   UNL     1     -12.806   8.041  33.585  0.00  0.00    +0.022 C 
ATOM     16  C   UNL     1     -15.187   8.094  32.731  0.00  0.00    +0.022 C 
ATOM     18  C   UNL     1     -12.337   8.757  32.318  0.00  0.00    +0.002 C 
ATOM     19  C   UNL     1     -14.714   8.810  31.466  0.00  0.00    +0.002 C 
ATOM     20  C   UNL     1     -13.444   9.617  31.716  0.00  0.00    +0.000 C 
ENDBRANCH   6  13
ENDBRANCH  14   7
ENDBRANCH   9  14
BRANCH  12  17
ATOM     17  C   UNL     1     -15.739   3.609  29.027  0.00  0.00    +0.130 C 
BRANCH  17  22
ATOM      5  O   UNL     1     -17.765   3.986  27.760  0.00  0.00    -0.276 OA
ATOM      8  N   UNL     1     -15.789   3.526  26.626  0.00  0.00    -0.313 N 
ATOM     22  C   UNL     1     -16.564   3.734  27.758  0.00  0.00    +0.216 C 
ATOM     30  H   UNL     1     -14.789   3.384  26.735  0.00  0.00    +0.149 HD
BRANCH   8  23
ATOM     23  C   UNL     1     -16.323   3.584  25.284  0.00  0.00    +0.067 C 
ATOM     24  C   UNL     1     -16.848   2.217  24.864  0.00  0.00    +0.027 C 
ATOM     25  C   UNL     1     -15.266   4.093  24.311  0.00  0.00    +0.027 C 
ENDBRANCH   8  23
ENDBRANCH  17  22
ENDBRANCH  12  17
TORSDOF 8
ENDMDL
MODEL 8
REMARK VINA RESULT:      -5.8     16.598     18.880
REMARK  Name = 26744640
REMARK  10 active torsions:
REMARK  status: ('A' for Active; 'I' for Inactive)
REMARK    1  A    between atoms: O_2  and  C_10
REMARK    2  A    between atoms: O_3  and  C_11
REMARK    3  A    between atoms: N_6  and  C_13
REMARK    4  A    between atoms: N_7  and  C_14
REMARK    5  A    between atoms: N_8  and  C_23
REMARK    6  A    between atoms: C_9  and  C_14
REMARK    7  A    between atoms: C_12  and  C_17
REMARK    8  A    between atoms: C_17  and  C_22
REMARK    9  A    between atoms: C_23  and  C_24
REMARK   10  A    between atoms: C_23  and  C_25
REMARK                            x       y       z     vdW  Elec       q    Type
REMARK                         _______ _______ _______ _____ _____    ______ ____
ROOT
ATOM      1  O   UNL     1      12.555   7.697  21.824  0.00  0.00    -0.366 OA
ATOM      9  C   UNL     1      13.833   7.303  21.296  0.00  0.00    +0.167 C 
ATOM     10  C   UNL     1      13.792   7.649  19.817  0.00  0.00    +0.176 C 
ATOM     11  C   UNL     1      12.343   7.360  19.478  0.00  0.00    +0.175 C 
ATOM     12  C   UNL     1      11.621   7.849  20.729  0.00  0.00    +0.158 C 
ENDROOT
BRANCH  10   2
ATOM      2  O   UNL     1      14.706   6.878  19.066  0.00  0.00    -0.387 OA
ATOM     28  H   UNL     1      15.268   6.395  19.695  0.00  0.00    +0.210 HD
ENDBRANCH  10   2
BRANCH  11   3
ATOM      3  O   UNL     1      12.132   5.953  19.367  0.00  0.00    -0.387 OA
ATOM     29  H   UNL     1      11.576   5.683  20.118  0.00  0.00    +0.210 HD
ENDBRANCH  11   3
BRANCH   9  14
ATOM     14  C   UNL     1      14.940   8.018  22.050  0.00  0.00    +0.140 C 
BRANCH  14   7
ATOM      4  O   UNL     1      17.501   9.243  21.589  0.00  0.00    -0.253 OA
ATOM      6  N   UNL     1      18.469   7.133  21.540  0.00  0.00    -0.297 N 
ATOM      7  N   UNL     1      16.196   7.346  21.886  0.00  0.00    -0.297 N 
ATOM     21  C   UNL     1      17.402   8.019  21.665  0.00  0.00    +0.300 C 
ATOM     26  H   UNL     1      18.286   6.146  21.690  0.00  0.00    +0.151 HD
ATOM     27  H   UNL     1      16.213   6.331  21.941  0.00  0.00    +0.150 HD
BRANCH   6  13
ATOM     13  C   UNL     1      19.830   7.562  21.307  0.00  0.00    +0.074 C 
ATOM     15  C   UNL     1      20.516   7.955  22.619  0.00  0.00    +0.022 C 
ATOM     16  C   UNL     1      20.626   6.483  20.564  0.00  0.00    +0.022 C 
ATOM     18  C   UNL     1      20.832   6.746  23.500  0.00  0.00    +0.002 C 
ATOM     19  C   UNL     1      20.942   5.277  21.449  0.00  0.00    +0.002 C 
ATOM     20  C   UNL     1      21.635   5.693  22.743  0.00  0.00    +0.000 C 
ENDBRANCH   6  13
ENDBRANCH  14   7
ENDBRANCH   9  14
BRANCH  12  17
ATOM     17  C   UNL     1      11.228   9.318  20.653  0.00  0.00    +0.130 C 
BRANCH  17  22
ATOM      5  O   UNL     1      10.453   9.996  22.842  0.00  0.00    -0.276 OA
ATOM      8  N   UNL     1      12.556  10.678  22.124  0.00  0.00    -0.313 N 
ATOM     22  C   UNL     1      11.340  10.020  21.994  0.00  0.00    +0.216 C 
ATOM     30  H   UNL     1      13.246  10.582  21.384  0.00  0.00    +0.149 HD
BRANCH   8  23
ATOM     23  C   UNL     1      12.924  11.429  23.301  0.00  0.00    +0.067 C 
ATOM     24  C   UNL     1      12.547  12.895  23.132  0.00  0.00    +0.027 C 
ATOM     25  C   UNL     1      14.412  11.272  23.591  0.00  0.00    +0.027 C 
ENDBRANCH   8  23
ENDBRANCH  17  22
ENDBRANCH  12  17
TORSDOF 8
ENDMDL
MODEL 9
REMARK VINA RESULT:      -5.5     29.919     33.816
REMARK  Name = 26744640
REMARK  10 active torsions:
REMARK  status: ('A' for Active; 'I' for Inactive)
REMARK    1  A    between atoms: O_2  and  C_10
REMARK    2  A    between atoms: O_3  and  C_11
REMARK    3  A    between atoms: N_6  and  C_13
REMARK    4  A    between atoms: N_7  and  C_14
REMARK    5  A    between atoms: N_8  and  C_23
REMARK    6  A    between atoms: C_9  and  C_14
REMARK    7  A    between atoms: C_12  and  C_17
REMARK    8  A    between atoms: C_17  and  C_22
REMARK    9  A    between atoms: C_23  and  C_24
REMARK   10  A    between atoms: C_23  and  C_25
REMARK                            x       y       z     vdW  Elec       q    Type
REMARK                         _______ _______ _______ _____ _____    ______ ____
ROOT
ATOM      1  O   UNL     1     -16.464   5.618  22.538  0.00  0.00    -0.366 OA
ATOM      9  C   UNL     1     -15.985   4.704  23.539  0.00  0.00    +0.167 C 
ATOM     10  C   UNL     1     -14.514   5.036  23.729  0.00  0.00    +0.176 C 
ATOM     11  C   UNL     1     -14.103   5.413  22.320  0.00  0.00    +0.175 C 
ATOM     12  C   UNL     1     -15.333   6.168  21.823  0.00  0.00    +0.158 C 
ENDROOT
BRANCH  10   2
ATOM      2  O   UNL     1     -13.786   3.944  24.250  0.00  0.00    -0.387 OA
ATOM     28  H   UNL     1     -13.896   3.953  25.216  0.00  0.00    +0.210 HD
ENDBRANCH  10   2
BRANCH  11   3
ATOM      3  O   UNL     1     -13.949   4.243  21.520  0.00  0.00    -0.387 OA
ATOM     29  H   UNL     1     -13.398   4.484  20.755  0.00  0.00    +0.210 HD
ENDBRANCH  11   3
BRANCH   9  14
ATOM     14  C   UNL     1     -16.805   4.859  24.808  0.00  0.00    +0.140 C 
BRANCH  14   7
ATOM      4  O   UNL     1     -17.902   4.187  27.380  0.00  0.00    -0.253 OA
ATOM      6  N   UNL     1     -15.766   3.646  28.116  0.00  0.00    -0.297 N 
ATOM      7  N   UNL     1     -16.082   4.387  25.953  0.00  0.00    -0.297 N 
ATOM     21  C   UNL     1     -16.694   4.081  27.172  0.00  0.00    +0.300 C 
ATOM     26  H   UNL     1     -14.804   3.529  27.817  0.00  0.00    +0.151 HD
ATOM     27  H   UNL     1     -15.077   4.262  25.872  0.00  0.00    +0.150 HD
BRANCH   6  13
ATOM     13  C   UNL     1     -16.130   3.264  29.462  0.00  0.00    +0.074 C 
ATOM     15  C   UNL     1     -16.446   1.767  29.544  0.00  0.00    +0.022 C 
ATOM     16  C   UNL     1     -15.033   3.655  30.459  0.00  0.00    +0.022 C 
ATOM     18  C   UNL     1     -15.196   0.896  29.414  0.00  0.00    +0.002 C 
ATOM     19  C   UNL     1     -13.786   2.781  30.328  0.00  0.00    +0.002 C 
ATOM     20  C   UNL     1     -14.124   1.297  30.424  0.00  0.00    +0.000 C 
ENDBRANCH   6  13
ENDBRANCH  14   7
ENDBRANCH   9  14
BRANCH  12  17
ATOM     17  C   UNL     1     -15.275   7.660  22.118  0.00  0.00    +0.130 C 
BRANCH  17  22
ATOM      5  O   UNL     1     -13.406   9.196  22.077  0.00  0.00    -0.276 OA
ATOM      8  N   UNL     1     -13.792   7.832  20.235  0.00  0.00    -0.313 N 
ATOM     22  C   UNL     1     -14.058   8.327  21.504  0.00  0.00    +0.216 C 
ATOM     30  H   UNL     1     -14.359   7.068  19.878  0.00  0.00    +0.149 HD
BRANCH   8  23
ATOM     23  C   UNL     1     -12.690   8.294  19.423  0.00  0.00    +0.067 C 
ATOM     24  C   UNL     1     -13.023   8.142  17.944  0.00  0.00    +0.027 C 
ATOM     25  C   UNL     1     -11.411   7.545  19.781  0.00  0.00    +0.027 C 
ENDBRANCH   8  23
ENDBRANCH  17  22
ENDBRANCH  12  17
TORSDOF 8
ENDMDL
MODEL 10
REMARK VINA RESULT:      -5.3     33.281     36.709
REMARK  Name = 26744640
REMARK  10 active torsions:
REMARK  status: ('A' for Active; 'I' for Inactive)
REMARK    1  A    between atoms: O_2  and  C_10
REMARK    2  A    between atoms: O_3  and  C_11
REMARK    3  A    between atoms: N_6  and  C_13
REMARK    4  A    between atoms: N_7  and  C_14
REMARK    5  A    between atoms: N_8  and  C_23
REMARK    6  A    between atoms: C_9  and  C_14
REMARK    7  A    between atoms: C_12  and  C_17
REMARK    8  A    between atoms: C_17  and  C_22
REMARK    9  A    between atoms: C_23  and  C_24
REMARK   10  A    between atoms: C_23  and  C_25
REMARK                            x       y       z     vdW  Elec       q    Type
REMARK                         _______ _______ _______ _____ _____    ______ ____
ROOT
ATOM      1  O   UNL     1     -15.129   4.094  30.767  0.00  0.00    -0.366 OA
ATOM      9  C   UNL     1     -14.594   3.173  29.800  0.00  0.00    +0.167 C 
ATOM     10  C   UNL     1     -14.080   1.989  30.600  0.00  0.00    +0.176 C 
ATOM     11  C   UNL     1     -13.560   2.669  31.851  0.00  0.00    +0.175 C 
ATOM     12  C   UNL     1     -14.603   3.761  32.073  0.00  0.00    +0.158 C 
ENDROOT
BRANCH  10   2
ATOM      2  O   UNL     1     -13.086   1.268  29.903  0.00  0.00    -0.387 OA
ATOM     28  H   UNL     1     -12.689   0.637  30.527  0.00  0.00    +0.210 HD
ENDBRANCH  10   2
BRANCH  11   3
ATOM      3  O   UNL     1     -12.308   3.300  31.587  0.00  0.00    -0.387 OA
ATOM     29  H   UNL     1     -11.677   2.603  31.340  0.00  0.00    +0.210 HD
ENDBRANCH  11   3
BRANCH   9  14
ATOM     14  C   UNL     1     -15.674   2.799  28.800  0.00  0.00    +0.140 C 
BRANCH  14   7
ATOM      4  O   UNL     1     -16.532   2.175  26.127  0.00  0.00    -0.253 OA
ATOM      6  N   UNL     1     -15.967   4.331  25.474  0.00  0.00    -0.297 N 
ATOM      7  N   UNL     1     -15.655   3.676  27.665  0.00  0.00    -0.297 N 
ATOM     21  C   UNL     1     -16.093   3.293  26.394  0.00  0.00    +0.300 C 
ATOM     26  H   UNL     1     -15.658   5.235  25.817  0.00  0.00    +0.151 HD
ATOM     27  H   UNL     1     -15.313   4.624  27.793  0.00  0.00    +0.150 HD
BRANCH   6  13
ATOM     13  C   UNL     1     -16.347   4.206  24.084  0.00  0.00    +0.074 C 
ATOM     15  C   UNL     1     -17.529   5.122  23.752  0.00  0.00    +0.022 C 
ATOM     16  C   UNL     1     -15.154   4.480  23.162  0.00  0.00    +0.022 C 
ATOM     18  C   UNL     1     -17.135   6.599  23.724  0.00  0.00    +0.002 C 
ATOM     19  C   UNL     1     -14.765   5.958  23.134  0.00  0.00    +0.002 C 
ATOM     20  C   UNL     1     -15.955   6.849  22.790  0.00  0.00    +0.000 C 
ENDBRANCH   6  13
ENDBRANCH  14   7
ENDBRANCH   9  14
BRANCH  12  17
ATOM     17  C   UNL     1     -15.766   3.304  32.942  0.00  0.00    +0.130 C 
BRANCH  17  22
ATOM      5  O   UNL     1     -17.799   4.261  33.840  0.00  0.00    -0.276 OA
ATOM      8  N   UNL     1     -16.222   5.662  32.864  0.00  0.00    -0.313 N 
ATOM     22  C   UNL     1     -16.722   4.435  33.276  0.00  0.00    +0.216 C 
ATOM     30  H   UNL     1     -15.290   5.701  32.460  0.00  0.00    +0.149 HD
BRANCH   8  23
ATOM     23  C   UNL     1     -16.930   6.907  33.055  0.00  0.00    +0.067 C 
ATOM     24  C   UNL     1     -17.770   7.232  31.827  0.00  0.00    +0.027 C 
ATOM     25  C   UNL     1     -15.953   8.034  33.370  0.00  0.00    +0.027 C 
ENDBRANCH   8  23
ENDBRANCH  17  22
ENDBRANCH  12  17
TORSDOF 8
ENDMDL
