MODEL 1
REMARK VINA RESULT:      -6.8      0.000      0.000
REMARK  Name = 7135239
REMARK  9 active torsions:
REMARK  status: ('A' for Active; 'I' for Inactive)
REMARK    1  A    between atoms: O_3  and  C_17
REMARK    2  A    between atoms: O_4  and  C_22
REMARK    3  A    between atoms: C_12  and  C_20
REMARK    4  A    between atoms: C_14  and  C_22
REMARK    5  A    between atoms: C_14  and  C_23
REMARK    6  A    between atoms: C_15  and  C_25
REMARK    7  A    between atoms: C_25  and  C_26
REMARK    8  A    between atoms: C_32  and  C_34
REMARK    9  A    between atoms: C_33  and  C_35
REMARK                            x       y       z     vdW  Elec       q    Type
REMARK                         _______ _______ _______ _____ _____    ______ ____
ROOT
ATOM      1  S   UNL     1     -10.602 -10.923  19.862  0.00  0.00    -0.057 S 
ATOM      6  O   UNL     1      -7.437  -9.494  16.812  0.00  0.00    -0.269 OA
ATOM      8  N   UNL     1     -10.210  -9.533  17.715  0.00  0.00    -0.229 NA
ATOM     10  N   UNL     1      -8.281 -10.604  18.686  0.00  0.00    -0.260 N 
ATOM     12  C   UNL     1     -14.030  -9.065  17.476  0.00  0.00    -0.019 C 
ATOM     13  C   UNL     1     -14.214  -9.116  19.057  0.00  0.00    +0.011 C 
ATOM     14  C   UNL     1     -15.692  -9.089  19.606  0.00  0.00    +0.021 C 
ATOM     15  C   UNL     1     -12.514  -8.663  17.169  0.00  0.00    +0.054 C 
ATOM     16  C   UNL     1     -14.956  -7.970  16.884  0.00  0.00    +0.010 C 
ATOM     17  C   UNL     1     -16.489  -7.970  18.877  0.00  0.00    +0.123 C 
ATOM     18  C   UNL     1     -13.327 -10.224  19.697  0.00  0.00    +0.049 C 
ATOM     19  C   UNL     1     -16.398  -8.060  17.358  0.00  0.00    +0.032 C 
ATOM     20  C   UNL     1     -14.355 -10.414  16.788  0.00  0.00    +0.012 C 
ATOM     21  C   UNL     1     -11.559  -9.468  18.013  0.00  0.00    +0.058 A 
ATOM     23  C   UNL     1     -15.664  -8.727  21.119  0.00  0.00    +0.016 C 
ATOM     24  C   UNL     1     -11.941 -10.145  19.152  0.00  0.00    +0.015 A 
ATOM     27  C   UNL     1      -9.610 -10.279  18.617  0.00  0.00    +0.165 A 
ATOM     32  C   UNL     1      -7.257 -10.207  17.797  0.00  0.00    +0.256 C 
ATOM     41  H   UNL     1      -8.028 -11.202  19.468  0.00  0.00    +0.157 HD
ENDROOT
BRANCH  32  34
ATOM      2  S   UNL     1      -4.667 -10.564  16.949  0.00  0.00    -0.092 S 
ATOM     34  C   UNL     1      -5.922 -10.752  18.098  0.00  0.00    +0.074 A 
ATOM     36  C   UNL     1      -5.497 -11.428  19.221  0.00  0.00    +0.021 A 
ATOM     37  C   UNL     1      -4.124 -11.796  19.137  0.00  0.00    +0.008 A 
ATOM     38  C   UNL     1      -3.550 -11.388  17.953  0.00  0.00    +0.046 A 
ENDBRANCH  32  34
BRANCH  17   3
ATOM      3  O   UNL     1     -17.865  -8.003  19.258  0.00  0.00    -0.391 OA
ATOM     39  H   UNL     1     -17.903  -7.961  20.228  0.00  0.00    +0.210 HD
ENDBRANCH  17   3
BRANCH  14  22
ATOM     22  C   UNL     1     -16.435 -10.442  19.517  0.00  0.00    +0.165 C 
BRANCH  22   4
ATOM      4  O   UNL     1     -17.280 -10.545  20.640  0.00  0.00    -0.394 OA
ATOM     40  H   UNL     1     -17.413  -9.647  20.986  0.00  0.00    +0.209 HD
ENDBRANCH  22   4
ENDBRANCH  14  22
BRANCH  15  25
ATOM     25  C   UNL     1     -12.129  -8.711  15.684  0.00  0.00    +0.106 C 
BRANCH  25  26
ATOM      5  O   UNL     1     -10.732  -6.798  15.742  0.00  0.00    -0.276 OA
ATOM      7  O   UNL     1     -16.195  -5.150  11.437  0.00  0.00    -0.276 OA
ATOM      9  N   UNL     1     -12.477  -6.761  14.210  0.00  0.00    -0.298 N 
ATOM     11  N   UNL     1     -14.487  -5.164  13.011  0.00  0.00    -0.299 N 
ATOM     26  C   UNL     1     -11.710  -7.339  15.220  0.00  0.00    +0.216 C 
ATOM     28  C   UNL     1     -12.138  -5.428  13.705  0.00  0.00    +0.126 C 
ATOM     29  C   UNL     1     -13.600  -7.407  13.518  0.00  0.00    +0.126 C 
ATOM     30  C   UNL     1     -13.363  -4.518  13.701  0.00  0.00    +0.126 C 
ATOM     31  C   UNL     1     -14.826  -6.497  13.515  0.00  0.00    +0.126 C 
ATOM     33  C   UNL     1     -15.254  -4.585  12.002  0.00  0.00    +0.213 C 
ATOM     35  C   UNL     1     -14.887  -3.181  11.595  0.00  0.00    +0.109 C 
ENDBRANCH  25  26
ENDBRANCH  15  25
TORSDOF 6
ENDMDL
MODEL 2
REMARK VINA RESULT:      -6.5      4.483      7.878
REMARK  Name = 7135239
REMARK  9 active torsions:
REMARK  status: ('A' for Active; 'I' for Inactive)
REMARK    1  A    between atoms: O_3  and  C_17
REMARK    2  A    between atoms: O_4  and  C_22
REMARK    3  A    between atoms: C_12  and  C_20
REMARK    4  A    between atoms: C_14  and  C_22
REMARK    5  A    between atoms: C_14  and  C_23
REMARK    6  A    between atoms: C_15  and  C_25
REMARK    7  A    between atoms: C_25  and  C_26
REMARK    8  A    between atoms: C_32  and  C_34
REMARK    9  A    between atoms: C_33  and  C_35
REMARK                            x       y       z     vdW  Elec       q    Type
REMARK                         _______ _______ _______ _____ _____    ______ ____
ROOT
ATOM      1  S   UNL     1      -5.572 -10.991  12.619  0.00  0.00    -0.057 S 
ATOM      6  O   UNL     1      -8.705  -8.430  10.385  0.00  0.00    -0.269 OA
ATOM      8  N   UNL     1      -7.724  -9.578  12.880  0.00  0.00    -0.229 NA
ATOM     10  N   UNL     1      -6.812  -9.773  10.657  0.00  0.00    -0.260 N 
ATOM     12  C   UNL     1      -7.852 -10.692  16.569  0.00  0.00    -0.019 C 
ATOM     13  C   UNL     1      -6.267 -10.801  16.673  0.00  0.00    +0.011 C 
ATOM     14  C   UNL     1      -5.675 -11.368  18.021  0.00  0.00    +0.021 C 
ATOM     15  C   UNL     1      -8.201  -9.715  15.354  0.00  0.00    +0.054 C 
ATOM     16  C   UNL     1      -8.413 -10.068  17.874  0.00  0.00    +0.010 C 
ATOM     17  C   UNL     1      -6.377 -10.672  19.221  0.00  0.00    +0.123 C 
ATOM     18  C   UNL     1      -5.656 -11.452  15.398  0.00  0.00    +0.049 C 
ATOM     19  C   UNL     1      -7.898 -10.728  19.144  0.00  0.00    +0.032 C 
ATOM     20  C   UNL     1      -8.536 -12.063  16.341  0.00  0.00    +0.012 C 
ATOM     21  C   UNL     1      -7.387 -10.060  14.132  0.00  0.00    +0.058 A 
ATOM     23  C   UNL     1      -4.163 -11.015  18.099  0.00  0.00    +0.016 C 
ATOM     24  C   UNL     1      -6.240 -10.825  14.176  0.00  0.00    +0.015 A 
ATOM     27  C   UNL     1      -6.842 -10.012  12.005  0.00  0.00    +0.165 A 
ATOM     32  C   UNL     1      -7.729  -9.003   9.906  0.00  0.00    +0.256 C 
ATOM     41  H   UNL     1      -6.041 -10.212  10.163  0.00  0.00    +0.157 HD
ENDROOT
BRANCH  32  34
ATOM      2  S   UNL     1      -6.297 -10.020   7.790  0.00  0.00    -0.092 S 
ATOM     34  C   UNL     1      -7.467  -8.961   8.456  0.00  0.00    +0.074 A 
ATOM     36  C   UNL     1      -8.047  -8.161   7.496  0.00  0.00    +0.021 A 
ATOM     37  C   UNL     1      -7.524  -8.421   6.196  0.00  0.00    +0.008 A 
ATOM     38  C   UNL     1      -6.564  -9.408   6.212  0.00  0.00    +0.046 A 
ENDBRANCH  32  34
BRANCH  17   3
ATOM      3  O   UNL     1      -5.957 -11.253  20.456  0.00  0.00    -0.391 OA
ATOM     39  H   UNL     1      -5.823 -12.204  20.303  0.00  0.00    +0.210 HD
ENDBRANCH  17   3
BRANCH  14  22
ATOM     22  C   UNL     1      -5.750 -12.906  18.157  0.00  0.00    +0.165 C 
BRANCH  22   4
ATOM      4  O   UNL     1      -4.488 -13.363  18.589  0.00  0.00    -0.394 OA
ATOM     40  H   UNL     1      -3.828 -12.714  18.291  0.00  0.00    +0.209 HD
ENDBRANCH  22   4
ENDBRANCH  14  22
BRANCH  15  25
ATOM     25  C   UNL     1      -9.695  -9.615  15.024  0.00  0.00    +0.106 C 
BRANCH  25  26
ATOM      5  O   UNL     1      -9.707  -7.589  16.253  0.00  0.00    -0.276 OA
ATOM      7  O   UNL     1     -15.218  -7.205  11.717  0.00  0.00    -0.276 OA
ATOM      9  N   UNL     1     -11.182  -7.725  14.464  0.00  0.00    -0.298 N 
ATOM     11  N   UNL     1     -13.786  -7.093  13.542  0.00  0.00    -0.299 N 
ATOM     26  C   UNL     1     -10.189  -8.219  15.308  0.00  0.00    +0.216 C 
ATOM     28  C   UNL     1     -11.718  -6.378  14.674  0.00  0.00    +0.126 C 
ATOM     29  C   UNL     1     -11.724  -8.420  13.288  0.00  0.00    +0.126 C 
ATOM     30  C   UNL     1     -13.243  -6.398  14.716  0.00  0.00    +0.126 C 
ATOM     31  C   UNL     1     -13.250  -8.441  13.331  0.00  0.00    +0.126 C 
ATOM     33  C   UNL     1     -14.780  -6.600  12.699  0.00  0.00    +0.213 C 
ATOM     35  C   UNL     1     -15.332  -5.237  13.031  0.00  0.00    +0.109 C 
ENDBRANCH  25  26
ENDBRANCH  15  25
TORSDOF 6
ENDMDL
MODEL 3
REMARK VINA RESULT:      -6.4     30.852     35.462
REMARK  Name = 7135239
REMARK  9 active torsions:
REMARK  status: ('A' for Active; 'I' for Inactive)
REMARK    1  A    between atoms: O_3  and  C_17
REMARK    2  A    between atoms: O_4  and  C_22
REMARK    3  A    between atoms: C_12  and  C_20
REMARK    4  A    between atoms: C_14  and  C_22
REMARK    5  A    between atoms: C_14  and  C_23
REMARK    6  A    between atoms: C_15  and  C_25
REMARK    7  A    between atoms: C_25  and  C_26
REMARK    8  A    between atoms: C_32  and  C_34
REMARK    9  A    between atoms: C_33  and  C_35
REMARK                            x       y       z     vdW  Elec       q    Type
REMARK                         _______ _______ _______ _____ _____    ______ ____
ROOT
ATOM      1  S   UNL     1      17.575   5.962  19.640  0.00  0.00    -0.057 S 
ATOM      6  O   UNL     1      21.203   8.191  21.439  0.00  0.00    -0.269 OA
ATOM      8  N   UNL     1      18.348   8.116  20.848  0.00  0.00    -0.229 NA
ATOM     10  N   UNL     1      20.043   6.471  20.366  0.00  0.00    -0.260 N 
ATOM     12  C   UNL     1      14.780   9.501  20.384  0.00  0.00    -0.019 C 
ATOM     13  C   UNL     1      14.123   8.052  20.459  0.00  0.00    +0.011 C 
ATOM     14  C   UNL     1      12.570   7.956  20.198  0.00  0.00    +0.021 C 
ATOM     15  C   UNL     1      16.209   9.432  21.094  0.00  0.00    +0.054 C 
ATOM     16  C   UNL     1      13.895  10.509  21.165  0.00  0.00    +0.010 C 
ATOM     17  C   UNL     1      11.844   9.061  21.017  0.00  0.00    +0.123 C 
ATOM     18  C   UNL     1      14.958   7.008  19.663  0.00  0.00    +0.049 C 
ATOM     19  C   UNL     1      12.421  10.454  20.791  0.00  0.00    +0.032 C 
ATOM     20  C   UNL     1      14.949  10.011  18.932  0.00  0.00    +0.012 C 
ATOM     21  C   UNL     1      16.987   8.227  20.628  0.00  0.00    +0.058 A 
ATOM     23  C   UNL     1      12.054   6.583  20.714  0.00  0.00    +0.016 C 
ATOM     24  C   UNL     1      16.404   7.144  20.004  0.00  0.00    +0.015 A 
ATOM     27  C   UNL     1      18.765   6.967  20.362  0.00  0.00    +0.165 A 
ATOM     32  C   UNL     1      21.198   7.089  20.895  0.00  0.00    +0.256 C 
ATOM     41  H   UNL     1      20.146   5.559  19.929  0.00  0.00    +0.157 HD
ENDROOT
BRANCH  32  34
ATOM      2  S   UNL     1      23.945   7.158  20.833  0.00  0.00    -0.092 S 
ATOM     34  C   UNL     1      22.449   6.333  20.711  0.00  0.00    +0.074 A 
ATOM     36  C   UNL     1      22.619   4.993  20.440  0.00  0.00    +0.021 A 
ATOM     37  C   UNL     1      23.994   4.639  20.333  0.00  0.00    +0.008 A 
ATOM     38  C   UNL     1      24.825   5.721  20.524  0.00  0.00    +0.046 A 
ENDBRANCH  32  34
BRANCH  17   3
ATOM      3  O   UNL     1      10.451   9.085  20.704  0.00  0.00    -0.391 OA
ATOM     39  H   UNL     1      10.019   9.692  21.330  0.00  0.00    +0.210 HD
ENDBRANCH  17   3
BRANCH  14  22
ATOM     22  C   UNL     1      12.165   8.019  18.708  0.00  0.00    +0.165 C 
BRANCH  22   4
ATOM      4  O   UNL     1      12.027   6.696  18.241  0.00  0.00    -0.394 OA
ATOM     40  H   UNL     1      12.919   6.313  18.192  0.00  0.00    +0.209 HD
ENDBRANCH  22   4
ENDBRANCH  14  22
BRANCH  15  25
ATOM     25  C   UNL     1      17.041  10.716  20.981  0.00  0.00    +0.106 C 
BRANCH  25  26
ATOM      5  O   UNL     1      16.380  11.416  23.147  0.00  0.00    -0.276 OA
ATOM      7  O   UNL     1      23.243  13.288  22.452  0.00  0.00    -0.276 OA
ATOM      9  N   UNL     1      18.642  11.587  22.647  0.00  0.00    -0.298 N 
ATOM     11  N   UNL     1      20.973  13.173  22.928  0.00  0.00    -0.299 N 
ATOM     26  C   UNL     1      17.316  11.269  22.357  0.00  0.00    +0.216 C 
ATOM     28  C   UNL     1      18.992  12.133  23.961  0.00  0.00    +0.126 C 
ATOM     29  C   UNL     1      19.787  11.356  21.757  0.00  0.00    +0.126 C 
ATOM     30  C   UNL     1      19.828  13.402  23.819  0.00  0.00    +0.126 C 
ATOM     31  C   UNL     1      20.623  12.627  21.615  0.00  0.00    +0.126 C 
ATOM     33  C   UNL     1      22.298  13.491  23.218  0.00  0.00    +0.213 C 
ATOM     35  C   UNL     1      22.563  14.121  24.562  0.00  0.00    +0.109 C 
ENDBRANCH  25  26
ENDBRANCH  15  25
TORSDOF 6
ENDMDL
MODEL 4
REMARK VINA RESULT:      -6.3     28.148     31.733
REMARK  Name = 7135239
REMARK  9 active torsions:
REMARK  status: ('A' for Active; 'I' for Inactive)
REMARK    1  A    between atoms: O_3  and  C_17
REMARK    2  A    between atoms: O_4  and  C_22
REMARK    3  A    between atoms: C_12  and  C_20
REMARK    4  A    between atoms: C_14  and  C_22
REMARK    5  A    between atoms: C_14  and  C_23
REMARK    6  A    between atoms: C_15  and  C_25
REMARK    7  A    between atoms: C_25  and  C_26
REMARK    8  A    between atoms: C_32  and  C_34
REMARK    9  A    between atoms: C_33  and  C_35
REMARK                            x       y       z     vdW  Elec       q    Type
REMARK                         _______ _______ _______ _____ _____    ______ ____
ROOT
ATOM      1  S   UNL     1      11.309   3.570   2.456  0.00  0.00    -0.057 S 
ATOM      6  O   UNL     1       9.159   6.771   5.004  0.00  0.00    -0.269 OA
ATOM      8  N   UNL     1      10.119   5.867   2.402  0.00  0.00    -0.229 NA
ATOM     10  N   UNL     1      10.289   4.779   4.547  0.00  0.00    -0.260 N 
ATOM     12  C   UNL     1      11.122   6.155  -1.309  0.00  0.00    -0.019 C 
ATOM     13  C   UNL     1      11.063   4.579  -1.529  0.00  0.00    +0.011 C 
ATOM     14  C   UNL     1      11.522   4.035  -2.936  0.00  0.00    +0.021 C 
ATOM     15  C   UNL     1      10.226   6.509  -0.035  0.00  0.00    +0.054 C 
ATOM     16  C   UNL     1      10.518   6.871  -2.546  0.00  0.00    +0.010 C 
ATOM     17  C   UNL     1      10.864   4.890  -4.056  0.00  0.00    +0.123 C 
ATOM     18  C   UNL     1      11.688   3.813  -0.326  0.00  0.00    +0.049 C 
ATOM     19  C   UNL     1      11.081   6.388  -3.875  0.00  0.00    +0.032 C 
ATOM     20  C   UNL     1      12.562   6.678  -1.088  0.00  0.00    +0.012 C 
ATOM     21  C   UNL     1      10.523   5.577   1.112  0.00  0.00    +0.058 A 
ATOM     23  C   UNL     1      11.012   2.576  -3.107  0.00  0.00    +0.016 C 
ATOM     24  C   UNL     1      11.164   4.366   0.957  0.00  0.00    +0.015 A 
ATOM     27  C   UNL     1      10.487   4.884   3.195  0.00  0.00    +0.165 A 
ATOM     32  C   UNL     1       9.642   5.709   5.390  0.00  0.00    +0.256 C 
ATOM     41  H   UNL     1      10.661   3.932   4.967  0.00  0.00    +0.157 HD
ENDROOT
BRANCH  32  34
ATOM      2  S   UNL     1       9.458   6.587   7.989  0.00  0.00    -0.092 S 
ATOM     34  C   UNL     1       9.620   5.347   6.818  0.00  0.00    +0.074 A 
ATOM     36  C   UNL     1       9.714   4.100   7.396  0.00  0.00    +0.021 A 
ATOM     37  C   UNL     1       9.652   4.162   8.818  0.00  0.00    +0.008 A 
ATOM     38  C   UNL     1       9.513   5.454   9.274  0.00  0.00    +0.046 A 
ENDBRANCH  32  34
BRANCH  17   3
ATOM      3  O   UNL     1      11.360   4.506  -5.339  0.00  0.00    -0.391 OA
ATOM     39  H   UNL     1      11.473   3.541  -5.335  0.00  0.00    +0.210 HD
ENDBRANCH  17   3
BRANCH  14  22
ATOM     22  C   UNL     1      13.055   3.963  -3.127  0.00  0.00    +0.165 C 
BRANCH  22   4
ATOM      4  O   UNL     1      13.333   2.876  -3.980  0.00  0.00    -0.394 OA
ATOM     40  H   UNL     1      13.882   2.249  -3.479  0.00  0.00    +0.209 HD
ENDBRANCH  22   4
ENDBRANCH  14  22
BRANCH  15  25
ATOM     25  C   UNL     1      10.291   7.978   0.403  0.00  0.00    +0.106 C 
BRANCH  25  26
ATOM      5  O   UNL     1       8.287   8.537  -0.732  0.00  0.00    -0.276 OA
ATOM      7  O   UNL     1       8.019  11.905   5.567  0.00  0.00    -0.276 OA
ATOM      9  N   UNL     1       8.445   9.209   1.486  0.00  0.00    -0.298 N 
ATOM     11  N   UNL     1       7.888  11.285   3.333  0.00  0.00    -0.299 N 
ATOM     26  C   UNL     1       8.918   8.596   0.327  0.00  0.00    +0.216 C 
ATOM     28  C   UNL     1       7.120   9.836   1.493  0.00  0.00    +0.126 C 
ATOM     29  C   UNL     1       9.138   9.233   2.780  0.00  0.00    +0.126 C 
ATOM     30  C   UNL     1       7.194  11.260   2.038  0.00  0.00    +0.126 C 
ATOM     31  C   UNL     1       9.213  10.657   3.325  0.00  0.00    +0.126 C 
ATOM     33  C   UNL     1       7.416  11.898   4.491  0.00  0.00    +0.213 C 
ATOM     35  C   UNL     1       6.079  12.588   4.392  0.00  0.00    +0.109 C 
ENDBRANCH  25  26
ENDBRANCH  15  25
TORSDOF 6
ENDMDL
MODEL 5
REMARK VINA RESULT:      -6.3      2.846      3.910
REMARK  Name = 7135239
REMARK  9 active torsions:
REMARK  status: ('A' for Active; 'I' for Inactive)
REMARK    1  A    between atoms: O_3  and  C_17
REMARK    2  A    between atoms: O_4  and  C_22
REMARK    3  A    between atoms: C_12  and  C_20
REMARK    4  A    between atoms: C_14  and  C_22
REMARK    5  A    between atoms: C_14  and  C_23
REMARK    6  A    between atoms: C_15  and  C_25
REMARK    7  A    between atoms: C_25  and  C_26
REMARK    8  A    between atoms: C_32  and  C_34
REMARK    9  A    between atoms: C_33  and  C_35
REMARK                            x       y       z     vdW  Elec       q    Type
REMARK                         _______ _______ _______ _____ _____    ______ ____
ROOT
ATOM      1  S   UNL     1      -7.218 -13.159  18.222  0.00  0.00    -0.057 S 
ATOM      6  O   UNL     1      -5.878  -9.607  15.585  0.00  0.00    -0.269 OA
ATOM      8  N   UNL     1      -7.981 -10.966  17.080  0.00  0.00    -0.229 NA
ATOM     10  N   UNL     1      -5.677 -11.607  16.776  0.00  0.00    -0.260 N 
ATOM     12  C   UNL     1     -11.577 -11.786  18.203  0.00  0.00    -0.019 C 
ATOM     13  C   UNL     1     -11.080 -12.545  19.512  0.00  0.00    +0.011 C 
ATOM     14  C   UNL     1     -12.181 -13.256  20.389  0.00  0.00    +0.021 C 
ATOM     15  C   UNL     1     -10.413 -10.799  17.732  0.00  0.00    +0.054 C 
ATOM     16  C   UNL     1     -12.830 -10.936  18.545  0.00  0.00    +0.010 C 
ATOM     17  C   UNL     1     -13.378 -12.286  20.595  0.00  0.00    +0.123 C 
ATOM     18  C   UNL     1      -9.840 -13.438  19.215  0.00  0.00    +0.049 C 
ATOM     19  C   UNL     1     -13.911 -11.704  19.291  0.00  0.00    +0.032 C 
ATOM     20  C   UNL     1     -11.934 -12.752  17.047  0.00  0.00    +0.012 C 
ATOM     21  C   UNL     1      -9.076 -11.498  17.736  0.00  0.00    +0.058 A 
ATOM     23  C   UNL     1     -11.588 -13.565  21.794  0.00  0.00    +0.016 C 
ATOM     24  C   UNL     1      -8.837 -12.670  18.422  0.00  0.00    +0.015 A 
ATOM     27  C   UNL     1      -6.949 -11.761  17.261  0.00  0.00    +0.165 A 
ATOM     32  C   UNL     1      -5.193 -10.553  15.969  0.00  0.00    +0.256 C 
ATOM     41  H   UNL     1      -5.030 -12.347  17.033  0.00  0.00    +0.157 HD
ENDROOT
BRANCH  32  34
ATOM      2  S   UNL     1      -3.410 -10.791  13.890  0.00  0.00    -0.092 S 
ATOM     34  C   UNL     1      -3.784 -10.679  15.558  0.00  0.00    +0.074 A 
ATOM     36  C   UNL     1      -2.654 -10.723  16.345  0.00  0.00    +0.021 A 
ATOM     37  C   UNL     1      -1.466 -10.850  15.569  0.00  0.00    +0.008 A 
ATOM     38  C   UNL     1      -1.732 -10.898  14.219  0.00  0.00    +0.046 A 
ENDBRANCH  32  34
BRANCH  17   3
ATOM      3  O   UNL     1     -14.448 -12.943  21.275  0.00  0.00    -0.391 OA
ATOM     39  H   UNL     1     -14.821 -12.314  21.916  0.00  0.00    +0.210 HD
ENDBRANCH  17   3
BRANCH  14  22
ATOM     22  C   UNL     1     -12.663 -14.616  19.834  0.00  0.00    +0.165 C 
BRANCH  22   4
ATOM      4  O   UNL     1     -13.007 -15.433  20.930  0.00  0.00    -0.394 OA
ATOM     40  H   UNL     1     -13.356 -14.851  21.626  0.00  0.00    +0.209 HD
ENDBRANCH  22   4
ENDBRANCH  14  22
BRANCH  15  25
ATOM     25  C   UNL     1     -10.675 -10.095  16.395  0.00  0.00    +0.106 C 
BRANCH  25  26
ATOM      5  O   UNL     1     -10.191  -8.152  17.662  0.00  0.00    -0.276 OA
ATOM      7  O   UNL     1     -12.783  -5.861  11.407  0.00  0.00    -0.276 OA
ATOM      9  N   UNL     1     -10.785  -7.820  15.441  0.00  0.00    -0.298 N 
ATOM     11  N   UNL     1     -12.248  -6.191  13.642  0.00  0.00    -0.299 N 
ATOM     26  C   UNL     1     -10.526  -8.604  16.564  0.00  0.00    +0.216 C 
ATOM     28  C   UNL     1     -10.665  -6.362  15.524  0.00  0.00    +0.126 C 
ATOM     29  C   UNL     1     -11.113  -8.330  14.104  0.00  0.00    +0.126 C 
ATOM     30  C   UNL     1     -11.918  -5.680  14.980  0.00  0.00    +0.126 C 
ATOM     31  C   UNL     1     -12.367  -7.649  13.560  0.00  0.00    +0.126 C 
ATOM     33  C   UNL     1     -12.508  -5.407  12.520  0.00  0.00    +0.213 C 
ATOM     35  C   UNL     1     -12.440  -3.913  12.710  0.00  0.00    +0.109 C 
ENDBRANCH  25  26
ENDBRANCH  15  25
TORSDOF 6
ENDMDL
MODEL 6
REMARK VINA RESULT:      -6.3     27.687     29.444
REMARK  Name = 7135239
REMARK  9 active torsions:
REMARK  status: ('A' for Active; 'I' for Inactive)
REMARK    1  A    between atoms: O_3  and  C_17
REMARK    2  A    between atoms: O_4  and  C_22
REMARK    3  A    between atoms: C_12  and  C_20
REMARK    4  A    between atoms: C_14  and  C_22
REMARK    5  A    between atoms: C_14  and  C_23
REMARK    6  A    between atoms: C_15  and  C_25
REMARK    7  A    between atoms: C_25  and  C_26
REMARK    8  A    between atoms: C_32  and  C_34
REMARK    9  A    between atoms: C_33  and  C_35
REMARK                            x       y       z     vdW  Elec       q    Type
REMARK                         _______ _______ _______ _____ _____    ______ ____
ROOT
ATOM      1  S   UNL     1      -4.717  13.102  33.754  0.00  0.00    -0.057 S 
ATOM      6  O   UNL     1      -0.402  12.103  35.076  0.00  0.00    -0.269 OA
ATOM      8  N   UNL     1      -3.267  11.603  35.287  0.00  0.00    -0.229 NA
ATOM     10  N   UNL     1      -2.101  13.196  33.903  0.00  0.00    -0.260 N 
ATOM     12  C   UNL     1      -6.531  10.240  36.823  0.00  0.00    -0.019 C 
ATOM     13  C   UNL     1      -7.341  10.429  35.465  0.00  0.00    +0.011 C 
ATOM     14  C   UNL     1      -8.888  10.123  35.506  0.00  0.00    +0.021 C 
ATOM     15  C   UNL     1      -4.976  10.167  36.463  0.00  0.00    +0.054 C 
ATOM     16  C   UNL     1      -6.942   8.900  37.487  0.00  0.00    +0.010 C 
ATOM     17  C   UNL     1      -9.124   8.775  36.243  0.00  0.00    +0.123 C 
ATOM     18  C   UNL     1      -6.986  11.777  34.773  0.00  0.00    +0.049 C 
ATOM     19  C   UNL     1      -8.447   8.708  37.607  0.00  0.00    +0.032 C 
ATOM     20  C   UNL     1      -6.773  11.389  37.832  0.00  0.00    +0.012 C 
ATOM     21  C   UNL     1      -4.590  11.263  35.502  0.00  0.00    +0.058 A 
ATOM     23  C   UNL     1      -9.410   9.954  34.051  0.00  0.00    +0.016 C 
ATOM     24  C   UNL     1      -5.506  11.959  34.741  0.00  0.00    +0.015 A 
ATOM     27  C   UNL     1      -3.215  12.567  34.393  0.00  0.00    +0.165 A 
ATOM     32  C   UNL     1      -0.756  12.947  34.255  0.00  0.00    +0.256 C 
ATOM     41  H   UNL     1      -2.288  13.921  33.217  0.00  0.00    +0.157 HD
ENDROOT
BRANCH  32  34
ATOM      2  S   UNL     1       1.177  14.880  34.551  0.00  0.00    -0.092 S 
ATOM     34  C   UNL     1       0.234  13.817  33.595  0.00  0.00    +0.074 A 
ATOM     36  C   UNL     1       0.538  13.919  32.255  0.00  0.00    +0.021 A 
ATOM     37  C   UNL     1       1.560  14.881  32.011  0.00  0.00    +0.008 A 
ATOM     38  C   UNL     1       1.997  15.479  33.172  0.00  0.00    +0.046 A 
ENDBRANCH  32  34
BRANCH  17   3
ATOM      3  O   UNL     1     -10.521   8.532  36.412  0.00  0.00    -0.391 OA
ATOM     39  H   UNL     1     -10.956   9.391  36.545  0.00  0.00    +0.210 HD
ENDBRANCH  17   3
BRANCH  14  22
ATOM     22  C   UNL     1      -9.747  11.248  36.128  0.00  0.00    +0.165 C 
BRANCH  22   4
ATOM      4  O   UNL     1     -11.004  11.235  35.489  0.00  0.00    -0.394 OA
ATOM     40  H   UNL     1     -10.945  10.607  34.749  0.00  0.00    +0.209 HD
ENDBRANCH  22   4
ENDBRANCH  14  22
BRANCH  15  25
ATOM     25  C   UNL     1      -4.040  10.132  37.679  0.00  0.00    +0.106 C 
BRANCH  25  26
ATOM      5  O   UNL     1      -2.874   8.453  36.480  0.00  0.00    -0.276 OA
ATOM      7  O   UNL     1      -2.130   6.842  43.404  0.00  0.00    -0.276 OA
ATOM      9  N   UNL     1      -2.621   8.443  38.789  0.00  0.00    -0.298 N 
ATOM     11  N   UNL     1      -2.432   6.817  41.102  0.00  0.00    -0.299 N 
ATOM     26  C   UNL     1      -3.127   8.935  37.587  0.00  0.00    +0.216 C 
ATOM     28  C   UNL     1      -1.729   7.281  38.786  0.00  0.00    +0.126 C 
ATOM     29  C   UNL     1      -2.844   9.037  40.113  0.00  0.00    +0.126 C 
ATOM     30  C   UNL     1      -2.208   6.223  39.777  0.00  0.00    +0.126 C 
ATOM     31  C   UNL     1      -3.324   7.979  41.105  0.00  0.00    +0.126 C 
ATOM     33  C   UNL     1      -1.927   6.324  42.303  0.00  0.00    +0.213 C 
ATOM     35  C   UNL     1      -1.081   5.079  42.220  0.00  0.00    +0.109 C 
ENDBRANCH  25  26
ENDBRANCH  15  25
TORSDOF 6
ENDMDL
MODEL 7
REMARK VINA RESULT:      -6.1     29.810     33.603
REMARK  Name = 7135239
REMARK  9 active torsions:
REMARK  status: ('A' for Active; 'I' for Inactive)
REMARK    1  A    between atoms: O_3  and  C_17
REMARK    2  A    between atoms: O_4  and  C_22
REMARK    3  A    between atoms: C_12  and  C_20
REMARK    4  A    between atoms: C_14  and  C_22
REMARK    5  A    between atoms: C_14  and  C_23
REMARK    6  A    between atoms: C_15  and  C_25
REMARK    7  A    between atoms: C_25  and  C_26
REMARK    8  A    between atoms: C_32  and  C_34
REMARK    9  A    between atoms: C_33  and  C_35
REMARK                            x       y       z     vdW  Elec       q    Type
REMARK                         _______ _______ _______ _____ _____    ______ ____
ROOT
ATOM      1  S   UNL     1      15.687   7.015  -0.314  0.00  0.00    -0.057 S 
ATOM      6  O   UNL     1      14.807   7.144   4.223  0.00  0.00    -0.269 OA
ATOM      8  N   UNL     1      13.914   6.543   1.512  0.00  0.00    -0.229 NA
ATOM     10  N   UNL     1      16.040   7.405   2.255  0.00  0.00    -0.260 N 
ATOM     12  C   UNL     1      11.405   5.763  -1.309  0.00  0.00    -0.019 C 
ATOM     13  C   UNL     1      12.545   5.222  -2.281  0.00  0.00    +0.011 C 
ATOM     14  C   UNL     1      12.111   4.832  -3.746  0.00  0.00    +0.021 C 
ATOM     15  C   UNL     1      11.950   5.672   0.190  0.00  0.00    +0.054 C 
ATOM     16  C   UNL     1      10.152   4.856  -1.429  0.00  0.00    +0.010 C 
ATOM     17  C   UNL     1      10.820   3.967  -3.685  0.00  0.00    +0.123 C 
ATOM     18  C   UNL     1      13.816   6.118  -2.221  0.00  0.00    +0.049 C 
ATOM     19  C   UNL     1       9.706   4.605  -2.862  0.00  0.00    +0.032 C 
ATOM     20  C   UNL     1      10.992   7.223  -1.620  0.00  0.00    +0.012 C 
ATOM     21  C   UNL     1      13.350   6.223   0.291  0.00  0.00    +0.058 A 
ATOM     23  C   UNL     1      13.224   3.957  -4.389  0.00  0.00    +0.016 C 
ATOM     24  C   UNL     1      14.175   6.398  -0.800  0.00  0.00    +0.015 A 
ATOM     27  C   UNL     1      15.140   6.978   1.314  0.00  0.00    +0.165 A 
ATOM     32  C   UNL     1      15.846   7.472   3.653  0.00  0.00    +0.256 C 
ATOM     41  H   UNL     1      16.935   7.707   1.882  0.00  0.00    +0.157 HD
ENDROOT
BRANCH  32  34
ATOM      2  S   UNL     1      16.685   8.785   5.918  0.00  0.00    -0.092 S 
ATOM     34  C   UNL     1      16.982   8.020   4.415  0.00  0.00    +0.074 A 
ATOM     36  C   UNL     1      18.322   8.017   4.092  0.00  0.00    +0.021 A 
ATOM     37  C   UNL     1      19.115   8.649   5.093  0.00  0.00    +0.008 A 
ATOM     38  C   UNL     1      18.352   9.112   6.142  0.00  0.00    +0.046 A 
ENDBRANCH  32  34
BRANCH  17   3
ATOM      3  O   UNL     1      10.327   3.705  -4.999  0.00  0.00    -0.391 OA
ATOM     39  H   UNL     1       9.919   2.822  -4.990  0.00  0.00    +0.210 HD
ENDBRANCH  17   3
BRANCH  14  22
ATOM     22  C   UNL     1      11.924   6.033  -4.701  0.00  0.00    +0.165 C 
BRANCH  22   4
ATOM      4  O   UNL     1      12.306   5.621  -5.993  0.00  0.00    -0.394 OA
ATOM     40  H   UNL     1      12.926   4.880  -5.889  0.00  0.00    +0.209 HD
ENDBRANCH  22   4
ENDBRANCH  14  22
BRANCH  15  25
ATOM     25  C   UNL     1      11.025   6.293   1.244  0.00  0.00    +0.106 C 
BRANCH  25  26
ATOM      5  O   UNL     1      10.291   4.132   1.883  0.00  0.00    -0.276 OA
ATOM      7  O   UNL     1      10.309   8.078   7.844  0.00  0.00    -0.276 OA
ATOM      9  N   UNL     1      10.711   5.635   3.603  0.00  0.00    -0.298 N 
ATOM     11  N   UNL     1       9.832   6.596   6.120  0.00  0.00    -0.299 N 
ATOM     26  C   UNL     1      10.642   5.251   2.265  0.00  0.00    +0.216 C 
ATOM     28  C   UNL     1      10.353   4.682   4.657  0.00  0.00    +0.126 C 
ATOM     29  C   UNL     1      11.194   6.933   4.093  0.00  0.00    +0.126 C 
ATOM     30  C   UNL     1       9.350   5.297   5.631  0.00  0.00    +0.126 C 
ATOM     31  C   UNL     1      10.190   7.548   5.067  0.00  0.00    +0.126 C 
ATOM     33  C   UNL     1       9.900   6.980   7.458  0.00  0.00    +0.213 C 
ATOM     35  C   UNL     1       9.439   5.967   8.475  0.00  0.00    +0.109 C 
ENDBRANCH  25  26
ENDBRANCH  15  25
TORSDOF 6
ENDMDL
MODEL 8
REMARK VINA RESULT:      -6.0     29.865     33.110
REMARK  Name = 7135239
REMARK  9 active torsions:
REMARK  status: ('A' for Active; 'I' for Inactive)
REMARK    1  A    between atoms: O_3  and  C_17
REMARK    2  A    between atoms: O_4  and  C_22
REMARK    3  A    between atoms: C_12  and  C_20
REMARK    4  A    between atoms: C_14  and  C_22
REMARK    5  A    between atoms: C_14  and  C_23
REMARK    6  A    between atoms: C_15  and  C_25
REMARK    7  A    between atoms: C_25  and  C_26
REMARK    8  A    between atoms: C_32  and  C_34
REMARK    9  A    between atoms: C_33  and  C_35
REMARK                            x       y       z     vdW  Elec       q    Type
REMARK                         _______ _______ _______ _____ _____    ______ ____
ROOT
ATOM      1  S   UNL     1      14.728   8.266   6.479  0.00  0.00    -0.057 S 
ATOM      6  O   UNL     1      17.889   7.909   3.125  0.00  0.00    -0.269 OA
ATOM      8  N   UNL     1      15.088   7.931   3.938  0.00  0.00    -0.229 NA
ATOM     10  N   UNL     1      17.066   8.177   5.295  0.00  0.00    -0.260 N 
ATOM     12  C   UNL     1      11.289   7.361   3.607  0.00  0.00    -0.019 C 
ATOM     13  C   UNL     1      10.957   8.332   4.824  0.00  0.00    +0.011 C 
ATOM     14  C   UNL     1       9.449   8.424   5.276  0.00  0.00    +0.021 C 
ATOM     15  C   UNL     1      12.735   7.747   3.047  0.00  0.00    +0.054 C 
ATOM     16  C   UNL     1      10.252   7.581   2.474  0.00  0.00    +0.010 C 
ATOM     17  C   UNL     1       8.548   8.596   4.020  0.00  0.00    +0.123 C 
ATOM     18  C   UNL     1      11.954   8.127   6.003  0.00  0.00    +0.049 C 
ATOM     19  C   UNL     1       8.806   7.545   2.946  0.00  0.00    +0.032 C 
ATOM     20  C   UNL     1      11.275   5.865   4.009  0.00  0.00    +0.012 C 
ATOM     21  C   UNL     1      13.725   7.910   4.172  0.00  0.00    +0.058 A 
ATOM     23  C   UNL     1       9.260   9.691   6.158  0.00  0.00    +0.016 C 
ATOM     24  C   UNL     1      13.353   8.097   5.487  0.00  0.00    +0.015 A 
ATOM     27  C   UNL     1      15.714   8.105   5.082  0.00  0.00    +0.165 A 
ATOM     32  C   UNL     1      18.089   8.078   4.326  0.00  0.00    +0.256 C 
ATOM     41  H   UNL     1      17.338   8.310   6.265  0.00  0.00    +0.157 HD
ENDROOT
BRANCH  32  34
ATOM      2  S   UNL     1      20.770   7.708   3.845  0.00  0.00    -0.092 S 
ATOM     34  C   UNL     1      19.461   8.145   4.859  0.00  0.00    +0.074 A 
ATOM     36  C   UNL     1      19.884   8.524   6.114  0.00  0.00    +0.021 A 
ATOM     37  C   UNL     1      21.301   8.456   6.245  0.00  0.00    +0.008 A 
ATOM     38  C   UNL     1      21.908   8.026   5.086  0.00  0.00    +0.046 A 
ENDBRANCH  32  34
BRANCH  17   3
ATOM      3  O   UNL     1       7.167   8.553   4.382  0.00  0.00    -0.391 OA
ATOM     39  H   UNL     1       6.658   8.931   3.646  0.00  0.00    +0.210 HD
ENDBRANCH  17   3
BRANCH  14  22
ATOM     22  C   UNL     1       8.965   7.239   6.142  0.00  0.00    +0.165 C 
BRANCH  22   4
ATOM      4  O   UNL     1       7.918   7.703   6.963  0.00  0.00    -0.394 OA
ATOM     40  H   UNL     1       8.288   8.389   7.544  0.00  0.00    +0.209 HD
ENDBRANCH  22   4
ENDBRANCH  14  22
BRANCH  15  25
ATOM     25  C   UNL     1      13.270   6.808   1.959  0.00  0.00    +0.106 C 
BRANCH  25  26
ATOM      5  O   UNL     1      12.994   8.547   0.374  0.00  0.00    -0.276 OA
ATOM      7  O   UNL     1      10.168   2.685  -2.583  0.00  0.00    -0.276 OA
ATOM      9  N   UNL     1      12.459   6.402  -0.338  0.00  0.00    -0.298 N 
ATOM     11  N   UNL     1      10.646   4.836  -1.851  0.00  0.00    -0.299 N 
ATOM     26  C   UNL     1      12.898   7.338   0.597  0.00  0.00    +0.216 C 
ATOM     28  C   UNL     1      12.076   6.836  -1.683  0.00  0.00    +0.126 C 
ATOM     29  C   UNL     1      12.404   4.949  -0.127  0.00  0.00    +0.126 C 
ATOM     30  C   UNL     1      10.702   6.289  -2.063  0.00  0.00    +0.126 C 
ATOM     31  C   UNL     1      11.029   4.402  -0.505  0.00  0.00    +0.126 C 
ATOM     33  C   UNL     1      10.205   3.901  -2.785  0.00  0.00    +0.213 C 
ATOM     35  C   UNL     1       9.755   4.440  -4.119  0.00  0.00    +0.109 C 
ENDBRANCH  25  26
ENDBRANCH  15  25
TORSDOF 6
ENDMDL
MODEL 9
REMARK VINA RESULT:      -6.0     31.178     35.567
REMARK  Name = 7135239
REMARK  9 active torsions:
REMARK  status: ('A' for Active; 'I' for Inactive)
REMARK    1  A    between atoms: O_3  and  C_17
REMARK    2  A    between atoms: O_4  and  C_22
REMARK    3  A    between atoms: C_12  and  C_20
REMARK    4  A    between atoms: C_14  and  C_22
REMARK    5  A    between atoms: C_14  and  C_23
REMARK    6  A    between atoms: C_15  and  C_25
REMARK    7  A    between atoms: C_25  and  C_26
REMARK    8  A    between atoms: C_32  and  C_34
REMARK    9  A    between atoms: C_33  and  C_35
REMARK                            x       y       z     vdW  Elec       q    Type
REMARK                         _______ _______ _______ _____ _____    ______ ____
ROOT
ATOM      1  S   UNL     1      15.183   8.135   6.214  0.00  0.00    -0.057 S 
ATOM      6  O   UNL     1      11.949   6.285   3.477  0.00  0.00    -0.269 OA
ATOM      8  N   UNL     1      14.674   7.265   3.830  0.00  0.00    -0.229 NA
ATOM     10  N   UNL     1      12.875   7.165   5.433  0.00  0.00    -0.260 N 
ATOM     12  C   UNL     1      18.165   8.510   2.770  0.00  0.00    -0.019 C 
ATOM     13  C   UNL     1      18.782   8.255   4.217  0.00  0.00    +0.011 C 
ATOM     14  C   UNL     1      20.271   8.718   4.452  0.00  0.00    +0.021 C 
ATOM     15  C   UNL     1      16.863   7.597   2.621  0.00  0.00    +0.054 C 
ATOM     16  C   UNL     1      19.191   8.078   1.689  0.00  0.00    +0.010 C 
ATOM     17  C   UNL     1      21.149   8.245   3.259  0.00  0.00    +0.123 C 
ATOM     18  C   UNL     1      17.801   8.702   5.340  0.00  0.00    +0.049 C 
ATOM     19  C   UNL     1      20.586   8.648   1.901  0.00  0.00    +0.032 C 
ATOM     20  C   UNL     1      17.786   9.992   2.531  0.00  0.00    +0.012 C 
ATOM     21  C   UNL     1      15.986   7.701   3.843  0.00  0.00    +0.058 A 
ATOM     23  C   UNL     1      20.820   8.029   5.733  0.00  0.00    +0.016 C 
ATOM     24  C   UNL     1      16.431   8.183   5.056  0.00  0.00    +0.015 A 
ATOM     27  C   UNL     1      14.151   7.453   5.022  0.00  0.00    +0.165 A 
ATOM     32  C   UNL     1      11.836   6.600   4.659  0.00  0.00    +0.256 C 
ATOM     41  H   UNL     1      12.677   7.396   6.402  0.00  0.00    +0.157 HD
ENDROOT
BRANCH  32  34
ATOM      2  S   UNL     1      10.534   6.392   7.072  0.00  0.00    -0.092 S 
ATOM     34  C   UNL     1      10.549   6.448   5.360  0.00  0.00    +0.074 A 
ATOM     36  C   UNL     1       9.283   6.336   4.828  0.00  0.00    +0.021 A 
ATOM     37  C   UNL     1       8.288   6.203   5.839  0.00  0.00    +0.008 A 
ATOM     38  C   UNL     1       8.830   6.219   7.104  0.00  0.00    +0.046 A 
ENDBRANCH  32  34
BRANCH  17   3
ATOM      3  O   UNL     1      22.476   8.759   3.376  0.00  0.00    -0.391 OA
ATOM     39  H   UNL     1      22.409   9.686   3.659  0.00  0.00    +0.210 HD
ENDBRANCH  17   3
BRANCH  14  22
ATOM     22  C   UNL     1      20.440  10.236   4.692  0.00  0.00    +0.165 C 
BRANCH  22   4
ATOM      4  O   UNL     1      21.472  10.411   5.636  0.00  0.00    -0.394 OA
ATOM     40  H   UNL     1      21.948  11.224   5.396  0.00  0.00    +0.209 HD
ENDBRANCH  22   4
ENDBRANCH  14  22
BRANCH  15  25
ATOM     25  C   UNL     1      16.063   7.831   1.334  0.00  0.00    +0.106 C 
BRANCH  25  26
ATOM      5  O   UNL     1      17.347   6.538  -0.181  0.00  0.00    -0.276 OA
ATOM      7  O   UNL     1      10.690   3.953  -0.496  0.00  0.00    -0.276 OA
ATOM      9  N   UNL     1      15.178   5.812   0.221  0.00  0.00    -0.298 N 
ATOM     11  N   UNL     1      12.839   4.714  -0.942  0.00  0.00    -0.299 N 
ATOM     26  C   UNL     1      16.262   6.672   0.390  0.00  0.00    +0.216 C 
ATOM     28  C   UNL     1      15.289   4.664  -0.681  0.00  0.00    +0.126 C 
ATOM     29  C   UNL     1      13.900   5.902   0.939  0.00  0.00    +0.126 C 
ATOM     30  C   UNL     1      14.118   4.623  -1.659  0.00  0.00    +0.126 C 
ATOM     31  C   UNL     1      12.728   5.863  -0.039  0.00  0.00    +0.126 C 
ATOM     33  C   UNL     1      11.755   3.855  -1.112  0.00  0.00    +0.213 C 
ATOM     35  C   UNL     1      11.924   2.744  -2.117  0.00  0.00    +0.109 C 
ENDBRANCH  25  26
ENDBRANCH  15  25
TORSDOF 6
ENDMDL
MODEL 10
REMARK VINA RESULT:      -6.0      7.104     11.049
REMARK  Name = 7135239
REMARK  9 active torsions:
REMARK  status: ('A' for Active; 'I' for Inactive)
REMARK    1  A    between atoms: O_3  and  C_17
REMARK    2  A    between atoms: O_4  and  C_22
REMARK    3  A    between atoms: C_12  and  C_20
REMARK    4  A    between atoms: C_14  and  C_22
REMARK    5  A    between atoms: C_14  and  C_23
REMARK    6  A    between atoms: C_15  and  C_25
REMARK    7  A    between atoms: C_25  and  C_26
REMARK    8  A    between atoms: C_32  and  C_34
REMARK    9  A    between atoms: C_33  and  C_35
REMARK                            x       y       z     vdW  Elec       q    Type
REMARK                         _______ _______ _______ _____ _____    ______ ____
ROOT
ATOM      1  S   UNL     1      -4.171 -13.620   9.955  0.00  0.00    -0.057 S 
ATOM      6  O   UNL     1      -3.982 -13.624  14.574  0.00  0.00    -0.269 OA
ATOM      8  N   UNL     1      -4.967 -12.421  12.106  0.00  0.00    -0.229 NA
ATOM     10  N   UNL     1      -3.539 -14.342  12.395  0.00  0.00    -0.260 N 
ATOM     12  C   UNL     1      -6.547  -9.716   9.858  0.00  0.00    -0.019 C 
ATOM     13  C   UNL     1      -6.837 -10.751   8.683  0.00  0.00    +0.011 C 
ATOM     14  C   UNL     1      -7.419 -10.164   7.340  0.00  0.00    +0.021 C 
ATOM     15  C   UNL     1      -6.398 -10.543  11.217  0.00  0.00    +0.054 C 
ATOM     16  C   UNL     1      -7.753  -8.750  10.004  0.00  0.00    +0.010 C 
ATOM     17  C   UNL     1      -8.582  -9.185   7.670  0.00  0.00    +0.123 C 
ATOM     18  C   UNL     1      -5.641 -11.725   8.475  0.00  0.00    +0.049 C 
ATOM     19  C   UNL     1      -8.201  -8.122   8.693  0.00  0.00    +0.032 C 
ATOM     20  C   UNL     1      -5.267  -8.879   9.620  0.00  0.00    +0.012 C 
ATOM     21  C   UNL     1      -5.499 -11.739  11.028  0.00  0.00    +0.058 A 
ATOM     23  C   UNL     1      -8.016 -11.325   6.495  0.00  0.00    +0.016 C 
ATOM     24  C   UNL     1      -5.187 -12.263   9.790  0.00  0.00    +0.015 A 
ATOM     27  C   UNL     1      -4.243 -13.425  11.660  0.00  0.00    +0.165 A 
ATOM     32  C   UNL     1      -3.435 -14.410  13.802  0.00  0.00    +0.256 C 
ATOM     41  H   UNL     1      -3.042 -15.037  11.846  0.00  0.00    +0.157 HD
ENDROOT
BRANCH  32  34
ATOM      2  S   UNL     1      -3.149 -16.511  15.552  0.00  0.00    -0.092 S 
ATOM     34  C   UNL     1      -2.565 -15.483  14.313  0.00  0.00    +0.074 A 
ATOM     36  C   UNL     1      -1.282 -15.812  13.932  0.00  0.00    +0.021 A 
ATOM     37  C   UNL     1      -0.773 -16.922  14.666  0.00  0.00    +0.008 A 
ATOM     38  C   UNL     1      -1.685 -17.399  15.581  0.00  0.00    +0.046 A 
ENDBRANCH  32  34
BRANCH  17   3
ATOM      3  O   UNL     1      -9.046  -8.538   6.485  0.00  0.00    -0.391 OA
ATOM     39  H   UNL     1      -8.915  -7.581   6.601  0.00  0.00    +0.210 HD
ENDBRANCH  17   3
BRANCH  14  22
ATOM     22  C   UNL     1      -6.371  -9.485   6.429  0.00  0.00    +0.165 C 
BRANCH  22   4
ATOM      4  O   UNL     1      -6.786  -9.653   5.092  0.00  0.00    -0.394 OA
ATOM     40  H   UNL     1      -6.066 -10.103   4.620  0.00  0.00    +0.209 HD
ENDBRANCH  22   4
ENDBRANCH  14  22
BRANCH  15  25
ATOM     25  C   UNL     1      -5.971  -9.706  12.430  0.00  0.00    +0.106 C 
BRANCH  25  26
ATOM      5  O   UNL     1      -8.172  -9.381  13.244  0.00  0.00    -0.276 OA
ATOM      7  O   UNL     1      -4.217 -11.276  18.888  0.00  0.00    -0.276 OA
ATOM      9  N   UNL     1      -6.641 -10.293  14.733  0.00  0.00    -0.298 N 
ATOM     11  N   UNL     1      -5.732 -10.309  17.417  0.00  0.00    -0.299 N 
ATOM     26  C   UNL     1      -7.032  -9.776  13.499  0.00  0.00    +0.216 C 
ATOM     28  C   UNL     1      -7.612 -10.391  15.825  0.00  0.00    +0.126 C 
ATOM     29  C   UNL     1      -5.313 -10.838  15.046  0.00  0.00    +0.126 C 
ATOM     30  C   UNL     1      -7.060  -9.765  17.104  0.00  0.00    +0.126 C 
ATOM     31  C   UNL     1      -4.761 -10.210  16.324  0.00  0.00    +0.126 C 
ATOM     33  C   UNL     1      -5.340 -10.824  18.651  0.00  0.00    +0.213 C 
ATOM     35  C   UNL     1      -6.378 -10.818  19.745  0.00  0.00    +0.109 C 
ENDBRANCH  25  26
ENDBRANCH  15  25
TORSDOF 6
ENDMDL
