MODEL 1
REMARK VINA RESULT:      -5.9      0.000      0.000
REMARK  Name = 56775394
REMARK  14 active torsions:
REMARK  status: ('A' for Active; 'I' for Inactive)
REMARK    1  A    between atoms: O_3  and  C_19
REMARK    2  A    between atoms: O_3  and  C_31
REMARK    3  A    between atoms: O_4  and  C_20
REMARK    4  A    between atoms: O_4  and  C_32
REMARK    5  A    between atoms: O_5  and  C_30
REMARK    6  A    between atoms: N_6  and  C_8
REMARK    7  A    between atoms: N_6  and  C_12
REMARK    8  A    between atoms: N_6  and  C_13
REMARK    9  A    between atoms: C_8  and  C_11
REMARK   10  A    between atoms: C_11  and  C_14
REMARK   11  A    between atoms: C_12  and  C_15
REMARK   12  A    between atoms: C_13  and  C_16
REMARK   13  A    between atoms: C_18  and  C_23
REMARK   14  A    between atoms: C_23  and  C_30
REMARK                            x       y       z     vdW  Elec       q    Type
REMARK                         _______ _______ _______ _____ _____    ______ ____
ROOT
ATOM      6  N   UNL     1      10.330   8.243   4.200  0.00  0.00    -0.284 NA
ENDROOT
BRANCH   6   8
ATOM      1  O   UNL     1       8.798  10.831   3.762  0.00  0.00    -0.376 OA
ATOM      8  C   UNL     1       8.961   8.776   4.316  0.00  0.00    +0.075 C 
ATOM      9  C   UNL     1       9.020  10.133   5.009  0.00  0.00    +0.184 C 
ATOM     10  C   UNL     1       8.637   9.576   3.060  0.00  0.00    +0.184 C 
BRANCH   8  11
ATOM     11  C   UNL     1       7.978   7.755   4.800  0.00  0.00    +0.085 C 
BRANCH  11  14
ATOM      2  O   UNL     1       8.780   6.978   8.236  0.00  0.00    -0.359 OA
ATOM      7  N   UNL     1       8.257   7.808   7.252  0.00  0.00    -0.083 NA
ATOM     14  C   UNL     1       8.436   7.143   6.107  0.00  0.00    +0.086 A 
ATOM     17  C   UNL     1       9.062   5.900   6.305  0.00  0.00    +0.071 A 
ATOM     18  C   UNL     1       9.256   5.845   7.661  0.00  0.00    +0.140 A 
BRANCH  18  23
ATOM     23  C   UNL     1       9.847   4.850   8.563  0.00  0.00    +0.105 C 
BRANCH  23  30
ATOM     30  C   UNL     1       9.156   4.769   9.937  0.00  0.00    +0.163 C 
BRANCH  30   5
ATOM      5  O   UNL     1      10.122   4.452  10.931  0.00  0.00    -0.395 OA
ATOM     33  H   UNL     1      10.747   5.197  10.967  0.00  0.00    +0.209 HD
ENDBRANCH  30   5
ENDBRANCH  23  30
ENDBRANCH  18  23
ENDBRANCH  11  14
ENDBRANCH   8  11
ENDBRANCH   6   8
BRANCH   6  12
ATOM     12  C   UNL     1      10.657   8.066   2.786  0.00  0.00    +0.124 C 
BRANCH  12  15
ATOM     15  C   UNL     1      10.633   6.615   2.383  0.00  0.00    +0.008 A 
ATOM     19  C   UNL     1      10.143   6.230   1.136  0.00  0.00    +0.124 A 
ATOM     21  C   UNL     1      11.108   5.652   3.273  0.00  0.00    +0.008 A 
ATOM     24  C   UNL     1      10.128   4.882   0.778  0.00  0.00    +0.046 A 
ATOM     26  C   UNL     1      11.092   4.303   2.916  0.00  0.00    +0.001 A 
ATOM     28  C   UNL     1      10.602   3.918   1.668  0.00  0.00    +0.004 A 
BRANCH  19   3
ATOM      3  O   UNL     1       9.676   7.158   0.254  0.00  0.00    -0.495 OA
ATOM     31  C   UNL     1      10.076   7.017  -1.108  0.00  0.00    +0.277 C 
ENDBRANCH  19   3
ENDBRANCH  12  15
ENDBRANCH   6  12
BRANCH   6  13
ATOM     13  C   UNL     1      11.263   9.175   4.832  0.00  0.00    +0.124 C 
BRANCH  13  16
ATOM     16  C   UNL     1      12.442   8.463   5.438  0.00  0.00    +0.008 A 
ATOM     20  C   UNL     1      13.723   8.632   4.912  0.00  0.00    +0.124 A 
ATOM     22  C   UNL     1      12.244   7.625   6.535  0.00  0.00    +0.008 A 
ATOM     25  C   UNL     1      14.806   7.964   5.484  0.00  0.00    +0.046 A 
ATOM     27  C   UNL     1      13.326   6.957   7.107  0.00  0.00    +0.001 A 
ATOM     29  C   UNL     1      14.607   7.126   6.582  0.00  0.00    +0.004 A 
BRANCH  20   4
ATOM      4  O   UNL     1      13.935   9.445   3.840  0.00  0.00    -0.495 OA
ATOM     32  C   UNL     1      14.395   8.827   2.639  0.00  0.00    +0.277 C 
ENDBRANCH  20   4
ENDBRANCH  13  16
ENDBRANCH   6  13
TORSDOF 12
ENDMDL
MODEL 2
REMARK VINA RESULT:      -5.4     23.265     26.262
REMARK  Name = 56775394
REMARK  14 active torsions:
REMARK  status: ('A' for Active; 'I' for Inactive)
REMARK    1  A    between atoms: O_3  and  C_19
REMARK    2  A    between atoms: O_3  and  C_31
REMARK    3  A    between atoms: O_4  and  C_20
REMARK    4  A    between atoms: O_4  and  C_32
REMARK    5  A    between atoms: O_5  and  C_30
REMARK    6  A    between atoms: N_6  and  C_8
REMARK    7  A    between atoms: N_6  and  C_12
REMARK    8  A    between atoms: N_6  and  C_13
REMARK    9  A    between atoms: C_8  and  C_11
REMARK   10  A    between atoms: C_11  and  C_14
REMARK   11  A    between atoms: C_12  and  C_15
REMARK   12  A    between atoms: C_13  and  C_16
REMARK   13  A    between atoms: C_18  and  C_23
REMARK   14  A    between atoms: C_23  and  C_30
REMARK                            x       y       z     vdW  Elec       q    Type
REMARK                         _______ _______ _______ _____ _____    ______ ____
ROOT
ATOM      6  N   UNL     1      -3.599 -11.414  13.083  0.00  0.00    -0.284 NA
ENDROOT
BRANCH   6   8
ATOM      1  O   UNL     1      -2.111 -13.825  14.182  0.00  0.00    -0.376 OA
ATOM      8  C   UNL     1      -2.809 -11.809  14.262  0.00  0.00    +0.075 C 
ATOM      9  C   UNL     1      -3.282 -13.180  14.733  0.00  0.00    +0.184 C 
ATOM     10  C   UNL     1      -1.559 -12.546  13.792  0.00  0.00    +0.184 C 
BRANCH   8  11
ATOM     11  C   UNL     1      -2.666 -10.705  15.265  0.00  0.00    +0.085 C 
BRANCH  11  14
ATOM      2  O   UNL     1      -5.040 -11.166  17.951  0.00  0.00    -0.359 OA
ATOM      7  N   UNL     1      -3.823 -11.416  17.327  0.00  0.00    -0.083 NA
ATOM     14  C   UNL     1      -3.849 -10.682  16.211  0.00  0.00    +0.086 A 
ATOM     17  C   UNL     1      -5.045  -9.955  16.078  0.00  0.00    +0.071 A 
ATOM     18  C   UNL     1      -5.758 -10.294  17.198  0.00  0.00    +0.140 A 
BRANCH  18  23
ATOM     23  C   UNL     1      -7.079  -9.917  17.715  0.00  0.00    +0.105 C 
BRANCH  23  30
ATOM     30  C   UNL     1      -7.488 -10.677  18.990  0.00  0.00    +0.163 C 
BRANCH  30   5
ATOM      5  O   UNL     1      -6.724 -10.195  20.089  0.00  0.00    -0.395 OA
ATOM     33  H   UNL     1      -6.202  -9.441  19.764  0.00  0.00    +0.209 HD
ENDBRANCH  30   5
ENDBRANCH  23  30
ENDBRANCH  18  23
ENDBRANCH  11  14
ENDBRANCH   8  11
ENDBRANCH   6   8
BRANCH   6  12
ATOM     12  C   UNL     1      -2.765 -11.525  11.888  0.00  0.00    +0.124 C 
BRANCH  12  15
ATOM     15  C   UNL     1      -3.392 -10.842  10.701  0.00  0.00    +0.008 A 
ATOM     19  C   UNL     1      -3.941 -11.588   9.658  0.00  0.00    +0.124 A 
ATOM     21  C   UNL     1      -3.422  -9.449  10.653  0.00  0.00    +0.008 A 
ATOM     24  C   UNL     1      -4.518 -10.940   8.566  0.00  0.00    +0.046 A 
ATOM     26  C   UNL     1      -3.999  -8.800   9.560  0.00  0.00    +0.001 A 
ATOM     28  C   UNL     1      -4.548  -9.546   8.517  0.00  0.00    +0.004 A 
BRANCH  19   3
ATOM      3  O   UNL     1      -3.921 -12.950   9.689  0.00  0.00    -0.495 OA
ATOM     31  C   UNL     1      -4.451 -13.632   8.553  0.00  0.00    +0.277 C 
ENDBRANCH  19   3
ENDBRANCH  12  15
ENDBRANCH   6  12
BRANCH   6  13
ATOM     13  C   UNL     1      -4.770 -12.283  12.978  0.00  0.00    +0.124 C 
BRANCH  13  16
ATOM     16  C   UNL     1      -6.049 -11.534  13.242  0.00  0.00    +0.008 A 
ATOM     20  C   UNL     1      -7.070 -12.111  13.997  0.00  0.00    +0.124 A 
ATOM     22  C   UNL     1      -6.207 -10.249  12.723  0.00  0.00    +0.008 A 
ATOM     25  C   UNL     1      -8.249 -11.404  14.232  0.00  0.00    +0.046 A 
ATOM     27  C   UNL     1      -7.386  -9.542  12.958  0.00  0.00    +0.001 A 
ATOM     29  C   UNL     1      -8.406 -10.119  13.713  0.00  0.00    +0.004 A 
BRANCH  20   4
ATOM      4  O   UNL     1      -6.934 -13.366  14.510  0.00  0.00    -0.495 OA
ATOM     32  C   UNL     1      -6.920 -13.486  15.931  0.00  0.00    +0.277 C 
ENDBRANCH  20   4
ENDBRANCH  13  16
ENDBRANCH   6  13
TORSDOF 12
ENDMDL
MODEL 3
REMARK VINA RESULT:      -5.3     23.148     26.883
REMARK  Name = 56775394
REMARK  14 active torsions:
REMARK  status: ('A' for Active; 'I' for Inactive)
REMARK    1  A    between atoms: O_3  and  C_19
REMARK    2  A    between atoms: O_3  and  C_31
REMARK    3  A    between atoms: O_4  and  C_20
REMARK    4  A    between atoms: O_4  and  C_32
REMARK    5  A    between atoms: O_5  and  C_30
REMARK    6  A    between atoms: N_6  and  C_8
REMARK    7  A    between atoms: N_6  and  C_12
REMARK    8  A    between atoms: N_6  and  C_13
REMARK    9  A    between atoms: C_8  and  C_11
REMARK   10  A    between atoms: C_11  and  C_14
REMARK   11  A    between atoms: C_12  and  C_15
REMARK   12  A    between atoms: C_13  and  C_16
REMARK   13  A    between atoms: C_18  and  C_23
REMARK   14  A    between atoms: C_23  and  C_30
REMARK                            x       y       z     vdW  Elec       q    Type
REMARK                         _______ _______ _______ _____ _____    ______ ____
ROOT
ATOM      6  N   UNL     1      -3.525 -12.169  15.047  0.00  0.00    -0.284 NA
ENDROOT
BRANCH   6   8
ATOM      1  O   UNL     1      -1.044 -10.423  15.234  0.00  0.00    -0.376 OA
ATOM      8  C   UNL     1      -2.468 -11.616  14.182  0.00  0.00    +0.075 C 
ATOM      9  C   UNL     1      -2.273 -10.144  14.524  0.00  0.00    +0.184 C 
ATOM     10  C   UNL     1      -1.119 -11.819  14.863  0.00  0.00    +0.184 C 
BRANCH   8  11
ATOM     11  C   UNL     1      -2.623 -12.015  12.746  0.00  0.00    +0.085 C 
BRANCH  11  14
ATOM      2  O   UNL     1      -3.007  -9.173  10.547  0.00  0.00    -0.359 OA
ATOM      7  N   UNL     1      -2.243 -10.153  11.170  0.00  0.00    -0.083 NA
ATOM     14  C   UNL     1      -3.109 -10.846  11.914  0.00  0.00    +0.086 A 
ATOM     17  C   UNL     1      -4.421 -10.355  11.801  0.00  0.00    +0.071 A 
ATOM     18  C   UNL     1      -4.302  -9.304  10.930  0.00  0.00    +0.140 A 
BRANCH  18  23
ATOM     23  C   UNL     1      -5.254  -8.343  10.361  0.00  0.00    +0.105 C 
BRANCH  23  30
ATOM     30  C   UNL     1      -5.864  -8.792   9.019  0.00  0.00    +0.163 C 
BRANCH  30   5
ATOM      5  O   UNL     1      -4.817  -9.115   8.113  0.00  0.00    -0.395 OA
ATOM     33  H   UNL     1      -4.873  -8.484   7.375  0.00  0.00    +0.209 HD
ENDBRANCH  30   5
ENDBRANCH  23  30
ENDBRANCH  18  23
ENDBRANCH  11  14
ENDBRANCH   8  11
ENDBRANCH   6   8
BRANCH   6  12
ATOM     12  C   UNL     1      -4.490 -11.117  15.357  0.00  0.00    +0.124 C 
BRANCH  12  15
ATOM     15  C   UNL     1      -4.879 -11.123  16.811  0.00  0.00    +0.008 A 
ATOM     19  C   UNL     1      -6.036 -10.476  17.243  0.00  0.00    +0.124 A 
ATOM     21  C   UNL     1      -4.067 -11.786  17.731  0.00  0.00    +0.008 A 
ATOM     24  C   UNL     1      -6.382 -10.491  18.594  0.00  0.00    +0.046 A 
ATOM     26  C   UNL     1      -4.412 -11.802  19.084  0.00  0.00    +0.001 A 
ATOM     28  C   UNL     1      -5.570 -11.154  19.515  0.00  0.00    +0.004 A 
BRANCH  19   3
ATOM      3  O   UNL     1      -6.841  -9.823  16.358  0.00  0.00    -0.495 OA
ATOM     31  C   UNL     1      -8.008  -9.195  16.885  0.00  0.00    +0.277 C 
ENDBRANCH  19   3
ENDBRANCH  12  15
ENDBRANCH   6  12
BRANCH   6  13
ATOM     13  C   UNL     1      -4.177 -13.281  14.356  0.00  0.00    +0.124 C 
BRANCH  13  16
ATOM     16  C   UNL     1      -4.039 -14.572  15.119  0.00  0.00    +0.008 A 
ATOM     20  C   UNL     1      -2.978 -15.441  14.864  0.00  0.00    +0.124 A 
ATOM     22  C   UNL     1      -4.988 -14.896  16.088  0.00  0.00    +0.008 A 
ATOM     25  C   UNL     1      -2.866 -16.633  15.579  0.00  0.00    +0.046 A 
ATOM     27  C   UNL     1      -4.876 -16.088  16.803  0.00  0.00    +0.001 A 
ATOM     29  C   UNL     1      -3.815 -16.957  16.548  0.00  0.00    +0.004 A 
BRANCH  20   4
ATOM      4  O   UNL     1      -2.043 -15.141  13.920  0.00  0.00    -0.495 OA
ATOM     32  C   UNL     1      -2.060 -15.915  12.722  0.00  0.00    +0.277 C 
ENDBRANCH  20   4
ENDBRANCH  13  16
ENDBRANCH   6  13
TORSDOF 12
ENDMDL
MODEL 4
REMARK VINA RESULT:      -5.3      2.749      7.190
REMARK  Name = 56775394
REMARK  14 active torsions:
REMARK  status: ('A' for Active; 'I' for Inactive)
REMARK    1  A    between atoms: O_3  and  C_19
REMARK    2  A    between atoms: O_3  and  C_31
REMARK    3  A    between atoms: O_4  and  C_20
REMARK    4  A    between atoms: O_4  and  C_32
REMARK    5  A    between atoms: O_5  and  C_30
REMARK    6  A    between atoms: N_6  and  C_8
REMARK    7  A    between atoms: N_6  and  C_12
REMARK    8  A    between atoms: N_6  and  C_13
REMARK    9  A    between atoms: C_8  and  C_11
REMARK   10  A    between atoms: C_11  and  C_14
REMARK   11  A    between atoms: C_12  and  C_15
REMARK   12  A    between atoms: C_13  and  C_16
REMARK   13  A    between atoms: C_18  and  C_23
REMARK   14  A    between atoms: C_23  and  C_30
REMARK                            x       y       z     vdW  Elec       q    Type
REMARK                         _______ _______ _______ _____ _____    ______ ____
ROOT
ATOM      6  N   UNL     1      11.423   5.939   3.290  0.00  0.00    -0.284 NA
ENDROOT
BRANCH   6   8
ATOM      1  O   UNL     1      12.039   3.151   2.249  0.00  0.00    -0.376 OA
ATOM      8  C   UNL     1      11.518   5.208   2.014  0.00  0.00    +0.075 C 
ATOM      9  C   UNL     1      12.789   4.367   2.023  0.00  0.00    +0.184 C 
ATOM     10  C   UNL     1      10.791   3.875   2.156  0.00  0.00    +0.184 C 
BRANCH   8  11
ATOM     11  C   UNL     1      11.225   6.071   0.825  0.00  0.00    +0.085 C 
BRANCH  11  14
ATOM      2  O   UNL     1       9.582   4.242  -1.823  0.00  0.00    -0.359 OA
ATOM      7  N   UNL     1       9.567   5.053  -0.695  0.00  0.00    -0.083 NA
ATOM     14  C   UNL     1      10.853   5.225  -0.375  0.00  0.00    +0.086 A 
ATOM     17  C   UNL     1      11.716   4.552  -1.257  0.00  0.00    +0.071 A 
ATOM     18  C   UNL     1      10.867   3.951  -2.149  0.00  0.00    +0.140 A 
BRANCH  18  23
ATOM     23  C   UNL     1      11.067   3.098  -3.327  0.00  0.00    +0.105 C 
BRANCH  23  30
ATOM     30  C   UNL     1       9.760   2.540  -3.919  0.00  0.00    +0.163 C 
BRANCH  30   5
ATOM      5  O   UNL     1       9.313   1.448  -3.126  0.00  0.00    -0.395 OA
ATOM     33  H   UNL     1       8.729   0.909  -3.687  0.00  0.00    +0.209 HD
ENDBRANCH  30   5
ENDBRANCH  23  30
ENDBRANCH  18  23
ENDBRANCH  11  14
ENDBRANCH   8  11
ENDBRANCH   6   8
BRANCH   6  12
ATOM     12  C   UNL     1      12.114   7.221   3.160  0.00  0.00    +0.124 C 
BRANCH  12  15
ATOM     15  C   UNL     1      13.237   7.354   4.155  0.00  0.00    +0.008 A 
ATOM     19  C   UNL     1      14.567   7.271   3.743  0.00  0.00    +0.124 A 
ATOM     21  C   UNL     1      12.936   7.564   5.500  0.00  0.00    +0.008 A 
ATOM     24  C   UNL     1      15.595   7.397   4.677  0.00  0.00    +0.046 A 
ATOM     26  C   UNL     1      13.964   7.690   6.435  0.00  0.00    +0.001 A 
ATOM     28  C   UNL     1      15.294   7.606   6.023  0.00  0.00    +0.004 A 
BRANCH  19   3
ATOM      3  O   UNL     1      14.880   7.067   2.433  0.00  0.00    -0.495 OA
ATOM     31  C   UNL     1      15.618   8.095   1.775  0.00  0.00    +0.277 C 
ENDBRANCH  19   3
ENDBRANCH  12  15
ENDBRANCH   6  12
BRANCH   6  13
ATOM     13  C   UNL     1      10.014   6.144   3.621  0.00  0.00    +0.124 C 
BRANCH  13  16
ATOM     16  C   UNL     1       9.785   6.164   5.109  0.00  0.00    +0.008 A 
ATOM     20  C   UNL     1       9.403   7.339   5.756  0.00  0.00    +0.124 A 
ATOM     22  C   UNL     1       9.962   4.991   5.842  0.00  0.00    +0.008 A 
ATOM     25  C   UNL     1       9.197   7.340   7.135  0.00  0.00    +0.046 A 
ATOM     27  C   UNL     1       9.755   4.992   7.221  0.00  0.00    +0.001 A 
ATOM     29  C   UNL     1       9.373   6.166   7.868  0.00  0.00    +0.004 A 
BRANCH  20   4
ATOM      4  O   UNL     1       9.228   8.495   5.056  0.00  0.00    -0.495 OA
ATOM     32  C   UNL     1       7.898   9.000   4.962  0.00  0.00    +0.277 C 
ENDBRANCH  20   4
ENDBRANCH  13  16
ENDBRANCH   6  13
TORSDOF 12
ENDMDL
MODEL 5
REMARK VINA RESULT:      -5.2      1.897      4.255
REMARK  Name = 56775394
REMARK  14 active torsions:
REMARK  status: ('A' for Active; 'I' for Inactive)
REMARK    1  A    between atoms: O_3  and  C_19
REMARK    2  A    between atoms: O_3  and  C_31
REMARK    3  A    between atoms: O_4  and  C_20
REMARK    4  A    between atoms: O_4  and  C_32
REMARK    5  A    between atoms: O_5  and  C_30
REMARK    6  A    between atoms: N_6  and  C_8
REMARK    7  A    between atoms: N_6  and  C_12
REMARK    8  A    between atoms: N_6  and  C_13
REMARK    9  A    between atoms: C_8  and  C_11
REMARK   10  A    between atoms: C_11  and  C_14
REMARK   11  A    between atoms: C_12  and  C_15
REMARK   12  A    between atoms: C_13  and  C_16
REMARK   13  A    between atoms: C_18  and  C_23
REMARK   14  A    between atoms: C_23  and  C_30
REMARK                            x       y       z     vdW  Elec       q    Type
REMARK                         _______ _______ _______ _____ _____    ______ ____
ROOT
ATOM      6  N   UNL     1      10.354   8.755   4.444  0.00  0.00    -0.284 NA
ENDROOT
BRANCH   6   8
ATOM      1  O   UNL     1       9.414   8.978   1.562  0.00  0.00    -0.376 OA
ATOM      8  C   UNL     1       9.143   8.536   3.633  0.00  0.00    +0.075 C 
ATOM      9  C   UNL     1       8.950   9.731   2.706  0.00  0.00    +0.184 C 
ATOM     10  C   UNL     1       9.529   7.781   2.366  0.00  0.00    +0.184 C 
BRANCH   8  11
ATOM     11  C   UNL     1       7.980   8.049   4.442  0.00  0.00    +0.085 C 
BRANCH  11  14
ATOM      2  O   UNL     1       9.156   5.340   6.523  0.00  0.00    -0.359 OA
ATOM      7  N   UNL     1       8.782   5.877   5.297  0.00  0.00    -0.083 NA
ATOM     14  C   UNL     1       8.446   7.143   5.562  0.00  0.00    +0.086 A 
ATOM     17  C   UNL     1       8.587   7.458   6.924  0.00  0.00    +0.071 A 
ATOM     18  C   UNL     1       9.036   6.291   7.484  0.00  0.00    +0.140 A 
BRANCH  18  23
ATOM     23  C   UNL     1       9.395   5.890   8.850  0.00  0.00    +0.105 C 
BRANCH  23  30
ATOM     30  C   UNL     1       9.462   4.365   9.053  0.00  0.00    +0.163 C 
BRANCH  30   5
ATOM      5  O   UNL     1      10.591   3.849   8.361  0.00  0.00    -0.395 OA
ATOM     33  H   UNL     1      11.272   4.543   8.369  0.00  0.00    +0.209 HD
ENDBRANCH  30   5
ENDBRANCH  23  30
ENDBRANCH  18  23
ENDBRANCH  11  14
ENDBRANCH   8  11
ENDBRANCH   6   8
BRANCH   6  12
ATOM     12  C   UNL     1      11.487   8.094   3.800  0.00  0.00    +0.124 C 
BRANCH  12  15
ATOM     15  C   UNL     1      12.572   7.753   4.788  0.00  0.00    +0.008 A 
ATOM     19  C   UNL     1      13.903   8.070   4.521  0.00  0.00    +0.124 A 
ATOM     21  C   UNL     1      12.232   7.115   5.980  0.00  0.00    +0.008 A 
ATOM     24  C   UNL     1      14.896   7.747   5.447  0.00  0.00    +0.046 A 
ATOM     26  C   UNL     1      13.225   6.792   6.907  0.00  0.00    +0.001 A 
ATOM     28  C   UNL     1      14.557   7.108   6.640  0.00  0.00    +0.004 A 
BRANCH  19   3
ATOM      3  O   UNL     1      14.253   8.693   3.361  0.00  0.00    -0.495 OA
ATOM     31  C   UNL     1      15.573   9.230   3.287  0.00  0.00    +0.277 C 
ENDBRANCH  19   3
ENDBRANCH  12  15
ENDBRANCH   6  12
BRANCH   6  13
ATOM     13  C   UNL     1      10.596  10.192   4.566  0.00  0.00    +0.124 C 
BRANCH  13  16
ATOM     16  C   UNL     1      10.525  10.652   5.997  0.00  0.00    +0.008 A 
ATOM     20  C   UNL     1       9.344  11.180   6.519  0.00  0.00    +0.124 A 
ATOM     22  C   UNL     1      11.658  10.548   6.804  0.00  0.00    +0.008 A 
ATOM     25  C   UNL     1       9.296  11.602   7.847  0.00  0.00    +0.046 A 
ATOM     27  C   UNL     1      11.610  10.970   8.132  0.00  0.00    +0.001 A 
ATOM     29  C   UNL     1      10.429  11.497   8.654  0.00  0.00    +0.004 A 
BRANCH  20   4
ATOM      4  O   UNL     1       8.228  11.290   5.745  0.00  0.00    -0.495 OA
ATOM     32  C   UNL     1       7.779  12.610   5.442  0.00  0.00    +0.277 C 
ENDBRANCH  20   4
ENDBRANCH  13  16
ENDBRANCH   6  13
TORSDOF 12
ENDMDL
MODEL 6
REMARK VINA RESULT:      -5.1     22.630     27.285
REMARK  Name = 56775394
REMARK  14 active torsions:
REMARK  status: ('A' for Active; 'I' for Inactive)
REMARK    1  A    between atoms: O_3  and  C_19
REMARK    2  A    between atoms: O_3  and  C_31
REMARK    3  A    between atoms: O_4  and  C_20
REMARK    4  A    between atoms: O_4  and  C_32
REMARK    5  A    between atoms: O_5  and  C_30
REMARK    6  A    between atoms: N_6  and  C_8
REMARK    7  A    between atoms: N_6  and  C_12
REMARK    8  A    between atoms: N_6  and  C_13
REMARK    9  A    between atoms: C_8  and  C_11
REMARK   10  A    between atoms: C_11  and  C_14
REMARK   11  A    between atoms: C_12  and  C_15
REMARK   12  A    between atoms: C_13  and  C_16
REMARK   13  A    between atoms: C_18  and  C_23
REMARK   14  A    between atoms: C_23  and  C_30
REMARK                            x       y       z     vdW  Elec       q    Type
REMARK                         _______ _______ _______ _____ _____    ______ ____
ROOT
ATOM      6  N   UNL     1      -3.714 -12.384  15.184  0.00  0.00    -0.284 NA
ENDROOT
BRANCH   6   8
ATOM      1  O   UNL     1      -1.479 -10.324  15.199  0.00  0.00    -0.376 OA
ATOM      8  C   UNL     1      -2.730 -11.782  14.267  0.00  0.00    +0.075 C 
ATOM      9  C   UNL     1      -2.728 -10.271  14.472  0.00  0.00    +0.184 C 
ATOM     10  C   UNL     1      -1.371 -11.746  14.958  0.00  0.00    +0.184 C 
BRANCH   8  11
ATOM     11  C   UNL     1      -2.821 -12.326  12.874  0.00  0.00    +0.085 C 
BRANCH  11  14
ATOM      2  O   UNL     1      -2.219  -9.520  10.679  0.00  0.00    -0.359 OA
ATOM      7  N   UNL     1      -1.821 -10.430  11.650  0.00  0.00    -0.083 NA
ATOM     14  C   UNL     1      -2.890 -11.203  11.861  0.00  0.00    +0.086 A 
ATOM     17  C   UNL     1      -3.983 -10.831  11.059  0.00  0.00    +0.071 A 
ATOM     18  C   UNL     1      -3.509  -9.769  10.334  0.00  0.00    +0.140 A 
BRANCH  18  23
ATOM     23  C   UNL     1      -4.094  -8.895   9.311  0.00  0.00    +0.105 C 
BRANCH  23  30
ATOM     30  C   UNL     1      -4.943  -9.643   8.266  0.00  0.00    +0.163 C 
BRANCH  30   5
ATOM      5  O   UNL     1      -5.972  -8.782   7.794  0.00  0.00    -0.395 OA
ATOM     33  H   UNL     1      -6.271  -9.138   6.940  0.00  0.00    +0.209 HD
ENDBRANCH  30   5
ENDBRANCH  23  30
ENDBRANCH  18  23
ENDBRANCH  11  14
ENDBRANCH   8  11
ENDBRANCH   6   8
BRANCH   6  12
ATOM     12  C   UNL     1      -4.731 -11.389  15.516  0.00  0.00    +0.124 C 
BRANCH  12  15
ATOM     15  C   UNL     1      -5.045 -11.379  16.989  0.00  0.00    +0.008 A 
ATOM     19  C   UNL     1      -6.295 -10.966  17.448  0.00  0.00    +0.124 A 
ATOM     21  C   UNL     1      -4.069 -11.788  17.897  0.00  0.00    +0.008 A 
ATOM     24  C   UNL     1      -6.570 -10.963  18.815  0.00  0.00    +0.046 A 
ATOM     26  C   UNL     1      -4.343 -11.784  19.266  0.00  0.00    +0.001 A 
ATOM     28  C   UNL     1      -5.594 -11.372  19.725  0.00  0.00    +0.004 A 
BRANCH  19   3
ATOM      3  O   UNL     1      -7.261 -10.563  16.574  0.00  0.00    -0.495 OA
ATOM     31  C   UNL     1      -7.820  -9.267  16.780  0.00  0.00    +0.277 C 
ENDBRANCH  19   3
ENDBRANCH  12  15
ENDBRANCH   6  12
BRANCH   6  13
ATOM     13  C   UNL     1      -4.320 -13.547  14.538  0.00  0.00    +0.124 C 
BRANCH  13  16
ATOM     16  C   UNL     1      -3.940 -14.831  15.226  0.00  0.00    +0.008 A 
ATOM     20  C   UNL     1      -4.697 -15.321  16.290  0.00  0.00    +0.124 A 
ATOM     22  C   UNL     1      -2.816 -15.531  14.790  0.00  0.00    +0.008 A 
ATOM     25  C   UNL     1      -4.330 -16.512  16.917  0.00  0.00    +0.046 A 
ATOM     27  C   UNL     1      -2.448 -16.722  15.417  0.00  0.00    +0.001 A 
ATOM     29  C   UNL     1      -3.205 -17.212  16.480  0.00  0.00    +0.004 A 
BRANCH  20   4
ATOM      4  O   UNL     1      -5.797 -14.649  16.731  0.00  0.00    -0.495 OA
ATOM     32  C   UNL     1      -7.068 -15.232  16.449  0.00  0.00    +0.277 C 
ENDBRANCH  20   4
ENDBRANCH  13  16
ENDBRANCH   6  13
TORSDOF 12
ENDMDL
MODEL 7
REMARK VINA RESULT:      -5.0     23.543     27.174
REMARK  Name = 56775394
REMARK  14 active torsions:
REMARK  status: ('A' for Active; 'I' for Inactive)
REMARK    1  A    between atoms: O_3  and  C_19
REMARK    2  A    between atoms: O_3  and  C_31
REMARK    3  A    between atoms: O_4  and  C_20
REMARK    4  A    between atoms: O_4  and  C_32
REMARK    5  A    between atoms: O_5  and  C_30
REMARK    6  A    between atoms: N_6  and  C_8
REMARK    7  A    between atoms: N_6  and  C_12
REMARK    8  A    between atoms: N_6  and  C_13
REMARK    9  A    between atoms: C_8  and  C_11
REMARK   10  A    between atoms: C_11  and  C_14
REMARK   11  A    between atoms: C_12  and  C_15
REMARK   12  A    between atoms: C_13  and  C_16
REMARK   13  A    between atoms: C_18  and  C_23
REMARK   14  A    between atoms: C_23  and  C_30
REMARK                            x       y       z     vdW  Elec       q    Type
REMARK                         _______ _______ _______ _____ _____    ______ ____
ROOT
ATOM      6  N   UNL     1      -4.403 -11.413  14.260  0.00  0.00    -0.284 NA
ENDROOT
BRANCH   6   8
ATOM      1  O   UNL     1      -1.977 -11.662  12.447  0.00  0.00    -0.376 OA
ATOM      8  C   UNL     1      -3.892 -10.886  12.983  0.00  0.00    +0.075 C 
ATOM      9  C   UNL     1      -2.431 -10.491  13.163  0.00  0.00    +0.184 C 
ATOM     10  C   UNL     1      -3.342 -12.044  12.158  0.00  0.00    +0.184 C 
BRANCH   8  11
ATOM     11  C   UNL     1      -4.832  -9.916  12.334  0.00  0.00    +0.085 C 
BRANCH  11  14
ATOM      2  O   UNL     1      -3.956  -9.374   8.871  0.00  0.00    -0.359 OA
ATOM      7  N   UNL     1      -3.862  -9.077  10.225  0.00  0.00    -0.083 NA
ATOM     14  C   UNL     1      -4.680  -9.945  10.828  0.00  0.00    +0.086 A 
ATOM     17  C   UNL     1      -5.312 -10.805   9.913  0.00  0.00    +0.071 A 
ATOM     18  C   UNL     1      -4.822 -10.405   8.697  0.00  0.00    +0.140 A 
BRANCH  18  23
ATOM     23  C   UNL     1      -5.041 -10.852   7.317  0.00  0.00    +0.105 C 
BRANCH  23  30
ATOM     30  C   UNL     1      -5.979  -9.935   6.508  0.00  0.00    +0.163 C 
BRANCH  30   5
ATOM      5  O   UNL     1      -6.299  -8.789   7.285  0.00  0.00    -0.395 OA
ATOM     33  H   UNL     1      -6.635  -9.109   8.141  0.00  0.00    +0.209 HD
ENDBRANCH  30   5
ENDBRANCH  23  30
ENDBRANCH  18  23
ENDBRANCH  11  14
ENDBRANCH   8  11
ENDBRANCH   6   8
BRANCH   6  12
ATOM     12  C   UNL     1      -4.864 -10.300  15.088  0.00  0.00    +0.124 C 
BRANCH  12  15
ATOM     15  C   UNL     1      -4.975 -10.688  16.538  0.00  0.00    +0.008 A 
ATOM     19  C   UNL     1      -6.140 -10.428  17.259  0.00  0.00    +0.124 A 
ATOM     21  C   UNL     1      -3.896 -11.315  17.161  0.00  0.00    +0.008 A 
ATOM     24  C   UNL     1      -6.226 -10.795  18.602  0.00  0.00    +0.046 A 
ATOM     26  C   UNL     1      -3.981 -11.682  18.505  0.00  0.00    +0.001 A 
ATOM     28  C   UNL     1      -5.148 -11.422  19.225  0.00  0.00    +0.004 A 
BRANCH  19   3
ATOM      3  O   UNL     1      -7.203  -9.816  16.666  0.00  0.00    -0.495 OA
ATOM     31  C   UNL     1      -8.275  -9.412  17.518  0.00  0.00    +0.277 C 
ENDBRANCH  19   3
ENDBRANCH  12  15
ENDBRANCH   6  12
BRANCH   6  13
ATOM     13  C   UNL     1      -5.499 -12.343  13.991  0.00  0.00    +0.124 C 
BRANCH  13  16
ATOM     16  C   UNL     1      -5.459 -13.536  14.908  0.00  0.00    +0.008 A 
ATOM     20  C   UNL     1      -6.567 -13.876  15.684  0.00  0.00    +0.124 A 
ATOM     22  C   UNL     1      -4.297 -14.303  14.979  0.00  0.00    +0.008 A 
ATOM     25  C   UNL     1      -6.513 -14.984  16.530  0.00  0.00    +0.046 A 
ATOM     27  C   UNL     1      -4.242 -15.411  15.825  0.00  0.00    +0.001 A 
ATOM     29  C   UNL     1      -5.350 -15.751  16.600  0.00  0.00    +0.004 A 
BRANCH  20   4
ATOM      4  O   UNL     1      -7.710 -13.137  15.629  0.00  0.00    -0.495 OA
ATOM     32  C   UNL     1      -8.564 -13.178  16.770  0.00  0.00    +0.277 C 
ENDBRANCH  20   4
ENDBRANCH  13  16
ENDBRANCH   6  13
TORSDOF 12
ENDMDL
MODEL 8
REMARK VINA RESULT:      -4.9     22.251     25.845
REMARK  Name = 56775394
REMARK  14 active torsions:
REMARK  status: ('A' for Active; 'I' for Inactive)
REMARK    1  A    between atoms: O_3  and  C_19
REMARK    2  A    between atoms: O_3  and  C_31
REMARK    3  A    between atoms: O_4  and  C_20
REMARK    4  A    between atoms: O_4  and  C_32
REMARK    5  A    between atoms: O_5  and  C_30
REMARK    6  A    between atoms: N_6  and  C_8
REMARK    7  A    between atoms: N_6  and  C_12
REMARK    8  A    between atoms: N_6  and  C_13
REMARK    9  A    between atoms: C_8  and  C_11
REMARK   10  A    between atoms: C_11  and  C_14
REMARK   11  A    between atoms: C_12  and  C_15
REMARK   12  A    between atoms: C_13  and  C_16
REMARK   13  A    between atoms: C_18  and  C_23
REMARK   14  A    between atoms: C_23  and  C_30
REMARK                            x       y       z     vdW  Elec       q    Type
REMARK                         _______ _______ _______ _____ _____    ______ ____
ROOT
ATOM      6  N   UNL     1      17.599  -5.299  25.974  0.00  0.00    -0.284 NA
ENDROOT
BRANCH   6   8
ATOM      1  O   UNL     1      18.463  -6.230  28.735  0.00  0.00    -0.376 OA
ATOM      8  C   UNL     1      17.098  -6.110  27.098  0.00  0.00    +0.075 C 
ATOM      9  C   UNL     1      18.210  -7.042  27.565  0.00  0.00    +0.184 C 
ATOM     10  C   UNL     1      17.358  -5.359  28.399  0.00  0.00    +0.184 C 
BRANCH   8  11
ATOM     11  C   UNL     1      15.734  -6.675  26.847  0.00  0.00    +0.085 C 
BRANCH  11  14
ATOM      2  O   UNL     1      15.664 -10.282  27.052  0.00  0.00    -0.359 OA
ATOM      7  N   UNL     1      15.496  -9.015  27.598  0.00  0.00    -0.083 NA
ATOM     14  C   UNL     1      15.806  -8.169  26.610  0.00  0.00    +0.086 A 
ATOM     17  C   UNL     1      16.172  -8.839  25.430  0.00  0.00    +0.071 A 
ATOM     18  C   UNL     1      16.066 -10.164  25.761  0.00  0.00    +0.140 A 
BRANCH  18  23
ATOM     23  C   UNL     1      16.290 -11.416  25.028  0.00  0.00    +0.105 C 
BRANCH  23  30
ATOM     30  C   UNL     1      15.526 -12.621  25.608  0.00  0.00    +0.163 C 
BRANCH  30   5
ATOM      5  O   UNL     1      14.133 -12.339  25.605  0.00  0.00    -0.395 OA
ATOM     33  H   UNL     1      14.028 -11.417  25.900  0.00  0.00    +0.209 HD
ENDBRANCH  30   5
ENDBRANCH  23  30
ENDBRANCH  18  23
ENDBRANCH  11  14
ENDBRANCH   8  11
ENDBRANCH   6   8
BRANCH   6  12
ATOM     12  C   UNL     1      17.594  -3.890  26.359  0.00  0.00    +0.124 C 
BRANCH  12  15
ATOM     15  C   UNL     1      17.332  -2.988  25.182  0.00  0.00    +0.008 A 
ATOM     19  C   UNL     1      18.068  -1.818  25.003  0.00  0.00    +0.124 A 
ATOM     21  C   UNL     1      16.340  -3.335  24.265  0.00  0.00    +0.008 A 
ATOM     24  C   UNL     1      17.813  -0.994  23.907  0.00  0.00    +0.046 A 
ATOM     26  C   UNL     1      16.083  -2.511  23.168  0.00  0.00    +0.001 A 
ATOM     28  C   UNL     1      16.820  -1.340  22.989  0.00  0.00    +0.004 A 
BRANCH  19   3
ATOM      3  O   UNL     1      19.041  -1.464  25.889  0.00  0.00    -0.495 OA
ATOM     31  C   UNL     1      20.091  -0.631  25.400  0.00  0.00    +0.277 C 
ENDBRANCH  19   3
ENDBRANCH  12  15
ENDBRANCH   6  12
BRANCH   6  13
ATOM     13  C   UNL     1      18.953  -5.737  25.634  0.00  0.00    +0.124 C 
BRANCH  13  16
ATOM     16  C   UNL     1      19.121  -5.935  24.152  0.00  0.00    +0.008 A 
ATOM     20  C   UNL     1      20.337  -5.652  23.528  0.00  0.00    +0.124 A 
ATOM     22  C   UNL     1      18.045  -6.405  23.400  0.00  0.00    +0.008 A 
ATOM     25  C   UNL     1      20.476  -5.840  22.153  0.00  0.00    +0.046 A 
ATOM     27  C   UNL     1      18.185  -6.594  22.024  0.00  0.00    +0.001 A 
ATOM     29  C   UNL     1      19.400  -6.312  21.402  0.00  0.00    +0.004 A 
BRANCH  20   4
ATOM      4  O   UNL     1      21.398  -5.190  24.247  0.00  0.00    -0.495 OA
ATOM     32  C   UNL     1      22.662  -5.802  24.002  0.00  0.00    +0.277 C 
ENDBRANCH  20   4
ENDBRANCH  13  16
ENDBRANCH   6  13
TORSDOF 12
ENDMDL
MODEL 9
REMARK VINA RESULT:      -4.9     23.913     28.082
REMARK  Name = 56775394
REMARK  14 active torsions:
REMARK  status: ('A' for Active; 'I' for Inactive)
REMARK    1  A    between atoms: O_3  and  C_19
REMARK    2  A    between atoms: O_3  and  C_31
REMARK    3  A    between atoms: O_4  and  C_20
REMARK    4  A    between atoms: O_4  and  C_32
REMARK    5  A    between atoms: O_5  and  C_30
REMARK    6  A    between atoms: N_6  and  C_8
REMARK    7  A    between atoms: N_6  and  C_12
REMARK    8  A    between atoms: N_6  and  C_13
REMARK    9  A    between atoms: C_8  and  C_11
REMARK   10  A    between atoms: C_11  and  C_14
REMARK   11  A    between atoms: C_12  and  C_15
REMARK   12  A    between atoms: C_13  and  C_16
REMARK   13  A    between atoms: C_18  and  C_23
REMARK   14  A    between atoms: C_23  and  C_30
REMARK                            x       y       z     vdW  Elec       q    Type
REMARK                         _______ _______ _______ _____ _____    ______ ____
ROOT
ATOM      6  N   UNL     1      -5.342 -11.533  15.684  0.00  0.00    -0.284 NA
ENDROOT
BRANCH   6   8
ATOM      1  O   UNL     1      -7.845  -9.824  15.914  0.00  0.00    -0.376 OA
ATOM      8  C   UNL     1      -6.279 -11.039  16.708  0.00  0.00    +0.075 C 
ATOM      9  C   UNL     1      -6.535  -9.555  16.465  0.00  0.00    +0.184 C 
ATOM     10  C   UNL     1      -7.705 -11.234  16.205  0.00  0.00    +0.184 C 
BRANCH   8  11
ATOM     11  C   UNL     1      -5.928 -11.499  18.090  0.00  0.00    +0.085 C 
BRANCH  11  14
ATOM      2  O   UNL     1      -8.854 -11.357  20.206  0.00  0.00    -0.359 OA
ATOM      7  N   UNL     1      -7.752 -10.777  19.590  0.00  0.00    -0.083 NA
ATOM     14  C   UNL     1      -7.179 -11.768  18.901  0.00  0.00    +0.086 A 
ATOM     17  C   UNL     1      -7.869 -12.985  19.043  0.00  0.00    +0.071 A 
ATOM     18  C   UNL     1      -8.914 -12.672  19.872  0.00  0.00    +0.140 A 
BRANCH  18  23
ATOM     23  C   UNL     1     -10.027 -13.442  20.440  0.00  0.00    +0.105 C 
BRANCH  23  30
ATOM     30  C   UNL     1     -11.412 -12.828  20.163  0.00  0.00    +0.163 C 
BRANCH  30   5
ATOM      5  O   UNL     1     -11.551 -11.627  20.911  0.00  0.00    -0.395 OA
ATOM     33  H   UNL     1     -10.779 -11.072  20.705  0.00  0.00    +0.209 HD
ENDBRANCH  30   5
ENDBRANCH  23  30
ENDBRANCH  18  23
ENDBRANCH  11  14
ENDBRANCH   8  11
ENDBRANCH   6   8
BRANCH   6  12
ATOM     12  C   UNL     1      -4.518 -10.423  15.212  0.00  0.00    +0.124 C 
BRANCH  12  15
ATOM     15  C   UNL     1      -3.894 -10.718  13.874  0.00  0.00    +0.008 A 
ATOM     19  C   UNL     1      -2.531 -10.512  13.663  0.00  0.00    +0.124 A 
ATOM     21  C   UNL     1      -4.694 -11.201  12.840  0.00  0.00    +0.008 A 
ATOM     24  C   UNL     1      -1.968 -10.790  12.418  0.00  0.00    +0.046 A 
ATOM     26  C   UNL     1      -4.132 -11.480  11.593  0.00  0.00    +0.001 A 
ATOM     28  C   UNL     1      -2.768 -11.274  11.382  0.00  0.00    +0.004 A 
BRANCH  19   3
ATOM      3  O   UNL     1      -1.734 -10.040  14.663  0.00  0.00    -0.495 OA
ATOM     31  C   UNL     1      -1.052 -11.007  15.459  0.00  0.00    +0.277 C 
ENDBRANCH  19   3
ENDBRANCH  12  15
ENDBRANCH   6  12
BRANCH   6  13
ATOM     13  C   UNL     1      -4.509 -12.585  16.265  0.00  0.00    +0.124 C 
BRANCH  13  16
ATOM     16  C   UNL     1      -4.784 -13.927  15.642  0.00  0.00    +0.008 A 
ATOM     20  C   UNL     1      -3.889 -14.487  14.731  0.00  0.00    +0.124 A 
ATOM     22  C   UNL     1      -5.951 -14.610  15.984  0.00  0.00    +0.008 A 
ATOM     25  C   UNL     1      -4.160 -15.731  14.162  0.00  0.00    +0.046 A 
ATOM     27  C   UNL     1      -6.222 -15.855  15.415  0.00  0.00    +0.001 A 
ATOM     29  C   UNL     1      -5.327 -16.415  14.504  0.00  0.00    +0.004 A 
BRANCH  20   4
ATOM      4  O   UNL     1      -2.746 -13.832  14.385  0.00  0.00    -0.495 OA
ATOM     32  C   UNL     1      -1.816 -14.540  13.567  0.00  0.00    +0.277 C 
ENDBRANCH  20   4
ENDBRANCH  13  16
ENDBRANCH   6  13
TORSDOF 12
ENDMDL
MODEL 10
REMARK VINA RESULT:      -4.9     23.215     26.524
REMARK  Name = 56775394
REMARK  14 active torsions:
REMARK  status: ('A' for Active; 'I' for Inactive)
REMARK    1  A    between atoms: O_3  and  C_19
REMARK    2  A    between atoms: O_3  and  C_31
REMARK    3  A    between atoms: O_4  and  C_20
REMARK    4  A    between atoms: O_4  and  C_32
REMARK    5  A    between atoms: O_5  and  C_30
REMARK    6  A    between atoms: N_6  and  C_8
REMARK    7  A    between atoms: N_6  and  C_12
REMARK    8  A    between atoms: N_6  and  C_13
REMARK    9  A    between atoms: C_8  and  C_11
REMARK   10  A    between atoms: C_11  and  C_14
REMARK   11  A    between atoms: C_12  and  C_15
REMARK   12  A    between atoms: C_13  and  C_16
REMARK   13  A    between atoms: C_18  and  C_23
REMARK   14  A    between atoms: C_23  and  C_30
REMARK                            x       y       z     vdW  Elec       q    Type
REMARK                         _______ _______ _______ _____ _____    ______ ____
ROOT
ATOM      6  N   UNL     1      -2.872 -12.102  13.372  0.00  0.00    -0.284 NA
ENDROOT
BRANCH   6   8
ATOM      1  O   UNL     1      -1.130 -10.704  15.434  0.00  0.00    -0.376 OA
ATOM      8  C   UNL     1      -2.958 -11.031  14.381  0.00  0.00    +0.075 C 
ATOM      9  C   UNL     1      -2.303 -11.516  15.670  0.00  0.00    +0.184 C 
ATOM     10  C   UNL     1      -1.733 -10.132  14.250  0.00  0.00    +0.184 C 
BRANCH   8  11
ATOM     11  C   UNL     1      -4.316 -10.401  14.448  0.00  0.00    +0.085 C 
BRANCH  11  14
ATOM      2  O   UNL     1      -6.267 -11.776  17.161  0.00  0.00    -0.359 OA
ATOM      7  N   UNL     1      -5.831 -11.764  15.842  0.00  0.00    -0.083 NA
ATOM     14  C   UNL     1      -4.995 -10.725  15.763  0.00  0.00    +0.086 A 
ATOM     17  C   UNL     1      -4.864 -10.051  16.989  0.00  0.00    +0.071 A 
ATOM     18  C   UNL     1      -5.684 -10.752  17.835  0.00  0.00    +0.140 A 
BRANCH  18  23
ATOM     23  C   UNL     1      -6.034 -10.617  19.254  0.00  0.00    +0.105 C 
BRANCH  23  30
ATOM     30  C   UNL     1      -7.484 -11.026  19.577  0.00  0.00    +0.163 C 
BRANCH  30   5
ATOM      5  O   UNL     1      -8.379 -10.207  18.836  0.00  0.00    -0.395 OA
ATOM     33  H   UNL     1      -8.480 -10.615  17.959  0.00  0.00    +0.209 HD
ENDBRANCH  30   5
ENDBRANCH  23  30
ENDBRANCH  18  23
ENDBRANCH  11  14
ENDBRANCH   8  11
ENDBRANCH   6   8
BRANCH   6  12
ATOM     12  C   UNL     1      -2.053 -11.641  12.253  0.00  0.00    +0.124 C 
BRANCH  12  15
ATOM     15  C   UNL     1      -2.896 -11.160  11.102  0.00  0.00    +0.008 A 
ATOM     19  C   UNL     1      -3.596 -12.065  10.305  0.00  0.00    +0.124 A 
ATOM     21  C   UNL     1      -2.972  -9.794  10.837  0.00  0.00    +0.008 A 
ATOM     24  C   UNL     1      -4.373 -11.603   9.243  0.00  0.00    +0.046 A 
ATOM     26  C   UNL     1      -3.749  -9.330   9.774  0.00  0.00    +0.001 A 
ATOM     28  C   UNL     1      -4.450 -10.236   8.977  0.00  0.00    +0.004 A 
BRANCH  19   3
ATOM      3  O   UNL     1      -3.533 -13.404  10.550  0.00  0.00    -0.495 OA
ATOM     31  C   UNL     1      -4.495 -14.229   9.894  0.00  0.00    +0.277 C 
ENDBRANCH  19   3
ENDBRANCH  12  15
ENDBRANCH   6  12
BRANCH   6  13
ATOM     13  C   UNL     1      -2.285 -13.292  13.987  0.00  0.00    +0.124 C 
BRANCH  13  16
ATOM     16  C   UNL     1      -3.244 -14.452  13.987  0.00  0.00    +0.008 A 
ATOM     20  C   UNL     1      -2.808 -15.736  14.315  0.00  0.00    +0.124 A 
ATOM     22  C   UNL     1      -4.580 -14.234  13.653  0.00  0.00    +0.008 A 
ATOM     25  C   UNL     1      -3.710 -16.801  14.310  0.00  0.00    +0.046 A 
ATOM     27  C   UNL     1      -5.481 -15.298  13.647  0.00  0.00    +0.001 A 
ATOM     29  C   UNL     1      -5.046 -16.581  13.976  0.00  0.00    +0.004 A 
BRANCH  20   4
ATOM      4  O   UNL     1      -1.507 -15.969  14.643  0.00  0.00    -0.495 OA
ATOM     32  C   UNL     1      -1.229 -17.148  15.395  0.00  0.00    +0.277 C 
ENDBRANCH  20   4
ENDBRANCH  13  16
ENDBRANCH   6  13
TORSDOF 12
ENDMDL
