MODEL 1
REMARK VINA RESULT:      -7.0      0.000      0.000
REMARK  Name = 75536842
REMARK  7 active torsions:
REMARK  status: ('A' for Active; 'I' for Inactive)
REMARK    1  A    between atoms: O_2  and  C_9
REMARK    2  A    between atoms: N_4  and  C_8
REMARK    3  A    between atoms: N_4  and  C_13
REMARK    4  A    between atoms: N_5  and  C_12
REMARK    5  A    between atoms: N_6  and  C_20
REMARK    6  A    between atoms: C_10  and  C_12
REMARK    7  A    between atoms: C_13  and  C_14
REMARK                            x       y       z     vdW  Elec       q    Type
REMARK                         _______ _______ _______ _____ _____    ______ ____
ROOT
ATOM      1  O   UNL     1      11.794   7.344  18.868  0.00  0.00    -0.371 OA
ATOM      8  C   UNL     1      14.025   7.017  19.613  0.00  0.00    +0.111 C 
ATOM      9  C   UNL     1      13.245   7.742  20.693  0.00  0.00    +0.164 C 
ATOM     10  C   UNL     1      11.814   7.396  20.304  0.00  0.00    +0.165 C 
ATOM     11  C   UNL     1      13.150   7.258  18.394  0.00  0.00    +0.181 C 
ENDROOT
BRANCH   9   2
ATOM      2  O   UNL     1      13.563   7.291  21.994  0.00  0.00    -0.388 OA
ATOM     27  H   UNL     1      13.323   7.989  22.628  0.00  0.00    +0.210 HD
ENDBRANCH   9   2
BRANCH   8   4
ATOM      4  N   UNL     1      15.382   7.510  19.441  0.00  0.00    -0.305 NA
ATOM     26  H   UNL     1      15.613   8.128  20.220  0.00  0.00    +0.123 HD
BRANCH   4  13
ATOM     13  C   UNL     1      16.341   6.412  19.412  0.00  0.00    +0.116 C 
BRANCH  13  14
ATOM      7  N   UNL     1      19.887   7.323  21.668  0.00  0.00    -0.263 NA
ATOM     14  C   UNL     1      17.582   6.730  20.201  0.00  0.00    -0.031 A 
ATOM     16  C   UNL     1      18.686   5.887  20.139  0.00  0.00    +0.024 A 
ATOM     17  C   UNL     1      17.629   7.870  20.997  0.00  0.00    +0.024 A 
ATOM     18  C   UNL     1      19.803   6.225  20.884  0.00  0.00    +0.111 A 
ATOM     19  C   UNL     1      18.795   8.119  21.704  0.00  0.00    +0.111 A 
ENDBRANCH  13  14
ENDBRANCH   4  13
ENDBRANCH   8   4
BRANCH  10  12
ATOM     12  C   UNL     1      10.796   8.409  20.796  0.00  0.00    +0.140 C 
BRANCH  12   5
ATOM      3  O   UNL     1      11.126  11.115  21.677  0.00  0.00    -0.253 OA
ATOM      5  N   UNL     1      11.098   8.847  22.129  0.00  0.00    -0.297 N 
ATOM      6  N   UNL     1      11.535  10.319  23.847  0.00  0.00    -0.269 N 
ATOM     15  C   UNL     1      11.245  10.197  22.485  0.00  0.00    +0.304 C 
ATOM     28  H   UNL     1      11.224   8.141  22.848  0.00  0.00    +0.150 HD
ATOM     29  H   UNL     1      11.600   9.454  24.378  0.00  0.00    +0.156 HD
BRANCH   6  20
ATOM     20  C   UNL     1      11.753  11.505  24.585  0.00  0.00    +0.035 A 
ATOM     21  C   UNL     1      13.048  11.865  24.959  0.00  0.00    +0.023 A 
ATOM     22  C   UNL     1      10.674  12.315  24.940  0.00  0.00    +0.023 A 
ATOM     23  C   UNL     1      13.263  13.035  25.688  0.00  0.00    +0.002 A 
ATOM     24  C   UNL     1      10.889  13.485  25.669  0.00  0.00    +0.002 A 
ATOM     25  C   UNL     1      12.184  13.844  26.043  0.00  0.00    +0.000 A 
ENDBRANCH   6  20
ENDBRANCH  12   5
ENDBRANCH  10  12
TORSDOF 7
ENDMDL
MODEL 2
REMARK VINA RESULT:      -6.8     26.294     29.273
REMARK  Name = 75536842
REMARK  7 active torsions:
REMARK  status: ('A' for Active; 'I' for Inactive)
REMARK    1  A    between atoms: O_2  and  C_9
REMARK    2  A    between atoms: N_4  and  C_8
REMARK    3  A    between atoms: N_4  and  C_13
REMARK    4  A    between atoms: N_5  and  C_12
REMARK    5  A    between atoms: N_6  and  C_20
REMARK    6  A    between atoms: C_10  and  C_12
REMARK    7  A    between atoms: C_13  and  C_14
REMARK                            x       y       z     vdW  Elec       q    Type
REMARK                         _______ _______ _______ _____ _____    ______ ____
ROOT
ATOM      1  O   UNL     1     -16.667   4.130  22.417  0.00  0.00    -0.371 OA
ATOM      8  C   UNL     1     -14.573   5.208  22.110  0.00  0.00    +0.111 C 
ATOM      9  C   UNL     1     -14.732   4.844  23.575  0.00  0.00    +0.164 C 
ATOM     10  C   UNL     1     -15.792   3.754  23.493  0.00  0.00    +0.165 C 
ATOM     11  C   UNL     1     -16.011   5.135  21.624  0.00  0.00    +0.181 C 
ENDROOT
BRANCH   9   2
ATOM      2  O   UNL     1     -13.532   4.373  24.154  0.00  0.00    -0.388 OA
ATOM     27  H   UNL     1     -12.982   5.141  24.386  0.00  0.00    +0.210 HD
ENDBRANCH   9   2
BRANCH   8   4
ATOM      4  N   UNL     1     -13.969   6.513  21.895  0.00  0.00    -0.305 NA
ATOM     26  H   UNL     1     -13.847   6.976  22.796  0.00  0.00    +0.123 HD
BRANCH   4  13
ATOM     13  C   UNL     1     -12.666   6.388  21.250  0.00  0.00    +0.116 C 
BRANCH  13  14
ATOM      7  N   UNL     1     -11.132  10.203  19.988  0.00  0.00    -0.263 NA
ATOM     14  C   UNL     1     -12.130   7.723  20.809  0.00  0.00    -0.031 A 
ATOM     16  C   UNL     1     -12.655   8.897  21.337  0.00  0.00    +0.024 A 
ATOM     17  C   UNL     1     -11.105   7.788  19.871  0.00  0.00    +0.024 A 
ATOM     18  C   UNL     1     -12.127  10.100  20.898  0.00  0.00    +0.111 A 
ATOM     19  C   UNL     1     -10.646   9.041  19.497  0.00  0.00    +0.111 A 
ENDBRANCH  13  14
ENDBRANCH   4  13
ENDBRANCH   8   4
BRANCH  10  12
ATOM     12  C   UNL     1     -16.590   3.596  24.774  0.00  0.00    +0.140 C 
BRANCH  12   5
ATOM      3  O   UNL     1     -17.258   2.737  27.425  0.00  0.00    -0.253 OA
ATOM      5  N   UNL     1     -15.737   3.631  25.928  0.00  0.00    -0.297 N 
ATOM      6  N   UNL     1     -15.101   3.344  28.124  0.00  0.00    -0.269 N 
ATOM     15  C   UNL     1     -16.138   3.190  27.199  0.00  0.00    +0.304 C 
ATOM     28  H   UNL     1     -14.801   4.006  25.820  0.00  0.00    +0.150 HD
ATOM     29  H   UNL     1     -14.232   3.738  27.773  0.00  0.00    +0.156 HD
BRANCH   6  20
ATOM     20  C   UNL     1     -15.110   3.019  29.500  0.00  0.00    +0.035 A 
ATOM     21  C   UNL     1     -15.600   3.936  30.430  0.00  0.00    +0.023 A 
ATOM     22  C   UNL     1     -14.628   1.781  29.928  0.00  0.00    +0.023 A 
ATOM     23  C   UNL     1     -15.608   3.616  31.788  0.00  0.00    +0.002 A 
ATOM     24  C   UNL     1     -14.636   1.462  31.286  0.00  0.00    +0.002 A 
ATOM     25  C   UNL     1     -15.125   2.379  32.215  0.00  0.00    +0.000 A 
ENDBRANCH   6  20
ENDBRANCH  12   5
ENDBRANCH  10  12
TORSDOF 7
ENDMDL
MODEL 3
REMARK VINA RESULT:      -6.7     27.032     30.029
REMARK  Name = 75536842
REMARK  7 active torsions:
REMARK  status: ('A' for Active; 'I' for Inactive)
REMARK    1  A    between atoms: O_2  and  C_9
REMARK    2  A    between atoms: N_4  and  C_8
REMARK    3  A    between atoms: N_4  and  C_13
REMARK    4  A    between atoms: N_5  and  C_12
REMARK    5  A    between atoms: N_6  and  C_20
REMARK    6  A    between atoms: C_10  and  C_12
REMARK    7  A    between atoms: C_13  and  C_14
REMARK                            x       y       z     vdW  Elec       q    Type
REMARK                         _______ _______ _______ _____ _____    ______ ____
ROOT
ATOM      1  O   UNL     1     -17.554   5.517  23.525  0.00  0.00    -0.371 OA
ATOM      8  C   UNL     1     -15.726   4.362  22.542  0.00  0.00    +0.111 C 
ATOM      9  C   UNL     1     -15.696   4.149  24.044  0.00  0.00    +0.164 C 
ATOM     10  C   UNL     1     -17.138   4.468  24.416  0.00  0.00    +0.165 C 
ATOM     11  C   UNL     1     -16.624   5.582  22.429  0.00  0.00    +0.181 C 
ENDROOT
BRANCH   9   2
ATOM      2  O   UNL     1     -15.339   2.828  24.402  0.00  0.00    -0.388 OA
ATOM     27  H   UNL     1     -16.080   2.434  24.895  0.00  0.00    +0.210 HD
ENDBRANCH   9   2
BRANCH   8   4
ATOM      4  N   UNL     1     -14.413   4.569  21.955  0.00  0.00    -0.305 NA
ATOM     26  H   UNL     1     -14.490   4.513  20.939  0.00  0.00    +0.123 HD
BRANCH   4  13
ATOM     13  C   UNL     1     -13.878   5.878  22.315  0.00  0.00    +0.116 C 
BRANCH  13  14
ATOM      7  N   UNL     1     -12.281   7.948  18.900  0.00  0.00    -0.263 NA
ATOM     14  C   UNL     1     -13.318   6.602  21.120  0.00  0.00    -0.031 A 
ATOM     16  C   UNL     1     -11.944   6.652  20.912  0.00  0.00    +0.024 A 
ATOM     17  C   UNL     1     -14.175   7.225  20.218  0.00  0.00    +0.024 A 
ATOM     18  C   UNL     1     -11.480   7.331  19.798  0.00  0.00    +0.111 A 
ATOM     19  C   UNL     1     -13.610   7.878  19.134  0.00  0.00    +0.111 A 
ENDBRANCH  13  14
ENDBRANCH   4  13
ENDBRANCH   8   4
BRANCH  10  12
ATOM     12  C   UNL     1     -17.300   4.922  25.855  0.00  0.00    +0.140 C 
BRANCH  12   5
ATOM      3  O   UNL     1     -17.602   3.100  28.045  0.00  0.00    -0.253 OA
ATOM      5  N   UNL     1     -16.254   4.400  26.687  0.00  0.00    -0.297 N 
ATOM      6  N   UNL     1     -15.279   3.171  28.375  0.00  0.00    -0.269 N 
ATOM     15  C   UNL     1     -16.482   3.506  27.746  0.00  0.00    +0.304 C 
ATOM     28  H   UNL     1     -15.302   4.703  26.507  0.00  0.00    +0.150 HD
ATOM     29  H   UNL     1     -14.435   3.598  28.002  0.00  0.00    +0.156 HD
BRANCH   6  20
ATOM     20  C   UNL     1     -15.088   2.305  29.477  0.00  0.00    +0.035 A 
ATOM     21  C   UNL     1     -14.468   2.776  30.634  0.00  0.00    +0.023 A 
ATOM     22  C   UNL     1     -15.519   0.980  29.406  0.00  0.00    +0.023 A 
ATOM     23  C   UNL     1     -14.278   1.922  31.721  0.00  0.00    +0.002 A 
ATOM     24  C   UNL     1     -15.329   0.126  30.493  0.00  0.00    +0.002 A 
ATOM     25  C   UNL     1     -14.709   0.597  31.650  0.00  0.00    +0.000 A 
ENDBRANCH   6  20
ENDBRANCH  12   5
ENDBRANCH  10  12
TORSDOF 7
ENDMDL
MODEL 4
REMARK VINA RESULT:      -6.7      1.817      7.874
REMARK  Name = 75536842
REMARK  7 active torsions:
REMARK  status: ('A' for Active; 'I' for Inactive)
REMARK    1  A    between atoms: O_2  and  C_9
REMARK    2  A    between atoms: N_4  and  C_8
REMARK    3  A    between atoms: N_4  and  C_13
REMARK    4  A    between atoms: N_5  and  C_12
REMARK    5  A    between atoms: N_6  and  C_20
REMARK    6  A    between atoms: C_10  and  C_12
REMARK    7  A    between atoms: C_13  and  C_14
REMARK                            x       y       z     vdW  Elec       q    Type
REMARK                         _______ _______ _______ _____ _____    ______ ____
ROOT
ATOM      1  O   UNL     1      12.833   6.574  20.799  0.00  0.00    -0.371 OA
ATOM      8  C   UNL     1      10.792   7.731  21.172  0.00  0.00    +0.111 C 
ATOM      9  C   UNL     1      11.464   8.300  19.936  0.00  0.00    +0.164 C 
ATOM     10  C   UNL     1      12.399   7.160  19.559  0.00  0.00    +0.165 C 
ATOM     11  C   UNL     1      11.953   7.020  21.847  0.00  0.00    +0.181 C 
ENDROOT
BRANCH   9   2
ATOM      2  O   UNL     1      10.547   8.595  18.902  0.00  0.00    -0.388 OA
ATOM     27  H   UNL     1      10.624   9.540  18.684  0.00  0.00    +0.210 HD
ENDBRANCH   9   2
BRANCH   8   4
ATOM      4  N   UNL     1      10.177   8.740  22.019  0.00  0.00    -0.305 NA
ATOM     26  H   UNL     1       9.451   8.300  22.587  0.00  0.00    +0.123 HD
BRANCH   4  13
ATOM     13  C   UNL     1      11.160   9.353  22.904  0.00  0.00    +0.116 C 
BRANCH  13  14
ATOM      7  N   UNL     1      10.795  13.638  22.981  0.00  0.00    -0.263 NA
ATOM     14  C   UNL     1      11.032  10.852  22.931  0.00  0.00    -0.031 A 
ATOM     16  C   UNL     1      11.290  11.596  21.785  0.00  0.00    +0.024 A 
ATOM     17  C   UNL     1      10.655  11.500  24.102  0.00  0.00    +0.024 A 
ATOM     18  C   UNL     1      11.159  12.973  21.862  0.00  0.00    +0.111 A 
ATOM     19  C   UNL     1      10.552  12.882  24.075  0.00  0.00    +0.111 A 
ENDBRANCH  13  14
ENDBRANCH   4  13
ENDBRANCH   8   4
BRANCH  10  12
ATOM     12  C   UNL     1      13.605   7.613  18.756  0.00  0.00    +0.140 C 
BRANCH  12   5
ATOM      3  O   UNL     1      15.950   8.550  20.109  0.00  0.00    -0.253 OA
ATOM      5  N   UNL     1      14.771   6.843  19.086  0.00  0.00    -0.297 N 
ATOM      6  N   UNL     1      16.863   6.394  19.939  0.00  0.00    -0.269 N 
ATOM     15  C   UNL     1      15.885   7.376  19.754  0.00  0.00    +0.304 C 
ATOM     28  H   UNL     1      14.794   5.866  18.811  0.00  0.00    +0.150 HD
ATOM     29  H   UNL     1      16.652   5.466  19.583  0.00  0.00    +0.156 HD
BRANCH   6  20
ATOM     20  C   UNL     1      18.124   6.533  20.566  0.00  0.00    +0.035 A 
ATOM     21  C   UNL     1      18.296   7.466  21.587  0.00  0.00    +0.023 A 
ATOM     22  C   UNL     1      19.195   5.735  20.161  0.00  0.00    +0.023 A 
ATOM     23  C   UNL     1      19.540   7.604  22.205  0.00  0.00    +0.002 A 
ATOM     24  C   UNL     1      20.438   5.873  20.779  0.00  0.00    +0.002 A 
ATOM     25  C   UNL     1      20.611   6.807  21.800  0.00  0.00    +0.000 A 
ENDBRANCH   6  20
ENDBRANCH  12   5
ENDBRANCH  10  12
TORSDOF 7
ENDMDL
MODEL 5
REMARK VINA RESULT:      -6.7     27.046     30.355
REMARK  Name = 75536842
REMARK  7 active torsions:
REMARK  status: ('A' for Active; 'I' for Inactive)
REMARK    1  A    between atoms: O_2  and  C_9
REMARK    2  A    between atoms: N_4  and  C_8
REMARK    3  A    between atoms: N_4  and  C_13
REMARK    4  A    between atoms: N_5  and  C_12
REMARK    5  A    between atoms: N_6  and  C_20
REMARK    6  A    between atoms: C_10  and  C_12
REMARK    7  A    between atoms: C_13  and  C_14
REMARK                            x       y       z     vdW  Elec       q    Type
REMARK                         _______ _______ _______ _____ _____    ______ ____
ROOT
ATOM      1  O   UNL     1     -16.865   1.577  24.831  0.00  0.00    -0.371 OA
ATOM      8  C   UNL     1     -16.429   2.894  26.759  0.00  0.00    +0.111 C 
ATOM      9  C   UNL     1     -16.113   3.711  25.521  0.00  0.00    +0.164 C 
ATOM     10  C   UNL     1     -16.917   2.966  24.464  0.00  0.00    +0.165 C 
ATOM     11  C   UNL     1     -16.425   1.482  26.198  0.00  0.00    +0.181 C 
ENDROOT
BRANCH   9   2
ATOM      2  O   UNL     1     -16.518   5.061  25.638  0.00  0.00    -0.388 OA
ATOM     27  H   UNL     1     -16.940   5.327  24.802  0.00  0.00    +0.210 HD
ENDBRANCH   9   2
BRANCH   8   4
ATOM      4  N   UNL     1     -15.473   3.076  27.839  0.00  0.00    -0.305 NA
ATOM     26  H   UNL     1     -14.851   3.851  27.605  0.00  0.00    +0.123 HD
BRANCH   4  13
ATOM     13  C   UNL     1     -16.149   3.378  29.095  0.00  0.00    +0.116 C 
BRANCH  13  14
ATOM      7  N   UNL     1     -14.823   0.816  32.284  0.00  0.00    -0.263 NA
ATOM     14  C   UNL     1     -15.685   2.482  30.211  0.00  0.00    -0.031 A 
ATOM     16  C   UNL     1     -15.457   3.005  31.479  0.00  0.00    +0.024 A 
ATOM     17  C   UNL     1     -15.483   1.126  29.979  0.00  0.00    +0.024 A 
ATOM     18  C   UNL     1     -15.030   2.138  32.472  0.00  0.00    +0.111 A 
ATOM     19  C   UNL     1     -15.055   0.343  31.040  0.00  0.00    +0.111 A 
ENDBRANCH  13  14
ENDBRANCH   4  13
ENDBRANCH   8   4
BRANCH  10  12
ATOM     12  C   UNL     1     -16.374   3.146  23.058  0.00  0.00    +0.140 C 
BRANCH  12   5
ATOM      3  O   UNL     1     -15.730   5.197  21.164  0.00  0.00    -0.253 OA
ATOM      5  N   UNL     1     -15.201   3.974  23.055  0.00  0.00    -0.297 N 
ATOM      6  N   UNL     1     -13.741   5.606  22.340  0.00  0.00    -0.269 N 
ATOM     15  C   UNL     1     -14.956   4.962  22.088  0.00  0.00    +0.304 C 
ATOM     28  H   UNL     1     -14.509   3.827  23.783  0.00  0.00    +0.150 HD
ATOM     29  H   UNL     1     -13.216   5.289  23.151  0.00  0.00    +0.156 HD
BRANCH   6  20
ATOM     20  C   UNL     1     -13.142   6.652  21.599  0.00  0.00    +0.035 A 
ATOM     21  C   UNL     1     -13.729   7.917  21.579  0.00  0.00    +0.023 A 
ATOM     22  C   UNL     1     -11.965   6.417  20.888  0.00  0.00    +0.023 A 
ATOM     23  C   UNL     1     -13.139   8.948  20.848  0.00  0.00    +0.002 A 
ATOM     24  C   UNL     1     -11.375   7.449  20.156  0.00  0.00    +0.002 A 
ATOM     25  C   UNL     1     -11.963   8.713  20.136  0.00  0.00    +0.000 A 
ENDBRANCH   6  20
ENDBRANCH  12   5
ENDBRANCH  10  12
TORSDOF 7
ENDMDL
MODEL 6
REMARK VINA RESULT:      -6.7      2.408      2.885
REMARK  Name = 75536842
REMARK  7 active torsions:
REMARK  status: ('A' for Active; 'I' for Inactive)
REMARK    1  A    between atoms: O_2  and  C_9
REMARK    2  A    between atoms: N_4  and  C_8
REMARK    3  A    between atoms: N_4  and  C_13
REMARK    4  A    between atoms: N_5  and  C_12
REMARK    5  A    between atoms: N_6  and  C_20
REMARK    6  A    between atoms: C_10  and  C_12
REMARK    7  A    between atoms: C_13  and  C_14
REMARK                            x       y       z     vdW  Elec       q    Type
REMARK                         _______ _______ _______ _____ _____    ______ ____
ROOT
ATOM      1  O   UNL     1      11.624   7.242  19.303  0.00  0.00    -0.371 OA
ATOM      8  C   UNL     1      13.970   7.304  18.936  0.00  0.00    +0.111 C 
ATOM      9  C   UNL     1      13.705   7.060  20.410  0.00  0.00    +0.164 C 
ATOM     10  C   UNL     1      12.277   6.535  20.370  0.00  0.00    +0.165 C 
ATOM     11  C   UNL     1      12.630   7.856  18.477  0.00  0.00    +0.181 C 
ENDROOT
BRANCH   9   2
ATOM      2  O   UNL     1      14.597   6.121  20.977  0.00  0.00    -0.388 OA
ATOM     27  H   UNL     1      15.457   6.207  20.529  0.00  0.00    +0.210 HD
ENDBRANCH   9   2
BRANCH   8   4
ATOM      4  N   UNL     1      15.073   8.216  18.684  0.00  0.00    -0.305 NA
ATOM     26  H   UNL     1      15.407   8.078  17.729  0.00  0.00    +0.123 HD
BRANCH   4  13
ATOM     13  C   UNL     1      14.653   9.605  18.839  0.00  0.00    +0.116 C 
BRANCH  13  14
ATOM      7  N   UNL     1      16.129  11.326  22.494  0.00  0.00    -0.263 NA
ATOM     14  C   UNL     1      15.170  10.207  20.118  0.00  0.00    -0.031 A 
ATOM     16  C   UNL     1      16.417   9.838  20.610  0.00  0.00    +0.024 A 
ATOM     17  C   UNL     1      14.402  11.135  20.812  0.00  0.00    +0.024 A 
ATOM     18  C   UNL     1      16.847  10.421  21.791  0.00  0.00    +0.111 A 
ATOM     19  C   UNL     1      14.922  11.660  21.985  0.00  0.00    +0.111 A 
ENDBRANCH  13  14
ENDBRANCH   4  13
ENDBRANCH   8   4
BRANCH  10  12
ATOM     12  C   UNL     1      11.521   6.751  21.668  0.00  0.00    +0.140 C 
BRANCH  12   5
ATOM      3  O   UNL     1       9.981   9.102  22.222  0.00  0.00    -0.253 OA
ATOM      5  N   UNL     1      11.973   7.933  22.344  0.00  0.00    -0.297 N 
ATOM      6  N   UNL     1      11.865  10.046  23.257  0.00  0.00    -0.269 N 
ATOM     15  C   UNL     1      11.155   9.050  22.580  0.00  0.00    +0.304 C 
ATOM     28  H   UNL     1      12.938   7.967  22.657  0.00  0.00    +0.150 HD
ATOM     29  H   UNL     1      12.836   9.843  23.480  0.00  0.00    +0.156 HD
BRANCH   6  20
ATOM     20  C   UNL     1      11.397  11.314  23.674  0.00  0.00    +0.035 A 
ATOM     21  C   UNL     1      11.166  11.562  25.026  0.00  0.00    +0.023 A 
ATOM     22  C   UNL     1      11.167  12.317  22.731  0.00  0.00    +0.023 A 
ATOM     23  C   UNL     1      10.704  12.813  25.437  0.00  0.00    +0.002 A 
ATOM     24  C   UNL     1      10.706  13.568  23.142  0.00  0.00    +0.002 A 
ATOM     25  C   UNL     1      10.473  13.815  24.494  0.00  0.00    +0.000 A 
ENDBRANCH   6  20
ENDBRANCH  12   5
ENDBRANCH  10  12
TORSDOF 7
ENDMDL
MODEL 7
REMARK VINA RESULT:      -6.6      3.737     10.448
REMARK  Name = 75536842
REMARK  7 active torsions:
REMARK  status: ('A' for Active; 'I' for Inactive)
REMARK    1  A    between atoms: O_2  and  C_9
REMARK    2  A    between atoms: N_4  and  C_8
REMARK    3  A    between atoms: N_4  and  C_13
REMARK    4  A    between atoms: N_5  and  C_12
REMARK    5  A    between atoms: N_6  and  C_20
REMARK    6  A    between atoms: C_10  and  C_12
REMARK    7  A    between atoms: C_13  and  C_14
REMARK                            x       y       z     vdW  Elec       q    Type
REMARK                         _______ _______ _______ _____ _____    ______ ____
ROOT
ATOM      1  O   UNL     1      18.112   6.137  19.402  0.00  0.00    -0.371 OA
ATOM      8  C   UNL     1      15.904   6.814  19.958  0.00  0.00    +0.111 C 
ATOM      9  C   UNL     1      16.776   6.904  21.197  0.00  0.00    +0.164 C 
ATOM     10  C   UNL     1      18.164   6.966  20.575  0.00  0.00    +0.165 C 
ATOM     11  C   UNL     1      16.732   5.897  19.073  0.00  0.00    +0.181 C 
ENDROOT
BRANCH   9   2
ATOM      2  O   UNL     1      16.496   8.047  21.980  0.00  0.00    -0.388 OA
ATOM     27  H   UNL     1      16.849   8.828  21.519  0.00  0.00    +0.210 HD
ENDBRANCH   9   2
BRANCH   8   4
ATOM      4  N   UNL     1      14.571   6.296  20.219  0.00  0.00    -0.305 NA
ATOM     26  H   UNL     1      14.399   6.311  21.225  0.00  0.00    +0.123 HD
BRANCH   4  13
ATOM     13  C   UNL     1      13.554   7.104  19.556  0.00  0.00    +0.116 C 
BRANCH  13  14
ATOM      7  N   UNL     1      10.626   8.591  22.332  0.00  0.00    -0.263 NA
ATOM     14  C   UNL     1      12.529   7.624  20.527  0.00  0.00    -0.031 A 
ATOM     16  C   UNL     1      11.587   6.763  21.077  0.00  0.00    +0.024 A 
ATOM     17  C   UNL     1      12.521   8.970  20.879  0.00  0.00    +0.024 A 
ATOM     18  C   UNL     1      10.665   7.290  21.966  0.00  0.00    +0.111 A 
ATOM     19  C   UNL     1      11.557   9.399  21.778  0.00  0.00    +0.111 A 
ENDBRANCH  13  14
ENDBRANCH   4  13
ENDBRANCH   8   4
BRANCH  10  12
ATOM     12  C   UNL     1      19.261   6.475  21.503  0.00  0.00    +0.140 C 
BRANCH  12   5
ATOM      3  O   UNL     1      21.373   4.891  22.615  0.00  0.00    -0.253 OA
ATOM      5  N   UNL     1      20.285   5.779  20.777  0.00  0.00    -0.297 N 
ATOM      6  N   UNL     1      22.143   4.459  20.440  0.00  0.00    -0.269 N 
ATOM     15  C   UNL     1      21.290   5.020  21.396  0.00  0.00    +0.304 C 
ATOM     28  H   UNL     1      20.288   5.851  19.765  0.00  0.00    +0.150 HD
ATOM     29  H   UNL     1      21.935   4.665  19.467  0.00  0.00    +0.156 HD
BRANCH   6  20
ATOM     20  C   UNL     1      23.271   3.635  20.660  0.00  0.00    +0.035 A 
ATOM     21  C   UNL     1      23.099   2.292  20.994  0.00  0.00    +0.023 A 
ATOM     22  C   UNL     1      24.556   4.166  20.542  0.00  0.00    +0.023 A 
ATOM     23  C   UNL     1      24.212   1.479  21.212  0.00  0.00    +0.002 A 
ATOM     24  C   UNL     1      25.669   3.352  20.760  0.00  0.00    +0.002 A 
ATOM     25  C   UNL     1      25.496   2.010  21.095  0.00  0.00    +0.000 A 
ENDBRANCH   6  20
ENDBRANCH  12   5
ENDBRANCH  10  12
TORSDOF 7
ENDMDL
MODEL 8
REMARK VINA RESULT:      -6.5      3.069      4.441
REMARK  Name = 75536842
REMARK  7 active torsions:
REMARK  status: ('A' for Active; 'I' for Inactive)
REMARK    1  A    between atoms: O_2  and  C_9
REMARK    2  A    between atoms: N_4  and  C_8
REMARK    3  A    between atoms: N_4  and  C_13
REMARK    4  A    between atoms: N_5  and  C_12
REMARK    5  A    between atoms: N_6  and  C_20
REMARK    6  A    between atoms: C_10  and  C_12
REMARK    7  A    between atoms: C_13  and  C_14
REMARK                            x       y       z     vdW  Elec       q    Type
REMARK                         _______ _______ _______ _____ _____    ______ ____
ROOT
ATOM      1  O   UNL     1      11.296   7.688  19.419  0.00  0.00    -0.371 OA
ATOM      8  C   UNL     1      13.395   7.743  18.309  0.00  0.00    +0.111 C 
ATOM      9  C   UNL     1      13.602   7.270  19.736  0.00  0.00    +0.164 C 
ATOM     10  C   UNL     1      12.200   6.798  20.096  0.00  0.00    +0.165 C 
ATOM     11  C   UNL     1      12.028   8.399  18.405  0.00  0.00    +0.181 C 
ENDROOT
BRANCH   9   2
ATOM      2  O   UNL     1      14.552   6.226  19.834  0.00  0.00    -0.388 OA
ATOM     27  H   UNL     1      14.643   5.983  20.772  0.00  0.00    +0.210 HD
ENDBRANCH   9   2
BRANCH   8   4
ATOM      4  N   UNL     1      14.428   8.653  17.840  0.00  0.00    -0.305 NA
ATOM     26  H   UNL     1      15.315   8.150  17.787  0.00  0.00    +0.123 HD
BRANCH   4  13
ATOM     13  C   UNL     1      14.104   9.177  16.518  0.00  0.00    +0.116 C 
BRANCH  13  14
ATOM      7  N   UNL     1      14.811  13.411  16.256  0.00  0.00    -0.263 NA
ATOM     14  C   UNL     1      14.351  10.659  16.427  0.00  0.00    -0.031 A 
ATOM     16  C   UNL     1      14.007  11.491  17.485  0.00  0.00    +0.024 A 
ATOM     17  C   UNL     1      14.926  11.201  15.282  0.00  0.00    +0.024 A 
ATOM     18  C   UNL     1      14.255  12.847  17.352  0.00  0.00    +0.111 A 
ATOM     19  C   UNL     1      15.132  12.571  15.247  0.00  0.00    +0.111 A 
ENDBRANCH  13  14
ENDBRANCH   4  13
ENDBRANCH   8   4
BRANCH  10  12
ATOM     12  C   UNL     1      11.923   6.821  21.588  0.00  0.00    +0.140 C 
BRANCH  12   5
ATOM      3  O   UNL     1      10.169   8.949  22.365  0.00  0.00    -0.253 OA
ATOM      5  N   UNL     1      12.303   8.078  22.169  0.00  0.00    -0.297 N 
ATOM      6  N   UNL     1      12.038  10.183  23.067  0.00  0.00    -0.269 N 
ATOM     15  C   UNL     1      11.381   9.075  22.525  0.00  0.00    +0.304 C 
ATOM     28  H   UNL     1      13.290   8.258  22.318  0.00  0.00    +0.150 HD
ATOM     29  H   UNL     1      13.051  10.127  23.129  0.00  0.00    +0.156 HD
BRANCH   6  20
ATOM     20  C   UNL     1      11.465  11.386  23.542  0.00  0.00    +0.035 A 
ATOM     21  C   UNL     1      11.090  12.383  22.642  0.00  0.00    +0.023 A 
ATOM     22  C   UNL     1      11.276  11.574  24.912  0.00  0.00    +0.023 A 
ATOM     23  C   UNL     1      10.525  13.569  23.110  0.00  0.00    +0.002 A 
ATOM     24  C   UNL     1      10.711  12.761  25.380  0.00  0.00    +0.002 A 
ATOM     25  C   UNL     1      10.337  13.758  24.480  0.00  0.00    +0.000 A 
ENDBRANCH   6  20
ENDBRANCH  12   5
ENDBRANCH  10  12
TORSDOF 7
ENDMDL
MODEL 9
REMARK VINA RESULT:      -6.4     26.541     28.556
REMARK  Name = 75536842
REMARK  7 active torsions:
REMARK  status: ('A' for Active; 'I' for Inactive)
REMARK    1  A    between atoms: O_2  and  C_9
REMARK    2  A    between atoms: N_4  and  C_8
REMARK    3  A    between atoms: N_4  and  C_13
REMARK    4  A    between atoms: N_5  and  C_12
REMARK    5  A    between atoms: N_6  and  C_20
REMARK    6  A    between atoms: C_10  and  C_12
REMARK    7  A    between atoms: C_13  and  C_14
REMARK                            x       y       z     vdW  Elec       q    Type
REMARK                         _______ _______ _______ _____ _____    ______ ____
ROOT
ATOM      1  O   UNL     1      -2.033 -10.860  16.732  0.00  0.00    -0.371 OA
ATOM      8  C   UNL     1      -2.237 -10.542  14.387  0.00  0.00    +0.111 C 
ATOM      9  C   UNL     1      -3.589 -10.934  14.953  0.00  0.00    +0.164 C 
ATOM     10  C   UNL     1      -3.408 -10.578  16.422  0.00  0.00    +0.165 C 
ATOM     11  C   UNL     1      -1.304 -10.992  15.499  0.00  0.00    +0.181 C 
ENDROOT
BRANCH   9   2
ATOM      2  O   UNL     1      -4.657 -10.218  14.363  0.00  0.00    -0.388 OA
ATOM     27  H   UNL     1      -4.844  -9.439  14.916  0.00  0.00    +0.210 HD
ENDBRANCH   9   2
BRANCH   8   4
ATOM      4  N   UNL     1      -1.936 -11.166  13.109  0.00  0.00    -0.305 NA
ATOM     26  H   UNL     1      -2.709 -11.778  12.847  0.00  0.00    +0.123 HD
BRANCH   4  13
ATOM     13  C   UNL     1      -1.754 -10.164  12.065  0.00  0.00    +0.116 C 
BRANCH  13  14
ATOM      7  N   UNL     1      -4.807 -10.424   9.046  0.00  0.00    -0.263 NA
ATOM     14  C   UNL     1      -2.823 -10.255  11.009  0.00  0.00    -0.031 A 
ATOM     16  C   UNL     1      -3.537 -11.435  10.837  0.00  0.00    +0.024 A 
ATOM     17  C   UNL     1      -3.100  -9.158  10.200  0.00  0.00    +0.024 A 
ATOM     18  C   UNL     1      -4.509 -11.468   9.851  0.00  0.00    +0.111 A 
ATOM     19  C   UNL     1      -4.092  -9.293   9.242  0.00  0.00    +0.111 A 
ENDBRANCH  13  14
ENDBRANCH   4  13
ENDBRANCH   8   4
BRANCH  10  12
ATOM     12  C   UNL     1      -4.316 -11.366  17.347  0.00  0.00    +0.140 C 
BRANCH  12   5
ATOM      3  O   UNL     1      -6.970 -11.118  16.299  0.00  0.00    -0.253 OA
ATOM      5  N   UNL     1      -5.371 -10.544  17.868  0.00  0.00    -0.297 N 
ATOM      6  N   UNL     1      -7.466  -9.597  18.016  0.00  0.00    -0.269 N 
ATOM     15  C   UNL     1      -6.651 -10.476  17.296  0.00  0.00    +0.304 C 
ATOM     28  H   UNL     1      -5.175  -9.974  18.685  0.00  0.00    +0.150 HD
ATOM     29  H   UNL     1      -7.045  -9.142  18.822  0.00  0.00    +0.156 HD
BRANCH   6  20
ATOM     20  C   UNL     1      -8.815  -9.257  17.760  0.00  0.00    +0.035 A 
ATOM     21  C   UNL     1      -9.116  -8.143  16.977  0.00  0.00    +0.023 A 
ATOM     22  C   UNL     1      -9.843 -10.035  18.292  0.00  0.00    +0.023 A 
ATOM     23  C   UNL     1     -10.447  -7.807  16.725  0.00  0.00    +0.002 A 
ATOM     24  C   UNL     1     -11.174  -9.699  18.040  0.00  0.00    +0.002 A 
ATOM     25  C   UNL     1     -11.475  -8.585  17.257  0.00  0.00    +0.000 A 
ENDBRANCH   6  20
ENDBRANCH  12   5
ENDBRANCH  10  12
TORSDOF 7
ENDMDL
MODEL 10
REMARK VINA RESULT:      -6.2     28.372     30.988
REMARK  Name = 75536842
REMARK  7 active torsions:
REMARK  status: ('A' for Active; 'I' for Inactive)
REMARK    1  A    between atoms: O_2  and  C_9
REMARK    2  A    between atoms: N_4  and  C_8
REMARK    3  A    between atoms: N_4  and  C_13
REMARK    4  A    between atoms: N_5  and  C_12
REMARK    5  A    between atoms: N_6  and  C_20
REMARK    6  A    between atoms: C_10  and  C_12
REMARK    7  A    between atoms: C_13  and  C_14
REMARK                            x       y       z     vdW  Elec       q    Type
REMARK                         _______ _______ _______ _____ _____    ______ ____
ROOT
ATOM      1  O   UNL     1     -12.847  -7.813  14.832  0.00  0.00    -0.371 OA
ATOM      8  C   UNL     1     -11.916  -5.800  13.981  0.00  0.00    +0.111 C 
ATOM      9  C   UNL     1     -11.260  -6.125  15.310  0.00  0.00    +0.164 C 
ATOM     10  C   UNL     1     -11.553  -7.615  15.426  0.00  0.00    +0.165 C 
ATOM     11  C   UNL     1     -13.173  -6.650  14.049  0.00  0.00    +0.181 C 
ENDROOT
BRANCH   9   2
ATOM      2  O   UNL     1      -9.871  -5.858  15.314  0.00  0.00    -0.388 OA
ATOM     27  H   UNL     1      -9.728  -4.993  15.737  0.00  0.00    +0.210 HD
ENDBRANCH   9   2
BRANCH   8   4
ATOM      4  N   UNL     1     -12.198  -4.386  13.799  0.00  0.00    -0.305 NA
ATOM     26  H   UNL     1     -11.450  -3.965  13.247  0.00  0.00    +0.123 HD
BRANCH   4  13
ATOM     13  C   UNL     1     -13.465  -4.188  13.103  0.00  0.00    +0.116 C 
BRANCH  13  14
ATOM      7  N   UNL     1     -12.877  -3.285   8.940  0.00  0.00    -0.263 NA
ATOM     14  C   UNL     1     -13.260  -3.872  11.646  0.00  0.00    -0.031 A 
ATOM     16  C   UNL     1     -14.342  -3.517  10.849  0.00  0.00    +0.024 A 
ATOM     17  C   UNL     1     -11.985  -3.933  11.092  0.00  0.00    +0.024 A 
ATOM     18  C   UNL     1     -14.100  -3.236   9.514  0.00  0.00    +0.111 A 
ATOM     19  C   UNL     1     -11.850  -3.633   9.745  0.00  0.00    +0.111 A 
ENDBRANCH  13  14
ENDBRANCH   4  13
ENDBRANCH   8   4
BRANCH  10  12
ATOM     12  C   UNL     1     -11.563  -8.115  16.859  0.00  0.00    +0.140 C 
BRANCH  12   5
ATOM      3  O   UNL     1      -9.608 -10.191  16.584  0.00  0.00    -0.253 OA
ATOM      5  N   UNL     1     -10.240  -8.128  17.416  0.00  0.00    -0.297 N 
ATOM      6  N   UNL     1      -8.130  -8.920  17.891  0.00  0.00    -0.269 N 
ATOM     15  C   UNL     1      -9.336  -9.186  17.236  0.00  0.00    +0.304 C 
ATOM     28  H   UNL     1      -9.950  -7.335  17.979  0.00  0.00    +0.150 HD
ATOM     29  H   UNL     1      -8.067  -8.036  18.390  0.00  0.00    +0.156 HD
BRANCH   6  20
ATOM     20  C   UNL     1      -6.975  -9.734  17.948  0.00  0.00    +0.035 A 
ATOM     21  C   UNL     1      -6.684 -10.450  19.109  0.00  0.00    +0.023 A 
ATOM     22  C   UNL     1      -6.127  -9.822  16.844  0.00  0.00    +0.023 A 
ATOM     23  C   UNL     1      -5.544 -11.253  19.167  0.00  0.00    +0.002 A 
ATOM     24  C   UNL     1      -4.988 -10.625  16.901  0.00  0.00    +0.002 A 
ATOM     25  C   UNL     1      -4.696 -11.340  18.062  0.00  0.00    +0.000 A 
ENDBRANCH   6  20
ENDBRANCH  12   5
ENDBRANCH  10  12
TORSDOF 7
ENDMDL
