MODEL 1
REMARK VINA RESULT:      -6.6      0.000      0.000
REMARK  Name = 75536536
REMARK  6 active torsions:
REMARK  status: ('A' for Active; 'I' for Inactive)
REMARK    1  A    between atoms: O_4  and  C_10
REMARK    2  A    between atoms: N_6  and  C_8
REMARK    3  A    between atoms: N_6  and  C_9
REMARK    4  A    between atoms: N_7  and  C_21
REMARK    5  A    between atoms: C_11  and  C_21
REMARK    6  A    between atoms: C_12  and  C_22
REMARK                            x       y       z     vdW  Elec       q    Type
REMARK                         _______ _______ _______ _____ _____    ______ ____
ROOT
ATOM      3  O   UNL     1      13.223   8.052  21.587  0.00  0.00    -0.371 OA
ATOM      8  C   UNL     1      11.310   9.043  22.587  0.00  0.00    +0.111 C 
ATOM     10  C   UNL     1      10.858   8.022  21.558  0.00  0.00    +0.164 C 
ATOM     11  C   UNL     1      12.108   7.159  21.433  0.00  0.00    +0.165 C 
ATOM     15  C   UNL     1      12.749   9.283  22.160  0.00  0.00    +0.181 C 
ENDROOT
BRANCH  10   4
ATOM      4  O   UNL     1       9.740   7.270  21.989  0.00  0.00    -0.388 OA
ATOM     25  H   UNL     1      10.060   6.428  22.354  0.00  0.00    +0.210 HD
ENDBRANCH  10   4
BRANCH   8   6
ATOM      6  N   UNL     1      10.511  10.257  22.593  0.00  0.00    -0.306 NA
ATOM     23  H   UNL     1       9.642  10.105  23.105  0.00  0.00    +0.123 HD
BRANCH   6   9
ATOM      1  F   UNL     1      10.030  14.145  24.980  0.00  0.00    -0.206 F 
ATOM      2  F   UNL     1      12.052  14.899  25.246  0.00  0.00    -0.206 F 
ATOM      9  C   UNL     1      11.255  11.364  23.190  0.00  0.00    +0.054 C 
ATOM     13  C   UNL     1      10.825  12.688  22.545  0.00  0.00    +0.024 C 
ATOM     14  C   UNL     1      11.027  11.386  24.706  0.00  0.00    +0.024 C 
ATOM     18  C   UNL     1      11.531  13.877  23.195  0.00  0.00    +0.077 C 
ATOM     19  C   UNL     1      11.733  12.573  25.357  0.00  0.00    +0.077 C 
ATOM     20  C   UNL     1      11.334  13.885  24.702  0.00  0.00    +0.249 C 
ENDBRANCH   6   9
ENDBRANCH   8   6
BRANCH  11  21
ATOM     21  C   UNL     1      12.208   6.437  20.102  0.00  0.00    +0.138 C 
BRANCH  21   7
ATOM      5  O   UNL     1      11.760   7.365  17.383  0.00  0.00    -0.276 OA
ATOM      7  N   UNL     1      13.150   7.077  19.230  0.00  0.00    -0.313 N 
ATOM     22  C   UNL     1      12.844   7.488  17.941  0.00  0.00    +0.216 C 
ATOM     24  H   UNL     1      14.085   7.248  19.590  0.00  0.00    +0.149 HD
BRANCH  22  12
ATOM     12  C   UNL     1      13.976   8.133  17.215  0.00  0.00    +0.075 C 
ATOM     16  C   UNL     1      14.259   9.576  17.472  0.00  0.00    +0.013 C 
ATOM     17  C   UNL     1      13.664   9.147  16.165  0.00  0.00    +0.013 C 
ENDBRANCH  22  12
ENDBRANCH  21   7
ENDBRANCH  11  21
TORSDOF 6
ENDMDL
MODEL 2
REMARK VINA RESULT:      -6.4      4.264      7.441
REMARK  Name = 75536536
REMARK  6 active torsions:
REMARK  status: ('A' for Active; 'I' for Inactive)
REMARK    1  A    between atoms: O_4  and  C_10
REMARK    2  A    between atoms: N_6  and  C_8
REMARK    3  A    between atoms: N_6  and  C_9
REMARK    4  A    between atoms: N_7  and  C_21
REMARK    5  A    between atoms: C_11  and  C_21
REMARK    6  A    between atoms: C_12  and  C_22
REMARK                            x       y       z     vdW  Elec       q    Type
REMARK                         _______ _______ _______ _____ _____    ______ ____
ROOT
ATOM      3  O   UNL     1      10.990   7.730  21.140  0.00  0.00    -0.371 OA
ATOM      8  C   UNL     1      13.225   8.392  20.682  0.00  0.00    +0.111 C 
ATOM     10  C   UNL     1      12.646   9.308  21.745  0.00  0.00    +0.164 C 
ATOM     11  C   UNL     1      11.498   8.455  22.272  0.00  0.00    +0.165 C 
ATOM     15  C   UNL     1      11.964   7.791  20.083  0.00  0.00    +0.181 C 
ENDROOT
BRANCH  10   4
ATOM      4  O   UNL     1      13.578   9.622  22.761  0.00  0.00    -0.388 OA
ATOM     25  H   UNL     1      13.978   8.794  23.077  0.00  0.00    +0.210 HD
ENDBRANCH  10   4
BRANCH   8   6
ATOM      6  N   UNL     1      14.044   9.083  19.700  0.00  0.00    -0.306 NA
ATOM     23  H   UNL     1      14.152  10.063  19.958  0.00  0.00    +0.123 HD
BRANCH   6   9
ATOM      1  F   UNL     1      16.836   6.014  21.659  0.00  0.00    -0.206 F 
ATOM      2  F   UNL     1      18.620   5.998  20.416  0.00  0.00    -0.206 F 
ATOM      9  C   UNL     1      15.357   8.450  19.582  0.00  0.00    +0.054 C 
ATOM     13  C   UNL     1      16.200   8.768  20.824  0.00  0.00    +0.024 C 
ATOM     14  C   UNL     1      15.190   6.938  19.396  0.00  0.00    +0.024 C 
ATOM     18  C   UNL     1      17.555   8.063  20.769  0.00  0.00    +0.077 C 
ATOM     19  C   UNL     1      16.544   6.233  19.340  0.00  0.00    +0.077 C 
ATOM     20  C   UNL     1      17.396   6.568  20.553  0.00  0.00    +0.249 C 
ENDBRANCH   6   9
ENDBRANCH   8   6
BRANCH  11  21
ATOM     21  C   UNL     1      10.384   9.273  22.901  0.00  0.00    +0.138 C 
BRANCH  21   7
ATOM      5  O   UNL     1      10.876  10.864  25.285  0.00  0.00    -0.276 OA
ATOM      7  N   UNL     1      10.731  10.663  22.968  0.00  0.00    -0.313 N 
ATOM     22  C   UNL     1      10.948  11.342  24.158  0.00  0.00    +0.216 C 
ATOM     24  H   UNL     1      10.836  11.166  22.091  0.00  0.00    +0.149 HD
BRANCH  22  12
ATOM     12  C   UNL     1      11.300  12.782  23.991  0.00  0.00    +0.075 C 
ATOM     16  C   UNL     1      11.782  13.541  25.182  0.00  0.00    +0.013 C 
ATOM     17  C   UNL     1      10.418  13.808  24.621  0.00  0.00    +0.013 C 
ENDBRANCH  22  12
ENDBRANCH  21   7
ENDBRANCH  11  21
TORSDOF 6
ENDMDL
MODEL 3
REMARK VINA RESULT:      -6.3     26.148     27.492
REMARK  Name = 75536536
REMARK  6 active torsions:
REMARK  status: ('A' for Active; 'I' for Inactive)
REMARK    1  A    between atoms: O_4  and  C_10
REMARK    2  A    between atoms: N_6  and  C_8
REMARK    3  A    between atoms: N_6  and  C_9
REMARK    4  A    between atoms: N_7  and  C_21
REMARK    5  A    between atoms: C_11  and  C_21
REMARK    6  A    between atoms: C_12  and  C_22
REMARK                            x       y       z     vdW  Elec       q    Type
REMARK                         _______ _______ _______ _____ _____    ______ ____
ROOT
ATOM      3  O   UNL     1      -1.212 -11.397  15.100  0.00  0.00    -0.371 OA
ATOM      8  C   UNL     1      -3.348 -10.941  16.033  0.00  0.00    +0.111 C 
ATOM     10  C   UNL     1      -3.519 -11.347  14.580  0.00  0.00    +0.164 C 
ATOM     11  C   UNL     1      -2.209 -12.084  14.326  0.00  0.00    +0.165 C 
ATOM     15  C   UNL     1      -1.875 -10.567  16.070  0.00  0.00    +0.181 C 
ENDROOT
BRANCH  10   4
ATOM      4  O   UNL     1      -4.641 -12.183  14.375  0.00  0.00    -0.388 OA
ATOM     25  H   UNL     1      -5.445 -11.648  14.485  0.00  0.00    +0.210 HD
ENDBRANCH  10   4
BRANCH   8   6
ATOM      6  N   UNL     1      -4.219  -9.851  16.440  0.00  0.00    -0.306 NA
ATOM     23  H   UNL     1      -4.815  -9.567  15.663  0.00  0.00    +0.123 HD
BRANCH   6   9
ATOM      1  F   UNL     1      -6.679 -13.310  18.183  0.00  0.00    -0.206 F 
ATOM      2  F   UNL     1      -7.449 -12.559  20.073  0.00  0.00    -0.206 F 
ATOM      9  C   UNL     1      -5.042 -10.244  17.582  0.00  0.00    +0.054 C 
ATOM     13  C   UNL     1      -6.464 -10.573  17.110  0.00  0.00    +0.024 C 
ATOM     14  C   UNL     1      -4.403 -11.441  18.296  0.00  0.00    +0.024 C 
ATOM     18  C   UNL     1      -7.335 -11.058  18.269  0.00  0.00    +0.077 C 
ATOM     19  C   UNL     1      -5.272 -11.925  19.455  0.00  0.00    +0.077 C 
ATOM     20  C   UNL     1      -6.691 -12.224  18.999  0.00  0.00    +0.249 C 
ENDBRANCH   6   9
ENDBRANCH   8   6
BRANCH  11  21
ATOM     21  C   UNL     1      -1.804 -12.099  12.863  0.00  0.00    +0.138 C 
BRANCH  21   7
ATOM      5  O   UNL     1      -1.767  -9.714  11.200  0.00  0.00    -0.276 OA
ATOM      7  N   UNL     1      -2.856 -11.601  12.025  0.00  0.00    -0.313 N 
ATOM     22  C   UNL     1      -2.747 -10.447  11.262  0.00  0.00    +0.216 C 
ATOM     24  H   UNL     1      -3.719 -12.137  11.982  0.00  0.00    +0.149 HD
BRANCH  22  12
ATOM     12  C   UNL     1      -3.964 -10.119  10.464  0.00  0.00    +0.075 C 
ATOM     16  C   UNL     1      -3.871  -9.044   9.432  0.00  0.00    +0.013 C 
ATOM     17  C   UNL     1      -4.637  -8.808  10.698  0.00  0.00    +0.013 C 
ENDBRANCH  22  12
ENDBRANCH  21   7
ENDBRANCH  11  21
TORSDOF 6
ENDMDL
MODEL 4
REMARK VINA RESULT:      -6.3     15.577     19.941
REMARK  Name = 75536536
REMARK  6 active torsions:
REMARK  status: ('A' for Active; 'I' for Inactive)
REMARK    1  A    between atoms: O_4  and  C_10
REMARK    2  A    between atoms: N_6  and  C_8
REMARK    3  A    between atoms: N_6  and  C_9
REMARK    4  A    between atoms: N_7  and  C_21
REMARK    5  A    between atoms: C_11  and  C_21
REMARK    6  A    between atoms: C_12  and  C_22
REMARK                            x       y       z     vdW  Elec       q    Type
REMARK                         _______ _______ _______ _____ _____    ______ ____
ROOT
ATOM      3  O   UNL     1      11.243   7.918   3.929  0.00  0.00    -0.371 OA
ATOM      8  C   UNL     1      10.985   5.655   3.254  0.00  0.00    +0.111 C 
ATOM     10  C   UNL     1      10.655   5.771   4.731  0.00  0.00    +0.164 C 
ATOM     11  C   UNL     1      10.354   7.260   4.847  0.00  0.00    +0.165 C 
ATOM     15  C   UNL     1      11.769   6.936   3.019  0.00  0.00    +0.181 C 
ENDROOT
BRANCH  10   4
ATOM      4  O   UNL     1       9.545   4.979   5.106  0.00  0.00    -0.388 OA
ATOM     25  H   UNL     1       9.470   4.997   6.075  0.00  0.00    +0.210 HD
ENDBRANCH  10   4
BRANCH   8   6
ATOM      6  N   UNL     1      11.740   4.459   2.917  0.00  0.00    -0.306 NA
ATOM     23  H   UNL     1      11.127   3.645   2.910  0.00  0.00    +0.123 HD
BRANCH   6   9
ATOM      1  F   UNL     1      12.706   2.240  -0.980  0.00  0.00    -0.206 F 
ATOM      2  F   UNL     1      13.793   3.679  -2.195  0.00  0.00    -0.206 F 
ATOM      9  C   UNL     1      12.390   4.605   1.616  0.00  0.00    +0.054 C 
ATOM     13  C   UNL     1      13.544   3.602   1.496  0.00  0.00    +0.024 C 
ATOM     14  C   UNL     1      11.362   4.407   0.496  0.00  0.00    +0.024 C 
ATOM     18  C   UNL     1      14.202   3.676   0.119  0.00  0.00    +0.077 C 
ATOM     19  C   UNL     1      12.019   4.483  -0.880  0.00  0.00    +0.077 C 
ATOM     20  C   UNL     1      13.183   3.511  -0.995  0.00  0.00    +0.249 C 
ENDBRANCH   6   9
ENDBRANCH   8   6
BRANCH  11  21
ATOM     21  C   UNL     1      10.565   7.807   6.248  0.00  0.00    +0.138 C 
BRANCH  21   7
ATOM      5  O   UNL     1       8.703   7.129   8.376  0.00  0.00    -0.276 OA
ATOM      7  N   UNL     1      10.684   6.749   7.209  0.00  0.00    -0.313 N 
ATOM     22  C   UNL     1       9.739   6.499   8.194  0.00  0.00    +0.216 C 
ATOM     24  H   UNL     1      11.499   6.145   7.148  0.00  0.00    +0.149 HD
BRANCH  22  12
ATOM     12  C   UNL     1      10.066   5.347   9.083  0.00  0.00    +0.075 C 
ATOM     16  C   UNL     1       9.460   4.017   8.779  0.00  0.00    +0.013 C 
ATOM     17  C   UNL     1       8.993   4.803   9.967  0.00  0.00    +0.013 C 
ENDBRANCH  22  12
ENDBRANCH  21   7
ENDBRANCH  11  21
TORSDOF 6
ENDMDL
MODEL 5
REMARK VINA RESULT:      -6.1      2.742      3.325
REMARK  Name = 75536536
REMARK  6 active torsions:
REMARK  status: ('A' for Active; 'I' for Inactive)
REMARK    1  A    between atoms: O_4  and  C_10
REMARK    2  A    between atoms: N_6  and  C_8
REMARK    3  A    between atoms: N_6  and  C_9
REMARK    4  A    between atoms: N_7  and  C_21
REMARK    5  A    between atoms: C_11  and  C_21
REMARK    6  A    between atoms: C_12  and  C_22
REMARK                            x       y       z     vdW  Elec       q    Type
REMARK                         _______ _______ _______ _____ _____    ______ ____
ROOT
ATOM      3  O   UNL     1      13.145   6.751  20.942  0.00  0.00    -0.371 OA
ATOM      8  C   UNL     1      11.119   7.974  20.742  0.00  0.00    +0.111 C 
ATOM     10  C   UNL     1      11.959   8.200  19.498  0.00  0.00    +0.164 C 
ATOM     11  C   UNL     1      12.889   6.995  19.549  0.00  0.00    +0.165 C 
ATOM     15  C   UNL     1      12.163   7.457  21.719  0.00  0.00    +0.181 C 
ENDROOT
BRANCH  10   4
ATOM      4  O   UNL     1      11.186   8.219  18.314  0.00  0.00    -0.388 OA
ATOM     25  H   UNL     1      10.413   8.789  18.462  0.00  0.00    +0.210 HD
ENDBRANCH  10   4
BRANCH   8   6
ATOM      6  N   UNL     1      10.444   9.171  21.216  0.00  0.00    -0.306 NA
ATOM     23  H   UNL     1       9.620   8.919  21.761  0.00  0.00    +0.123 HD
BRANCH   6   9
ATOM      1  F   UNL     1      10.869  13.264  23.243  0.00  0.00    -0.206 F 
ATOM      2  F   UNL     1      12.825  13.226  24.191  0.00  0.00    -0.206 F 
ATOM      9  C   UNL     1      11.345   9.990  22.024  0.00  0.00    +0.054 C 
ATOM     13  C   UNL     1      11.721  11.263  21.254  0.00  0.00    +0.024 C 
ATOM     14  C   UNL     1      10.682  10.326  23.364  0.00  0.00    +0.024 C 
ATOM     18  C   UNL     1      12.607  12.179  22.098  0.00  0.00    +0.077 C 
ATOM     19  C   UNL     1      11.567  11.241  24.208  0.00  0.00    +0.077 C 
ATOM     20  C   UNL     1      11.967  12.490  23.440  0.00  0.00    +0.249 C 
ENDBRANCH   6   9
ENDBRANCH   8   6
BRANCH  11  21
ATOM     21  C   UNL     1      14.201   7.218  18.817  0.00  0.00    +0.138 C 
BRANCH  21   7
ATOM      5  O   UNL     1      16.375   8.578  20.188  0.00  0.00    -0.276 OA
ATOM      7  N   UNL     1      15.299   6.622  19.521  0.00  0.00    -0.313 N 
ATOM     22  C   UNL     1      16.295   7.356  20.149  0.00  0.00    +0.216 C 
ATOM     24  H   UNL     1      15.333   5.608  19.571  0.00  0.00    +0.149 HD
BRANCH  22  12
ATOM     12  C   UNL     1      17.339   6.529  20.822  0.00  0.00    +0.075 C 
ATOM     16  C   UNL     1      18.718   7.085  20.948  0.00  0.00    +0.013 C 
ATOM     17  C   UNL     1      18.443   5.962  19.995  0.00  0.00    +0.013 C 
ENDBRANCH  22  12
ENDBRANCH  21   7
ENDBRANCH  11  21
TORSDOF 6
ENDMDL
MODEL 6
REMARK VINA RESULT:      -6.0      1.590      2.028
REMARK  Name = 75536536
REMARK  6 active torsions:
REMARK  status: ('A' for Active; 'I' for Inactive)
REMARK    1  A    between atoms: O_4  and  C_10
REMARK    2  A    between atoms: N_6  and  C_8
REMARK    3  A    between atoms: N_6  and  C_9
REMARK    4  A    between atoms: N_7  and  C_21
REMARK    5  A    between atoms: C_11  and  C_21
REMARK    6  A    between atoms: C_12  and  C_22
REMARK                            x       y       z     vdW  Elec       q    Type
REMARK                         _______ _______ _______ _____ _____    ______ ____
ROOT
ATOM      3  O   UNL     1      12.914   6.947  21.048  0.00  0.00    -0.371 OA
ATOM      8  C   UNL     1      10.896   8.190  21.203  0.00  0.00    +0.111 C 
ATOM     10  C   UNL     1      11.524   8.433  19.843  0.00  0.00    +0.164 C 
ATOM     11  C   UNL     1      12.437   7.220  19.720  0.00  0.00    +0.165 C 
ATOM     15  C   UNL     1      12.079   7.646  21.987  0.00  0.00    +0.181 C 
ENDROOT
BRANCH  10   4
ATOM      4  O   UNL     1      10.568   8.480  18.800  0.00  0.00    -0.388 OA
ATOM     25  H   UNL     1      10.942   8.035  18.022  0.00  0.00    +0.210 HD
ENDBRANCH  10   4
BRANCH   8   6
ATOM      6  N   UNL     1      10.319   9.383  21.801  0.00  0.00    -0.306 NA
ATOM     23  H   UNL     1       9.645   9.126  22.521  0.00  0.00    +0.123 HD
BRANCH   6   9
ATOM      1  F   UNL     1      11.146  13.581  23.457  0.00  0.00    -0.206 F 
ATOM      2  F   UNL     1      13.246  13.562  24.021  0.00  0.00    -0.206 F 
ATOM      9  C   UNL     1      11.362  10.232  22.373  0.00  0.00    +0.054 C 
ATOM     13  C   UNL     1      11.595  11.450  21.471  0.00  0.00    +0.024 C 
ATOM     14  C   UNL     1      10.965  10.659  23.791  0.00  0.00    +0.024 C 
ATOM     18  C   UNL     1      12.630  12.398  22.075  0.00  0.00    +0.077 C 
ATOM     19  C   UNL     1      11.999  11.606  24.396  0.00  0.00    +0.077 C 
ATOM     20  C   UNL     1      12.257  12.800  23.492  0.00  0.00    +0.249 C 
ENDBRANCH   6   9
ENDBRANCH   8   6
BRANCH  11  21
ATOM     21  C   UNL     1      13.614   7.446  18.788  0.00  0.00    +0.138 C 
BRANCH  21   7
ATOM      5  O   UNL     1      13.676   8.184  15.976  0.00  0.00    -0.276 OA
ATOM      7  N   UNL     1      13.591   8.767  18.231  0.00  0.00    -0.313 N 
ATOM     22  C   UNL     1      13.623   9.024  16.868  0.00  0.00    +0.216 C 
ATOM     24  H   UNL     1      13.532   9.551  18.875  0.00  0.00    +0.149 HD
BRANCH  22  12
ATOM     12  C   UNL     1      13.588  10.473  16.512  0.00  0.00    +0.075 C 
ATOM     16  C   UNL     1      14.845  11.120  16.032  0.00  0.00    +0.013 C 
ATOM     17  C   UNL     1      14.305  11.440  17.393  0.00  0.00    +0.013 C 
ENDBRANCH  22  12
ENDBRANCH  21   7
ENDBRANCH  11  21
TORSDOF 6
ENDMDL
MODEL 7
REMARK VINA RESULT:      -5.9     25.831     27.398
REMARK  Name = 75536536
REMARK  6 active torsions:
REMARK  status: ('A' for Active; 'I' for Inactive)
REMARK    1  A    between atoms: O_4  and  C_10
REMARK    2  A    between atoms: N_6  and  C_8
REMARK    3  A    between atoms: N_6  and  C_9
REMARK    4  A    between atoms: N_7  and  C_21
REMARK    5  A    between atoms: C_11  and  C_21
REMARK    6  A    between atoms: C_12  and  C_22
REMARK                            x       y       z     vdW  Elec       q    Type
REMARK                         _______ _______ _______ _____ _____    ______ ____
ROOT
ATOM      3  O   UNL     1      -1.772 -10.578  13.119  0.00  0.00    -0.371 OA
ATOM      8  C   UNL     1      -1.828 -11.406  15.344  0.00  0.00    +0.111 C 
ATOM     10  C   UNL     1      -2.773 -12.228  14.487  0.00  0.00    +0.164 C 
ATOM     11  C   UNL     1      -2.228 -11.941  13.093  0.00  0.00    +0.165 C 
ATOM     15  C   UNL     1      -1.653 -10.161  14.490  0.00  0.00    +0.181 C 
ENDROOT
BRANCH  10   4
ATOM      4  O   UNL     1      -2.729 -13.608  14.795  0.00  0.00    -0.388 OA
ATOM     25  H   UNL     1      -1.800 -13.895  14.784  0.00  0.00    +0.210 HD
ENDBRANCH  10   4
BRANCH   8   6
ATOM      6  N   UNL     1      -2.348 -11.115  16.670  0.00  0.00    -0.306 NA
ATOM     23  H   UNL     1      -2.101 -10.165  16.945  0.00  0.00    +0.123 HD
BRANCH   6   9
ATOM      1  F   UNL     1      -6.109 -10.094  19.092  0.00  0.00    -0.206 F 
ATOM      2  F   UNL     1      -7.752 -10.998  17.992  0.00  0.00    -0.206 F 
ATOM      9  C   UNL     1      -3.800 -11.283  16.706  0.00  0.00    +0.054 C 
ATOM     13  C   UNL     1      -4.203 -12.045  17.975  0.00  0.00    +0.024 C 
ATOM     14  C   UNL     1      -4.484  -9.913  16.640  0.00  0.00    +0.024 C 
ATOM     18  C   UNL     1      -5.722 -12.177  18.083  0.00  0.00    +0.077 C 
ATOM     19  C   UNL     1      -6.002 -10.044  16.747  0.00  0.00    +0.077 C 
ATOM     20  C   UNL     1      -6.407 -10.825  17.987  0.00  0.00    +0.249 C 
ENDBRANCH   6   9
ENDBRANCH   8   6
BRANCH  11  21
ATOM     21  C   UNL     1      -3.264 -12.116  11.997  0.00  0.00    +0.138 C 
BRANCH  21   7
ATOM      5  O   UNL     1      -5.312 -10.092  12.408  0.00  0.00    -0.276 OA
ATOM      7  N   UNL     1      -3.452 -10.900  11.259  0.00  0.00    -0.313 N 
ATOM     22  C   UNL     1      -4.463  -9.989  11.529  0.00  0.00    +0.216 C 
ATOM     24  H   UNL     1      -2.796 -10.696  10.510  0.00  0.00    +0.149 HD
BRANCH  22  12
ATOM     12  C   UNL     1      -4.470  -8.793  10.637  0.00  0.00    +0.075 C 
ATOM     16  C   UNL     1      -5.498  -8.713   9.558  0.00  0.00    +0.013 C 
ATOM     17  C   UNL     1      -4.062  -8.965   9.211  0.00  0.00    +0.013 C 
ENDBRANCH  22  12
ENDBRANCH  21   7
ENDBRANCH  11  21
TORSDOF 6
ENDMDL
MODEL 8
REMARK VINA RESULT:      -5.8     27.348     29.177
REMARK  Name = 75536536
REMARK  6 active torsions:
REMARK  status: ('A' for Active; 'I' for Inactive)
REMARK    1  A    between atoms: O_4  and  C_10
REMARK    2  A    between atoms: N_6  and  C_8
REMARK    3  A    between atoms: N_6  and  C_9
REMARK    4  A    between atoms: N_7  and  C_21
REMARK    5  A    between atoms: C_11  and  C_21
REMARK    6  A    between atoms: C_12  and  C_22
REMARK                            x       y       z     vdW  Elec       q    Type
REMARK                         _______ _______ _______ _____ _____    ______ ____
ROOT
ATOM      3  O   UNL     1     -12.281  -7.946  16.683  0.00  0.00    -0.371 OA
ATOM      8  C   UNL     1      -9.931  -8.103  16.376  0.00  0.00    +0.111 C 
ATOM     10  C   UNL     1     -10.468  -6.974  15.516  0.00  0.00    +0.164 C 
ATOM     11  C   UNL     1     -11.791  -6.680  16.211  0.00  0.00    +0.165 C 
ATOM     15  C   UNL     1     -11.198  -8.893  16.661  0.00  0.00    +0.181 C 
ENDROOT
BRANCH  10   4
ATOM      4  O   UNL     1      -9.617  -5.844  15.504  0.00  0.00    -0.388 OA
ATOM     25  H   UNL     1      -9.029  -5.896  16.277  0.00  0.00    +0.210 HD
ENDBRANCH  10   4
BRANCH   8   6
ATOM      6  N   UNL     1      -8.904  -8.898  15.721  0.00  0.00    -0.306 NA
ATOM     23  H   UNL     1      -8.628  -8.462  14.842  0.00  0.00    +0.123 HD
BRANCH   6   9
ATOM      1  F   UNL     1      -6.019 -12.003  17.477  0.00  0.00    -0.206 F 
ATOM      2  F   UNL     1      -4.632 -10.858  18.699  0.00  0.00    -0.206 F 
ATOM      9  C   UNL     1      -7.738  -9.055  16.589  0.00  0.00    +0.054 C 
ATOM     13  C   UNL     1      -8.099  -9.938  17.790  0.00  0.00    +0.024 C 
ATOM     14  C   UNL     1      -6.573  -9.651  15.790  0.00  0.00    +0.024 C 
ATOM     18  C   UNL     1      -6.883 -10.184  18.682  0.00  0.00    +0.077 C 
ATOM     19  C   UNL     1      -5.357  -9.895  16.682  0.00  0.00    +0.077 C 
ATOM     20  C   UNL     1      -5.715 -10.746  17.890  0.00  0.00    +0.249 C 
ENDBRANCH   6   9
ENDBRANCH   8   6
BRANCH  11  21
ATOM     21  C   UNL     1     -12.820  -6.040  15.296  0.00  0.00    +0.138 C 
BRANCH  21   7
ATOM      5  O   UNL     1     -13.900  -3.966  13.567  0.00  0.00    -0.276 OA
ATOM      7  N   UNL     1     -12.200  -5.451  14.144  0.00  0.00    -0.313 N 
ATOM     22  C   UNL     1     -12.795  -4.461  13.376  0.00  0.00    +0.216 C 
ATOM     24  H   UNL     1     -11.268  -5.771  13.894  0.00  0.00    +0.149 HD
BRANCH  22  12
ATOM     12  C   UNL     1     -11.968  -3.991  12.227  0.00  0.00    +0.075 C 
ATOM     16  C   UNL     1     -12.659  -3.389  11.049  0.00  0.00    +0.013 C 
ATOM     17  C   UNL     1     -12.037  -4.749  10.943  0.00  0.00    +0.013 C 
ENDBRANCH  22  12
ENDBRANCH  21   7
ENDBRANCH  11  21
TORSDOF 6
ENDMDL
MODEL 9
REMARK VINA RESULT:      -5.8     26.752     28.571
REMARK  Name = 75536536
REMARK  6 active torsions:
REMARK  status: ('A' for Active; 'I' for Inactive)
REMARK    1  A    between atoms: O_4  and  C_10
REMARK    2  A    between atoms: N_6  and  C_8
REMARK    3  A    between atoms: N_6  and  C_9
REMARK    4  A    between atoms: N_7  and  C_21
REMARK    5  A    between atoms: C_11  and  C_21
REMARK    6  A    between atoms: C_12  and  C_22
REMARK                            x       y       z     vdW  Elec       q    Type
REMARK                         _______ _______ _______ _____ _____    ______ ____
ROOT
ATOM      3  O   UNL     1      -2.927 -11.051  17.051  0.00  0.00    -0.371 OA
ATOM      8  C   UNL     1      -4.130 -10.806  15.018  0.00  0.00    +0.111 C 
ATOM     10  C   UNL     1      -5.011 -11.513  16.032  0.00  0.00    +0.164 C 
ATOM     11  C   UNL     1      -4.334 -11.113  17.337  0.00  0.00    +0.165 C 
ATOM     15  C   UNL     1      -2.751 -11.008  15.625  0.00  0.00    +0.181 C 
ENDROOT
BRANCH  10   4
ATOM      4  O   UNL     1      -6.357 -11.080  15.982  0.00  0.00    -0.388 OA
ATOM     25  H   UNL     1      -6.417 -10.216  16.425  0.00  0.00    +0.210 HD
ENDBRANCH  10   4
BRANCH   8   6
ATOM      6  N   UNL     1      -4.242 -11.345  13.672  0.00  0.00    -0.306 NA
ATOM     23  H   UNL     1      -5.156 -11.774  13.539  0.00  0.00    +0.123 HD
BRANCH   6   9
ATOM      1  F   UNL     1      -4.083 -10.544   9.158  0.00  0.00    -0.206 F 
ATOM      2  F   UNL     1      -3.659  -8.419   8.975  0.00  0.00    -0.206 F 
ATOM      9  C   UNL     1      -4.032 -10.297  12.675  0.00  0.00    +0.054 C 
ATOM     13  C   UNL     1      -2.809 -10.635  11.814  0.00  0.00    +0.024 C 
ATOM     14  C   UNL     1      -5.292 -10.139  11.815  0.00  0.00    +0.024 C 
ATOM     18  C   UNL     1      -2.602  -9.596  10.712  0.00  0.00    +0.077 C 
ATOM     19  C   UNL     1      -5.085  -9.100  10.714  0.00  0.00    +0.077 C 
ATOM     20  C   UNL     1      -3.857  -9.414   9.876  0.00  0.00    +0.249 C 
ENDBRANCH   6   9
ENDBRANCH   8   6
BRANCH  11  21
ATOM     21  C   UNL     1      -4.586 -12.094  18.468  0.00  0.00    +0.138 C 
BRANCH  21   7
ATOM      5  O   UNL     1      -6.334 -10.578  20.230  0.00  0.00    -0.276 OA
ATOM      7  N   UNL     1      -5.990 -12.289  18.686  0.00  0.00    -0.313 N 
ATOM     22  C   UNL     1      -6.746 -11.511  19.551  0.00  0.00    +0.216 C 
ATOM     24  H   UNL     1      -6.451 -13.029  18.164  0.00  0.00    +0.149 HD
BRANCH  22  12
ATOM     12  C   UNL     1      -8.188 -11.891  19.621  0.00  0.00    +0.075 C 
ATOM     16  C   UNL     1      -8.539 -13.294  19.988  0.00  0.00    +0.013 C 
ATOM     17  C   UNL     1      -8.733 -12.812  18.582  0.00  0.00    +0.013 C 
ENDBRANCH  22  12
ENDBRANCH  21   7
ENDBRANCH  11  21
TORSDOF 6
ENDMDL
MODEL 10
REMARK VINA RESULT:      -5.8     26.870     27.861
REMARK  Name = 75536536
REMARK  6 active torsions:
REMARK  status: ('A' for Active; 'I' for Inactive)
REMARK    1  A    between atoms: O_4  and  C_10
REMARK    2  A    between atoms: N_6  and  C_8
REMARK    3  A    between atoms: N_6  and  C_9
REMARK    4  A    between atoms: N_7  and  C_21
REMARK    5  A    between atoms: C_11  and  C_21
REMARK    6  A    between atoms: C_12  and  C_22
REMARK                            x       y       z     vdW  Elec       q    Type
REMARK                         _______ _______ _______ _____ _____    ______ ____
ROOT
ATOM      3  O   UNL     1      -4.363 -12.272  13.785  0.00  0.00    -0.371 OA
ATOM      8  C   UNL     1      -4.380 -11.923  16.135  0.00  0.00    +0.111 C 
ATOM     10  C   UNL     1      -3.194 -11.190  15.533  0.00  0.00    +0.164 C 
ATOM     11  C   UNL     1      -3.630 -11.072  14.078  0.00  0.00    +0.165 C 
ATOM     15  C   UNL     1      -4.719 -12.906  15.026  0.00  0.00    +0.181 C 
ENDROOT
BRANCH  10   4
ATOM      4  O   UNL     1      -2.979  -9.922  16.124  0.00  0.00    -0.388 OA
ATOM     25  H   UNL     1      -2.360 -10.031  16.865  0.00  0.00    +0.210 HD
ENDBRANCH  10   4
BRANCH   8   6
ATOM      6  N   UNL     1      -4.082 -12.575  17.399  0.00  0.00    -0.306 NA
ATOM     23  H   UNL     1      -3.172 -12.275  17.745  0.00  0.00    +0.123 HD
BRANCH   6   9
ATOM      1  F   UNL     1      -8.114 -10.467  17.992  0.00  0.00    -0.206 F 
ATOM      2  F   UNL     1      -8.618 -10.788  20.083  0.00  0.00    -0.206 F 
ATOM      9  C   UNL     1      -5.115 -12.278  18.391  0.00  0.00    +0.054 C 
ATOM     13  C   UNL     1      -5.239 -10.760  18.574  0.00  0.00    +0.024 C 
ATOM     14  C   UNL     1      -6.448 -12.897  17.954  0.00  0.00    +0.024 C 
ATOM     18  C   UNL     1      -6.360 -10.410  19.552  0.00  0.00    +0.077 C 
ATOM     19  C   UNL     1      -7.568 -12.548  18.932  0.00  0.00    +0.077 C 
ATOM     20  C   UNL     1      -7.677 -11.046  19.140  0.00  0.00    +0.249 C 
ENDBRANCH   6   9
ENDBRANCH   8   6
BRANCH  11  21
ATOM     21  C   UNL     1      -2.466 -10.932  13.113  0.00  0.00    +0.138 C 
BRANCH  21   7
ATOM      5  O   UNL     1      -3.332 -11.475  10.391  0.00  0.00    -0.276 OA
ATOM      7  N   UNL     1      -2.756  -9.979  12.081  0.00  0.00    -0.313 N 
ATOM     22  C   UNL     1      -3.166 -10.333  10.804  0.00  0.00    +0.216 C 
ATOM     24  H   UNL     1      -2.668  -8.993  12.311  0.00  0.00    +0.149 HD
BRANCH  22  12
ATOM     12  C   UNL     1      -3.413  -9.178   9.893  0.00  0.00    +0.075 C 
ATOM     16  C   UNL     1      -4.691  -8.420  10.034  0.00  0.00    +0.013 C 
ATOM     17  C   UNL     1      -4.470  -9.309   8.848  0.00  0.00    +0.013 C 
ENDBRANCH  22  12
ENDBRANCH  21   7
ENDBRANCH  11  21
TORSDOF 6
ENDMDL
