MODEL 1
REMARK VINA RESULT:      -7.1      0.000      0.000
REMARK  Name = 45784238
REMARK  2 active torsions:
REMARK  status: ('A' for Active; 'I' for Inactive)
REMARK    1  A    between atoms: N_3  and  C_6
REMARK    2  A    between atoms: C_7  and  C_13
REMARK                            x       y       z     vdW  Elec       q    Type
REMARK                         _______ _______ _______ _____ _____    ______ ____
ROOT
ATOM      3  N   UNL     1      14.140   6.912  20.071  0.00  0.00    -0.299 NA
ATOM      7  C   UNL     1      12.292   8.227  20.665  0.00  0.00    +0.070 C 
ATOM      8  C   UNL     1      13.498   7.485  21.256  0.00  0.00    +0.096 C 
ATOM      9  C   UNL     1      14.108   7.979  19.071  0.00  0.00    +0.085 C 
ATOM     10  C   UNL     1      12.696   8.534  19.212  0.00  0.00    +0.028 C 
ENDROOT
BRANCH   7  13
ATOM      1  F   UNL     1      10.411  12.953  25.851  0.00  0.00    -0.205 F 
ATOM      4  N   UNL     1      11.710   9.351  22.833  0.00  0.00    -0.341 N 
ATOM      5  N   UNL     1      11.658  10.646  21.028  0.00  0.00    -0.232 NA
ATOM     13  C   UNL     1      11.885   9.433  21.480  0.00  0.00    +0.113 A 
ATOM     16  C   UNL     1      11.346  10.593  23.285  0.00  0.00    +0.069 A 
ATOM     17  C   UNL     1      11.320  11.384  22.139  0.00  0.00    +0.089 A 
ATOM     18  C   UNL     1      11.047  11.079  24.558  0.00  0.00    +0.066 A 
ATOM     19  C   UNL     1      10.978  12.742  22.252  0.00  0.00    +0.032 A 
ATOM     20  C   UNL     1      10.708  12.432  24.652  0.00  0.00    +0.125 A 
ATOM     21  C   UNL     1      10.673  13.251  23.521  0.00  0.00    +0.040 A 
ATOM     22  H   UNL     1      11.827   8.523  23.403  0.00  0.00    +0.167 HD
ENDBRANCH   7  13
BRANCH   3   6
ATOM      2  O   UNL     1      18.337   6.875  20.158  0.00  0.00    -0.380 OA
ATOM      6  C   UNL     1      15.497   6.444  20.344  0.00  0.00    +0.061 C 
ATOM     11  C   UNL     1      16.270   6.262  19.035  0.00  0.00    +0.047 C 
ATOM     12  C   UNL     1      16.242   7.419  21.262  0.00  0.00    +0.047 C 
ATOM     14  C   UNL     1      17.721   5.892  19.325  0.00  0.00    +0.161 C 
ATOM     15  C   UNL     1      17.695   6.987  21.427  0.00  0.00    +0.161 C 
ENDBRANCH   3   6
TORSDOF 2
ENDMDL
MODEL 2
REMARK VINA RESULT:      -6.7      4.370      8.303
REMARK  Name = 45784238
REMARK  2 active torsions:
REMARK  status: ('A' for Active; 'I' for Inactive)
REMARK    1  A    between atoms: N_3  and  C_6
REMARK    2  A    between atoms: C_7  and  C_13
REMARK                            x       y       z     vdW  Elec       q    Type
REMARK                         _______ _______ _______ _____ _____    ______ ____
ROOT
ATOM      3  N   UNL     1      14.128   7.973  20.657  0.00  0.00    -0.299 NA
ATOM      7  C   UNL     1      16.420   7.828  20.184  0.00  0.00    +0.070 C 
ATOM      8  C   UNL     1      15.423   7.961  21.342  0.00  0.00    +0.096 C 
ATOM      9  C   UNL     1      14.231   6.929  19.637  0.00  0.00    +0.085 C 
ATOM     10  C   UNL     1      15.618   7.161  19.053  0.00  0.00    +0.028 C 
ENDROOT
BRANCH   7  13
ATOM      1  F   UNL     1      22.404   5.300  23.436  0.00  0.00    -0.205 F 
ATOM      4  N   UNL     1      18.321   7.372  21.759  0.00  0.00    -0.341 N 
ATOM      5  N   UNL     1      18.311   6.179  19.883  0.00  0.00    -0.232 NA
ATOM     13  C   UNL     1      17.687   7.104  20.578  0.00  0.00    +0.113 A 
ATOM     16  C   UNL     1      19.428   6.566  21.832  0.00  0.00    +0.069 A 
ATOM     17  C   UNL     1      19.399   5.831  20.650  0.00  0.00    +0.089 A 
ATOM     18  C   UNL     1      20.421   6.421  22.802  0.00  0.00    +0.066 A 
ATOM     19  C   UNL     1      20.415   4.891  20.404  0.00  0.00    +0.032 A 
ATOM     20  C   UNL     1      21.424   5.481  22.539  0.00  0.00    +0.125 A 
ATOM     21  C   UNL     1      21.422   4.728  21.363  0.00  0.00    +0.040 A 
ATOM     22  H   UNL     1      18.029   8.043  22.457  0.00  0.00    +0.167 HD
ENDBRANCH   7  13
BRANCH   3   6
ATOM      2  O   UNL     1      10.170   7.738  22.038  0.00  0.00    -0.380 OA
ATOM      6  C   UNL     1      13.011   7.750  21.572  0.00  0.00    +0.061 C 
ATOM     11  C   UNL     1      12.204   9.039  21.750  0.00  0.00    +0.047 C 
ATOM     12  C   UNL     1      12.101   6.626  21.067  0.00  0.00    +0.047 C 
ATOM     14  C   UNL     1      10.969   8.776  22.606  0.00  0.00    +0.161 C 
ATOM     15  C   UNL     1      10.872   6.497  21.960  0.00  0.00    +0.161 C 
ENDBRANCH   3   6
TORSDOF 2
ENDMDL
MODEL 3
REMARK VINA RESULT:      -6.6     27.170     27.914
REMARK  Name = 45784238
REMARK  2 active torsions:
REMARK  status: ('A' for Active; 'I' for Inactive)
REMARK    1  A    between atoms: N_3  and  C_6
REMARK    2  A    between atoms: C_7  and  C_13
REMARK                            x       y       z     vdW  Elec       q    Type
REMARK                         _______ _______ _______ _____ _____    ______ ____
ROOT
ATOM      3  N   UNL     1      -2.350 -11.218  12.064  0.00  0.00    -0.299 NA
ATOM      7  C   UNL     1      -2.411 -11.120  14.405  0.00  0.00    +0.070 C 
ATOM      8  C   UNL     1      -2.960 -10.440  13.144  0.00  0.00    +0.096 C 
ATOM      9  C   UNL     1      -2.466 -12.612  12.490  0.00  0.00    +0.085 C 
ATOM     10  C   UNL     1      -2.069 -12.552  13.959  0.00  0.00    +0.028 C 
ENDROOT
BRANCH   7  13
ATOM      1  F   UNL     1      -5.771 -11.565  20.830  0.00  0.00    -0.205 F 
ATOM      4  N   UNL     1      -3.050 -11.602  16.785  0.00  0.00    -0.341 N 
ATOM      5  N   UNL     1      -4.524 -10.426  15.607  0.00  0.00    -0.232 NA
ATOM     13  C   UNL     1      -3.356 -11.028  15.582  0.00  0.00    +0.113 A 
ATOM     16  C   UNL     1      -4.090 -11.352  17.643  0.00  0.00    +0.069 A 
ATOM     17  C   UNL     1      -4.996 -10.617  16.884  0.00  0.00    +0.089 A 
ATOM     18  C   UNL     1      -4.308 -11.696  18.978  0.00  0.00    +0.066 A 
ATOM     19  C   UNL     1      -6.197 -10.191  17.477  0.00  0.00    +0.032 A 
ATOM     20  C   UNL     1      -5.508 -11.264  19.551  0.00  0.00    +0.125 A 
ATOM     21  C   UNL     1      -6.438 -10.524  18.816  0.00  0.00    +0.040 A 
ATOM     22  H   UNL     1      -2.209 -12.118  17.005  0.00  0.00    +0.167 HD
ENDBRANCH   7  13
BRANCH   3   6
ATOM      2  O   UNL     1      -5.231  -9.950   9.284  0.00  0.00    -0.380 OA
ATOM      6  C   UNL     1      -2.989 -10.975  10.772  0.00  0.00    +0.061 C 
ATOM     11  C   UNL     1      -4.328 -11.713  10.694  0.00  0.00    +0.047 C 
ATOM     12  C   UNL     1      -3.202  -9.476  10.536  0.00  0.00    +0.047 C 
ATOM     14  C   UNL     1      -5.051 -11.362   9.397  0.00  0.00    +0.161 C 
ATOM     15  C   UNL     1      -3.988  -9.249   9.249  0.00  0.00    +0.161 C 
ENDBRANCH   3   6
TORSDOF 2
ENDMDL
MODEL 4
REMARK VINA RESULT:      -6.6      3.624      7.444
REMARK  Name = 45784238
REMARK  2 active torsions:
REMARK  status: ('A' for Active; 'I' for Inactive)
REMARK    1  A    between atoms: N_3  and  C_6
REMARK    2  A    between atoms: C_7  and  C_13
REMARK                            x       y       z     vdW  Elec       q    Type
REMARK                         _______ _______ _______ _____ _____    ______ ____
ROOT
ATOM      3  N   UNL     1      11.882  10.157  21.704  0.00  0.00    -0.299 NA
ATOM      7  C   UNL     1      13.049   8.714  20.270  0.00  0.00    +0.070 C 
ATOM      8  C   UNL     1      13.197  10.011  21.076  0.00  0.00    +0.096 C 
ATOM      9  C   UNL     1      11.533   8.813  22.165  0.00  0.00    +0.085 C 
ATOM     10  C   UNL     1      11.932   7.935  20.986  0.00  0.00    +0.028 C 
ENDROOT
BRANCH   7  13
ATOM      1  F   UNL     1      19.683   5.841  20.979  0.00  0.00    -0.205 F 
ATOM      4  N   UNL     1      15.344   8.064  21.053  0.00  0.00    -0.341 N 
ATOM      5  N   UNL     1      14.686   7.164  19.129  0.00  0.00    -0.232 NA
ATOM     13  C   UNL     1      14.351   7.963  20.118  0.00  0.00    +0.113 A 
ATOM     16  C   UNL     1      16.388   7.277  20.640  0.00  0.00    +0.069 A 
ATOM     17  C   UNL     1      15.953   6.727  19.438  0.00  0.00    +0.089 A 
ATOM     18  C   UNL     1      17.638   7.007  21.200  0.00  0.00    +0.066 A 
ATOM     19  C   UNL     1      16.803   5.853  18.738  0.00  0.00    +0.032 A 
ATOM     20  C   UNL     1      18.470   6.136  20.489  0.00  0.00    +0.125 A 
ATOM     21  C   UNL     1      18.062   5.568  19.280  0.00  0.00    +0.040 A 
ATOM     22  H   UNL     1      15.316   8.618  21.898  0.00  0.00    +0.167 HD
ENDBRANCH   7  13
BRANCH   3   6
ATOM      2  O   UNL     1      12.446  11.759  25.543  0.00  0.00    -0.380 OA
ATOM      6  C   UNL     1      11.887  11.135  22.789  0.00  0.00    +0.061 C 
ATOM     11  C   UNL     1      10.989  10.663  23.935  0.00  0.00    +0.047 C 
ATOM     12  C   UNL     1      13.309  11.380  23.303  0.00  0.00    +0.047 C 
ATOM     14  C   UNL     1      11.090  11.622  25.117  0.00  0.00    +0.161 C 
ATOM     15  C   UNL     1      13.282  12.299  24.520  0.00  0.00    +0.161 C 
ENDBRANCH   3   6
TORSDOF 2
ENDMDL
MODEL 5
REMARK VINA RESULT:      -6.5     27.042     28.358
REMARK  Name = 45784238
REMARK  2 active torsions:
REMARK  status: ('A' for Active; 'I' for Inactive)
REMARK    1  A    between atoms: N_3  and  C_6
REMARK    2  A    between atoms: C_7  and  C_13
REMARK                            x       y       z     vdW  Elec       q    Type
REMARK                         _______ _______ _______ _____ _____    ______ ____
ROOT
ATOM      3  N   UNL     1      -4.302 -11.907  16.725  0.00  0.00    -0.299 NA
ATOM      7  C   UNL     1      -3.550 -11.627  14.522  0.00  0.00    +0.070 C 
ATOM      8  C   UNL     1      -4.815 -11.878  15.354  0.00  0.00    +0.096 C 
ATOM      9  C   UNL     1      -3.350 -10.798  16.796  0.00  0.00    +0.085 C 
ATOM     10  C   UNL     1      -2.579 -10.930  15.490  0.00  0.00    +0.028 C 
ENDROOT
BRANCH   7  13
ATOM      1  F   UNL     1      -6.351  -7.704   9.088  0.00  0.00    -0.205 F 
ATOM      4  N   UNL     1      -5.022 -10.243  13.033  0.00  0.00    -0.341 N 
ATOM      5  N   UNL     1      -3.009 -10.726  12.224  0.00  0.00    -0.232 NA
ATOM     13  C   UNL     1      -3.827 -10.871  13.243  0.00  0.00    +0.113 A 
ATOM     16  C   UNL     1      -4.973  -9.652  11.796  0.00  0.00    +0.069 A 
ATOM     17  C   UNL     1      -3.706  -9.968  11.313  0.00  0.00    +0.089 A 
ATOM     18  C   UNL     1      -5.899  -8.891  11.082  0.00  0.00    +0.066 A 
ATOM     19  C   UNL     1      -3.324  -9.506  10.041  0.00  0.00    +0.032 A 
ATOM     20  C   UNL     1      -5.501  -8.440   9.819  0.00  0.00    +0.125 A 
ATOM     21  C   UNL     1      -4.237  -8.740   9.306  0.00  0.00    +0.040 A 
ATOM     22  H   UNL     1      -5.805 -10.216  13.672  0.00  0.00    +0.167 HD
ENDBRANCH   7  13
BRANCH   3   6
ATOM      2  O   UNL     1      -6.580 -10.317  19.873  0.00  0.00    -0.380 OA
ATOM      6  C   UNL     1      -5.365 -11.793  17.721  0.00  0.00    +0.061 C 
ATOM     11  C   UNL     1      -4.772 -11.763  19.132  0.00  0.00    +0.047 C 
ATOM     12  C   UNL     1      -6.213 -10.540  17.481  0.00  0.00    +0.047 C 
ATOM     14  C   UNL     1      -5.871 -11.521  20.163  0.00  0.00    +0.161 C 
ATOM     15  C   UNL     1      -7.231 -10.365  18.603  0.00  0.00    +0.161 C 
ENDBRANCH   3   6
TORSDOF 2
ENDMDL
MODEL 6
REMARK VINA RESULT:      -6.3     27.693     28.800
REMARK  Name = 45784238
REMARK  2 active torsions:
REMARK  status: ('A' for Active; 'I' for Inactive)
REMARK    1  A    between atoms: N_3  and  C_6
REMARK    2  A    between atoms: C_7  and  C_13
REMARK                            x       y       z     vdW  Elec       q    Type
REMARK                         _______ _______ _______ _____ _____    ______ ____
ROOT
ATOM      3  N   UNL     1      -4.142 -11.131  17.513  0.00  0.00    -0.299 NA
ATOM      7  C   UNL     1      -5.927 -10.570  18.926  0.00  0.00    +0.070 C 
ATOM      8  C   UNL     1      -5.381 -10.352  17.509  0.00  0.00    +0.096 C 
ATOM      9  C   UNL     1      -4.484 -12.381  18.192  0.00  0.00    +0.085 C 
ATOM     10  C   UNL     1      -5.312 -11.906  19.379  0.00  0.00    +0.028 C 
ENDROOT
BRANCH   7  13
ATOM      1  F   UNL     1     -12.995  -9.153  18.033  0.00  0.00    -0.205 F 
ATOM      4  N   UNL     1      -8.150  -9.681  18.171  0.00  0.00    -0.341 N 
ATOM      5  N   UNL     1      -8.215 -11.195  19.798  0.00  0.00    -0.232 NA
ATOM     13  C   UNL     1      -7.435 -10.508  18.993  0.00  0.00    +0.113 A 
ATOM     16  C   UNL     1      -9.479  -9.846  18.465  0.00  0.00    +0.069 A 
ATOM     17  C   UNL     1      -9.493 -10.795  19.484  0.00  0.00    +0.089 A 
ATOM     18  C   UNL     1     -10.635  -9.264  17.944  0.00  0.00    +0.066 A 
ATOM     19  C   UNL     1     -10.725 -11.200  20.026  0.00  0.00    +0.032 A 
ATOM     20  C   UNL     1     -11.852  -9.678  18.495  0.00  0.00    +0.125 A 
ATOM     21  C   UNL     1     -11.899 -10.629  19.517  0.00  0.00    +0.040 A 
ATOM     22  H   UNL     1      -7.770  -9.059  17.471  0.00  0.00    +0.167 HD
ENDBRANCH   7  13
BRANCH   3   6
ATOM      2  O   UNL     1      -2.599 -10.263  13.706  0.00  0.00    -0.380 OA
ATOM      6  C   UNL     1      -3.618 -11.354  16.167  0.00  0.00    +0.061 C 
ATOM     11  C   UNL     1      -4.524 -10.691  15.127  0.00  0.00    +0.047 C 
ATOM     12  C   UNL     1      -2.189 -10.818  16.036  0.00  0.00    +0.047 C 
ATOM     14  C   UNL     1      -3.914 -10.818  13.735  0.00  0.00    +0.161 C 
ATOM     15  C   UNL     1      -1.708 -10.938  14.595  0.00  0.00    +0.161 C 
ENDBRANCH   3   6
TORSDOF 2
ENDMDL
MODEL 7
REMARK VINA RESULT:      -6.2     16.902     18.800
REMARK  Name = 45784238
REMARK  2 active torsions:
REMARK  status: ('A' for Active; 'I' for Inactive)
REMARK    1  A    between atoms: N_3  and  C_6
REMARK    2  A    between atoms: C_7  and  C_13
REMARK                            x       y       z     vdW  Elec       q    Type
REMARK                         _______ _______ _______ _____ _____    ______ ____
ROOT
ATOM      3  N   UNL     1      12.114   4.726   1.013  0.00  0.00    -0.299 NA
ATOM      7  C   UNL     1      10.453   4.660   2.666  0.00  0.00    +0.070 C 
ATOM      8  C   UNL     1      11.953   4.435   2.439  0.00  0.00    +0.096 C 
ATOM      9  C   UNL     1      11.311   5.926   0.779  0.00  0.00    +0.085 C 
ATOM     10  C   UNL     1      10.031   5.633   1.551  0.00  0.00    +0.028 C 
ENDROOT
BRANCH   7  13
ATOM      1  F   UNL     1       9.350   5.329   9.814  0.00  0.00    -0.205 F 
ATOM      4  N   UNL     1      10.264   4.284   5.141  0.00  0.00    -0.341 N 
ATOM      5  N   UNL     1       9.706   6.313   4.425  0.00  0.00    -0.232 NA
ATOM     13  C   UNL     1      10.131   5.122   4.069  0.00  0.00    +0.113 A 
ATOM     16  C   UNL     1       9.902   4.981   6.264  0.00  0.00    +0.069 A 
ATOM     17  C   UNL     1       9.558   6.245   5.791  0.00  0.00    +0.089 A 
ATOM     18  C   UNL     1       9.848   4.626   7.613  0.00  0.00    +0.066 A 
ATOM     19  C   UNL     1       9.132   7.225   6.704  0.00  0.00    +0.032 A 
ATOM     20  C   UNL     1       9.421   5.614   8.506  0.00  0.00    +0.125 A 
ATOM     21  C   UNL     1       9.070   6.891   8.063  0.00  0.00    +0.040 A 
ATOM     22  H   UNL     1      10.574   3.322   5.114  0.00  0.00    +0.167 HD
ENDBRANCH   7  13
BRANCH   3   6
ATOM      2  O   UNL     1      15.798   4.024  -0.875  0.00  0.00    -0.380 OA
ATOM      6  C   UNL     1      13.514   4.911   0.636  0.00  0.00    +0.061 C 
ATOM     11  C   UNL     1      14.339   3.687   1.040  0.00  0.00    +0.047 C 
ATOM     12  C   UNL     1      13.651   5.163  -0.869  0.00  0.00    +0.047 C 
ATOM     14  C   UNL     1      15.773   3.826   0.538  0.00  0.00    +0.161 C 
ATOM     15  C   UNL     1      15.122   5.219  -1.265  0.00  0.00    +0.161 C 
ENDBRANCH   3   6
TORSDOF 2
ENDMDL
MODEL 8
REMARK VINA RESULT:      -6.2     18.563     20.614
REMARK  Name = 45784238
REMARK  2 active torsions:
REMARK  status: ('A' for Active; 'I' for Inactive)
REMARK    1  A    between atoms: N_3  and  C_6
REMARK    2  A    between atoms: C_7  and  C_13
REMARK                            x       y       z     vdW  Elec       q    Type
REMARK                         _______ _______ _______ _____ _____    ______ ____
ROOT
ATOM      3  N   UNL     1      12.674   4.467  -0.566  0.00  0.00    -0.299 NA
ATOM      7  C   UNL     1      12.822   5.114   1.683  0.00  0.00    +0.070 C 
ATOM      8  C   UNL     1      12.023   5.359   0.396  0.00  0.00    +0.096 C 
ATOM      9  C   UNL     1      12.893   3.219   0.166  0.00  0.00    +0.085 C 
ATOM     10  C   UNL     1      13.410   3.703   1.514  0.00  0.00    +0.028 C 
ENDROOT
BRANCH   7  13
ATOM      1  F   UNL     1      10.016   7.228   8.041  0.00  0.00    -0.205 F 
ATOM      4  N   UNL     1      12.352   6.240   3.877  0.00  0.00    -0.341 N 
ATOM      5  N   UNL     1      10.902   4.669   3.265  0.00  0.00    -0.232 NA
ATOM     13  C   UNL     1      11.998   5.315   2.934  0.00  0.00    +0.113 A 
ATOM     16  C   UNL     1      11.422   6.188   4.883  0.00  0.00    +0.069 A 
ATOM     17  C   UNL     1      10.529   5.200   4.478  0.00  0.00    +0.089 A 
ATOM     18  C   UNL     1      11.290   6.899   6.077  0.00  0.00    +0.066 A 
ATOM     19  C   UNL     1       9.432   4.891   5.301  0.00  0.00    +0.032 A 
ATOM     20  C   UNL     1      10.193   6.577   6.883  0.00  0.00    +0.125 A 
ATOM     21  C   UNL     1       9.279   5.592   6.503  0.00  0.00    +0.040 A 
ATOM     22  H   UNL     1      13.155   6.854   3.842  0.00  0.00    +0.167 HD
ENDBRANCH   7  13
BRANCH   3   6
ATOM      2  O   UNL     1       9.526   3.176  -3.027  0.00  0.00    -0.380 OA
ATOM      6  C   UNL     1      11.875   4.271  -1.774  0.00  0.00    +0.061 C 
ATOM     11  C   UNL     1      11.730   2.779  -2.080  0.00  0.00    +0.047 C 
ATOM     12  C   UNL     1      10.492   4.915  -1.631  0.00  0.00    +0.047 C 
ATOM     14  C   UNL     1      10.796   2.571  -3.269  0.00  0.00    +0.161 C 
ATOM     15  C   UNL     1       9.627   4.588  -2.843  0.00  0.00    +0.161 C 
ENDBRANCH   3   6
TORSDOF 2
ENDMDL
MODEL 9
REMARK VINA RESULT:      -6.1      4.847      7.702
REMARK  Name = 45784238
REMARK  2 active torsions:
REMARK  status: ('A' for Active; 'I' for Inactive)
REMARK    1  A    between atoms: N_3  and  C_6
REMARK    2  A    between atoms: C_7  and  C_13
REMARK                            x       y       z     vdW  Elec       q    Type
REMARK                         _______ _______ _______ _____ _____    ______ ____
ROOT
ATOM      3  N   UNL     1      13.514   9.960  19.214  0.00  0.00    -0.299 NA
ATOM      7  C   UNL     1      14.972   8.956  20.750  0.00  0.00    +0.070 C 
ATOM      8  C   UNL     1      14.274   8.723  19.404  0.00  0.00    +0.096 C 
ATOM      9  C   UNL     1      14.428  11.031  19.611  0.00  0.00    +0.085 C 
ATOM     10  C   UNL     1      15.053  10.486  20.889  0.00  0.00    +0.028 C 
ENDROOT
BRANCH   7  13
ATOM      1  F   UNL     1      20.694   4.531  20.086  0.00  0.00    -0.205 F 
ATOM      4  N   UNL     1      16.582   7.151  20.079  0.00  0.00    -0.341 N 
ATOM      5  N   UNL     1      17.289   8.536  21.668  0.00  0.00    -0.232 NA
ATOM     13  C   UNL     1      16.297   8.236  20.860  0.00  0.00    +0.113 A 
ATOM     16  C   UNL     1      17.843   6.721  20.405  0.00  0.00    +0.069 A 
ATOM     17  C   UNL     1      18.262   7.602  21.399  0.00  0.00    +0.089 A 
ATOM     18  C   UNL     1      18.629   5.671  19.930  0.00  0.00    +0.066 A 
ATOM     19  C   UNL     1      19.539   7.439  21.963  0.00  0.00    +0.032 A 
ATOM     20  C   UNL     1      19.896   5.523  20.504  0.00  0.00    +0.125 A 
ATOM     21  C   UNL     1      20.346   6.391  21.502  0.00  0.00    +0.040 A 
ATOM     22  H   UNL     1      15.975   6.736  19.385  0.00  0.00    +0.167 HD
ENDBRANCH   7  13
BRANCH   3   6
ATOM      2  O   UNL     1      12.790   9.045  15.181  0.00  0.00    -0.380 OA
ATOM      6  C   UNL     1      13.036  10.116  17.841  0.00  0.00    +0.061 C 
ATOM     11  C   UNL     1      14.212  10.076  16.861  0.00  0.00    +0.047 C 
ATOM     12  C   UNL     1      12.019   9.027  17.485  0.00  0.00    +0.047 C 
ATOM     14  C   UNL     1      13.704  10.115  15.424  0.00  0.00    +0.161 C 
ATOM     15  C   UNL     1      11.633   9.124  16.013  0.00  0.00    +0.161 C 
ENDBRANCH   3   6
TORSDOF 2
ENDMDL
MODEL 10
REMARK VINA RESULT:      -6.1     28.432     30.386
REMARK  Name = 45784238
REMARK  2 active torsions:
REMARK  status: ('A' for Active; 'I' for Inactive)
REMARK    1  A    between atoms: N_3  and  C_6
REMARK    2  A    between atoms: C_7  and  C_13
REMARK                            x       y       z     vdW  Elec       q    Type
REMARK                         _______ _______ _______ _____ _____    ______ ____
ROOT
ATOM      3  N   UNL     1     -16.477   2.212  28.375  0.00  0.00    -0.299 NA
ATOM      7  C   UNL     1     -17.015   3.302  26.370  0.00  0.00    +0.070 C 
ATOM      8  C   UNL     1     -16.118   3.408  27.610  0.00  0.00    +0.096 C 
ATOM      9  C   UNL     1     -16.565   1.141  27.383  0.00  0.00    +0.085 C 
ATOM     10  C   UNL     1     -17.322   1.800  26.238  0.00  0.00    +0.028 C 
ENDROOT
BRANCH   7  13
ATOM      1  F   UNL     1     -12.636   5.949  21.214  0.00  0.00    -0.205 F 
ATOM      4  N   UNL     1     -15.046   4.007  24.981  0.00  0.00    -0.341 N 
ATOM      5  N   UNL     1     -17.047   4.473  24.131  0.00  0.00    -0.232 NA
ATOM     13  C   UNL     1     -16.402   3.936  25.143  0.00  0.00    +0.113 A 
ATOM     16  C   UNL     1     -14.800   4.629  23.785  0.00  0.00    +0.069 A 
ATOM     17  C   UNL     1     -16.064   4.910  23.274  0.00  0.00    +0.089 A 
ATOM     18  C   UNL     1     -13.615   4.960  23.126  0.00  0.00    +0.066 A 
ATOM     19  C   UNL     1     -16.171   5.560  22.032  0.00  0.00    +0.032 A 
ATOM     20  C   UNL     1     -13.741   5.607  21.892  0.00  0.00    +0.125 A 
ATOM     21  C   UNL     1     -14.995   5.902  21.353  0.00  0.00    +0.040 A 
ATOM     22  H   UNL     1     -14.347   3.662  25.626  0.00  0.00    +0.167 HD
ENDBRANCH   7  13
BRANCH   3   6
ATOM      2  O   UNL     1     -14.989   0.938  32.089  0.00  0.00    -0.380 OA
ATOM      6  C   UNL     1     -15.513   1.916  29.433  0.00  0.00    +0.061 C 
ATOM     11  C   UNL     1     -15.827   2.737  30.685  0.00  0.00    +0.047 C 
ATOM     12  C   UNL     1     -15.508   0.422  29.771  0.00  0.00    +0.047 C 
ATOM     14  C   UNL     1     -14.897   2.338  31.827  0.00  0.00    +0.161 C 
ATOM     15  C   UNL     1     -14.597   0.151  30.963  0.00  0.00    +0.161 C 
ENDBRANCH   3   6
TORSDOF 2
ENDMDL
