MODEL 1
REMARK VINA RESULT:      -6.8      0.000      0.000
REMARK  Name = 11887601
REMARK  9 active torsions:
REMARK  status: ('A' for Active; 'I' for Inactive)
REMARK    1  A    between atoms: N_5  and  C_18
REMARK    2  A    between atoms: N_9  and  C_27
REMARK    3  A    between atoms: N_10  and  C_30
REMARK    4  A    between atoms: C_11  and  C_14
REMARK    5  A    between atoms: C_14  and  C_18
REMARK    6  A    between atoms: C_18  and  C_24
REMARK    7  A    between atoms: C_19  and  C_21
REMARK    8  A    between atoms: C_27  and  C_28
REMARK    9  A    between atoms: C_27  and  C_29
REMARK                            x       y       z     vdW  Elec       q    Type
REMARK                         _______ _______ _______ _____ _____    ______ ____
ROOT
ATOM      3  O   UNL     1     -14.738 -11.644  21.312  0.00  0.00    -0.253 OA
ATOM      4  O   UNL     1      -8.440 -13.378  18.947  0.00  0.00    -0.252 OA
ATOM      6  N   UNL     1     -12.667 -11.044  20.447  0.00  0.00    -0.271 N 
ATOM      7  N   UNL     1      -9.928 -11.791  19.732  0.00  0.00    -0.282 N 
ATOM      9  N   UNL     1     -14.419  -9.468  20.641  0.00  0.00    -0.297 N 
ATOM     10  N   UNL     1      -7.641 -11.263  19.504  0.00  0.00    -0.269 N 
ATOM     19  C   UNL     1     -11.702 -10.025  20.013  0.00  0.00    +0.181 C 
ATOM     20  C   UNL     1     -10.240 -10.437  20.217  0.00  0.00    +0.141 C 
ATOM     22  C   UNL     1     -12.154 -12.405  20.619  0.00  0.00    +0.129 C 
ATOM     23  C   UNL     1     -11.041 -12.733  19.637  0.00  0.00    +0.128 C 
ATOM     25  C   UNL     1     -13.997 -10.779  20.836  0.00  0.00    +0.303 C 
ATOM     26  C   UNL     1      -8.637 -12.229  19.352  0.00  0.00    +0.307 C 
ATOM     39  H   UNL     1     -13.835  -8.817  20.130  0.00  0.00    +0.150 HD
ATOM     40  H   UNL     1      -7.773 -10.561  20.226  0.00  0.00    +0.156 HD
ENDROOT
BRANCH  10  30
ATOM     30  C   UNL     1      -6.457 -11.117  18.741  0.00  0.00    +0.035 A 
ATOM     31  C   UNL     1      -5.283 -11.755  19.145  0.00  0.00    +0.023 A 
ATOM     32  C   UNL     1      -6.462 -10.335  17.586  0.00  0.00    +0.023 A 
ATOM     33  C   UNL     1      -4.117 -11.611  18.393  0.00  0.00    +0.002 A 
ATOM     34  C   UNL     1      -5.296 -10.191  16.834  0.00  0.00    +0.002 A 
ATOM     35  C   UNL     1      -4.123 -10.830  17.239  0.00  0.00    +0.000 A 
ENDBRANCH  10  30
BRANCH  19  21
ATOM      1  O   UNL     1     -12.885 -10.272  17.951  0.00  0.00    -0.274 OA
ATOM      5  N   UNL     1     -11.036  -8.860  18.027  0.00  0.00    -0.302 N 
ATOM     21  C   UNL     1     -11.959  -9.743  18.561  0.00  0.00    +0.236 C 
ATOM     36  H   UNL     1     -10.264  -8.544  18.607  0.00  0.00    +0.150 HD
BRANCH   5  18
ATOM     18  C   UNL     1     -11.049  -8.444  16.643  0.00  0.00    +0.159 C 
BRANCH  18  24
ATOM      2  O   UNL     1      -9.953 -10.380  15.666  0.00  0.00    -0.274 OA
ATOM      8  N   UNL     1      -8.893  -8.347  15.550  0.00  0.00    -0.328 N 
ATOM     24  C   UNL     1      -9.937  -9.174  15.902  0.00  0.00    +0.231 C 
ATOM     37  H   UNL     1      -8.883  -7.356  15.769  0.00  0.00    +0.145 HD
ATOM     38  H   UNL     1      -8.083  -8.711  15.058  0.00  0.00    +0.145 HD
ENDBRANCH  18  24
BRANCH  18  14
ATOM     14  C   UNL     1     -10.960  -6.921  16.496  0.00  0.00    +0.035 C 
BRANCH  14  11
ATOM     11  C   UNL     1     -12.211  -6.275  15.902  0.00  0.00    -0.009 C 
ATOM     12  C   UNL     1     -13.363  -7.286  15.837  0.00  0.00    +0.003 C 
ATOM     13  C   UNL     1     -11.914  -5.695  14.513  0.00  0.00    +0.003 C 
ATOM     15  C   UNL     1     -14.610  -6.678  15.198  0.00  0.00    +0.000 C 
ATOM     16  C   UNL     1     -13.163  -5.090  13.875  0.00  0.00    +0.000 C 
ATOM     17  C   UNL     1     -14.309  -6.095  13.821  0.00  0.00    +0.000 C 
ENDBRANCH  14  11
ENDBRANCH  18  14
ENDBRANCH   5  18
ENDBRANCH  19  21
BRANCH   9  27
ATOM     27  C   UNL     1     -15.753  -9.024  20.980  0.00  0.00    +0.068 C 
ATOM     28  C   UNL     1     -16.651  -9.061  19.750  0.00  0.00    +0.027 C 
ATOM     29  C   UNL     1     -15.712  -7.630  21.593  0.00  0.00    +0.027 C 
ENDBRANCH   9  27
TORSDOF 7
ENDMDL
MODEL 2
REMARK VINA RESULT:      -6.8      3.228      6.246
REMARK  Name = 11887601
REMARK  9 active torsions:
REMARK  status: ('A' for Active; 'I' for Inactive)
REMARK    1  A    between atoms: N_5  and  C_18
REMARK    2  A    between atoms: N_9  and  C_27
REMARK    3  A    between atoms: N_10  and  C_30
REMARK    4  A    between atoms: C_11  and  C_14
REMARK    5  A    between atoms: C_14  and  C_18
REMARK    6  A    between atoms: C_18  and  C_24
REMARK    7  A    between atoms: C_19  and  C_21
REMARK    8  A    between atoms: C_27  and  C_28
REMARK    9  A    between atoms: C_27  and  C_29
REMARK                            x       y       z     vdW  Elec       q    Type
REMARK                         _______ _______ _______ _____ _____    ______ ____
ROOT
ATOM      3  O   UNL     1     -13.765  -7.355  15.414  0.00  0.00    -0.253 OA
ATOM      4  O   UNL     1      -9.165 -11.434  18.650  0.00  0.00    -0.252 OA
ATOM      6  N   UNL     1     -11.571  -8.006  15.817  0.00  0.00    -0.271 N 
ATOM      7  N   UNL     1      -9.656  -9.543  17.411  0.00  0.00    -0.282 N 
ATOM      9  N   UNL     1     -12.105  -6.509  14.065  0.00  0.00    -0.297 N 
ATOM     10  N   UNL     1      -7.518  -9.812  18.368  0.00  0.00    -0.269 N 
ATOM     19  C   UNL     1     -10.126  -7.856  15.601  0.00  0.00    +0.181 C 
ATOM     20  C   UNL     1      -9.279  -8.252  16.815  0.00  0.00    +0.141 C 
ATOM     22  C   UNL     1     -11.985  -8.855  16.936  0.00  0.00    +0.129 C 
ATOM     23  C   UNL     1     -11.022 -10.007  17.175  0.00  0.00    +0.128 C 
ATOM     25  C   UNL     1     -12.568  -7.292  15.119  0.00  0.00    +0.303 C 
ATOM     26  C   UNL     1      -8.790 -10.356  18.180  0.00  0.00    +0.307 C 
ATOM     39  H   UNL     1     -11.140  -6.580  13.766  0.00  0.00    +0.150 HD
ATOM     40  H   UNL     1      -7.434  -8.799  18.363  0.00  0.00    +0.156 HD
ENDROOT
BRANCH  10  30
ATOM     30  C   UNL     1      -6.297 -10.510  18.537  0.00  0.00    +0.035 A 
ATOM     31  C   UNL     1      -6.014 -11.137  19.751  0.00  0.00    +0.023 A 
ATOM     32  C   UNL     1      -5.377 -10.571  17.491  0.00  0.00    +0.023 A 
ATOM     33  C   UNL     1      -4.812 -11.824  19.918  0.00  0.00    +0.002 A 
ATOM     34  C   UNL     1      -4.175 -11.258  17.657  0.00  0.00    +0.002 A 
ATOM     35  C   UNL     1      -3.893 -11.885  18.871  0.00  0.00    +0.000 A 
ENDBRANCH  10  30
BRANCH  19  21
ATOM      1  O   UNL     1     -10.579  -9.038  13.574  0.00  0.00    -0.274 OA
ATOM      5  N   UNL     1      -8.411  -9.041  14.418  0.00  0.00    -0.302 N 
ATOM     21  C   UNL     1      -9.752  -8.698  14.416  0.00  0.00    +0.236 C 
ATOM     36  H   UNL     1      -7.834  -8.767  15.209  0.00  0.00    +0.150 HD
BRANCH   5  18
ATOM     18  C   UNL     1      -7.803  -9.866  13.400  0.00  0.00    +0.159 C 
BRANCH  18  24
ATOM      2  O   UNL     1      -8.139 -12.014  14.485  0.00  0.00    -0.274 OA
ATOM      8  N   UNL     1      -9.096 -11.666  12.427  0.00  0.00    -0.328 N 
ATOM     24  C   UNL     1      -8.354 -11.280  13.523  0.00  0.00    +0.231 C 
ATOM     37  H   UNL     1      -9.249 -11.057  11.630  0.00  0.00    +0.145 HD
ATOM     38  H   UNL     1      -9.513 -12.590  12.380  0.00  0.00    +0.145 HD
ENDBRANCH  18  24
BRANCH  18  14
ATOM     14  C   UNL     1      -6.273  -9.819  13.453  0.00  0.00    +0.035 C 
BRANCH  14  11
ATOM     11  C   UNL     1      -5.594  -9.948  12.090  0.00  0.00    -0.009 C 
ATOM     12  C   UNL     1      -4.125 -10.360  12.254  0.00  0.00    +0.003 C 
ATOM     13  C   UNL     1      -5.708  -8.636  11.302  0.00  0.00    +0.003 C 
ATOM     15  C   UNL     1      -3.410 -10.444  10.907  0.00  0.00    +0.000 C 
ATOM     16  C   UNL     1      -4.990  -8.722   9.957  0.00  0.00    +0.000 C 
ATOM     17  C   UNL     1      -3.533  -9.141  10.124  0.00  0.00    +0.000 C 
ENDBRANCH  14  11
ENDBRANCH  18  14
ENDBRANCH   5  18
ENDBRANCH  19  21
BRANCH   9  27
ATOM     27  C   UNL     1     -12.990  -5.716  13.242  0.00  0.00    +0.068 C 
ATOM     28  C   UNL     1     -13.266  -6.427  11.924  0.00  0.00    +0.027 C 
ATOM     29  C   UNL     1     -12.404  -4.329  13.010  0.00  0.00    +0.027 C 
ENDBRANCH   9  27
TORSDOF 7
ENDMDL
MODEL 3
REMARK VINA RESULT:      -6.7      4.264      8.928
REMARK  Name = 11887601
REMARK  9 active torsions:
REMARK  status: ('A' for Active; 'I' for Inactive)
REMARK    1  A    between atoms: N_5  and  C_18
REMARK    2  A    between atoms: N_9  and  C_27
REMARK    3  A    between atoms: N_10  and  C_30
REMARK    4  A    between atoms: C_11  and  C_14
REMARK    5  A    between atoms: C_14  and  C_18
REMARK    6  A    between atoms: C_18  and  C_24
REMARK    7  A    between atoms: C_19  and  C_21
REMARK    8  A    between atoms: C_27  and  C_28
REMARK    9  A    between atoms: C_27  and  C_29
REMARK                            x       y       z     vdW  Elec       q    Type
REMARK                         _______ _______ _______ _____ _____    ______ ____
ROOT
ATOM      3  O   UNL     1      -1.777 -11.525  15.381  0.00  0.00    -0.253 OA
ATOM      4  O   UNL     1      -6.727 -10.601  20.168  0.00  0.00    -0.252 OA
ATOM      6  N   UNL     1      -4.012 -11.572  16.015  0.00  0.00    -0.271 N 
ATOM      7  N   UNL     1      -6.029 -11.450  18.133  0.00  0.00    -0.282 N 
ATOM      9  N   UNL     1      -3.372 -11.818  13.751  0.00  0.00    -0.297 N 
ATOM     10  N   UNL     1      -8.108 -12.096  19.037  0.00  0.00    -0.269 N 
ATOM     19  C   UNL     1      -5.426 -11.837  15.718  0.00  0.00    +0.181 C 
ATOM     20  C   UNL     1      -6.236 -12.285  16.939  0.00  0.00    +0.141 C 
ATOM     22  C   UNL     1      -3.661 -11.373  17.422  0.00  0.00    +0.129 C 
ATOM     23  C   UNL     1      -4.776 -10.702  18.208  0.00  0.00    +0.128 C 
ATOM     25  C   UNL     1      -2.966 -11.632  15.069  0.00  0.00    +0.303 C 
ATOM     26  C   UNL     1      -6.957 -11.323  19.194  0.00  0.00    +0.307 C 
ATOM     39  H   UNL     1      -4.354 -11.771  13.511  0.00  0.00    +0.150 HD
ATOM     40  H   UNL     1      -8.029 -12.955  18.500  0.00  0.00    +0.156 HD
ENDROOT
BRANCH  10  30
ATOM     30  C   UNL     1      -9.410 -11.814  19.519  0.00  0.00    +0.035 A 
ATOM     31  C   UNL     1      -9.957 -10.541  19.347  0.00  0.00    +0.023 A 
ATOM     32  C   UNL     1     -10.146 -12.807  20.165  0.00  0.00    +0.023 A 
ATOM     33  C   UNL     1     -11.239 -10.263  19.821  0.00  0.00    +0.002 A 
ATOM     34  C   UNL     1     -11.428 -12.529  20.639  0.00  0.00    +0.002 A 
ATOM     35  C   UNL     1     -11.975 -11.257  20.466  0.00  0.00    +0.000 A 
ENDBRANCH  10  30
BRANCH  19  21
ATOM      1  O   UNL     1      -5.799  -9.477  15.639  0.00  0.00    -0.274 OA
ATOM      5  N   UNL     1      -6.814 -10.832  14.042  0.00  0.00    -0.302 N 
ATOM     21  C   UNL     1      -6.014 -10.580  15.144  0.00  0.00    +0.236 C 
ATOM     36  H   UNL     1      -6.984 -11.795  13.766  0.00  0.00    +0.150 HD
BRANCH   5  18
ATOM     18  C   UNL     1      -7.516  -9.794  13.321  0.00  0.00    +0.159 C 
BRANCH  18  24
ATOM      2  O   UNL     1      -9.898 -10.207  13.563  0.00  0.00    -0.274 OA
ATOM      8  N   UNL     1      -8.904  -8.681  14.960  0.00  0.00    -0.328 N 
ATOM     24  C   UNL     1      -8.893  -9.611  13.943  0.00  0.00    +0.231 C 
ATOM     37  H   UNL     1      -8.070  -8.180  15.251  0.00  0.00    +0.145 HD
ATOM     38  H   UNL     1      -9.762  -8.458  15.454  0.00  0.00    +0.145 HD
ENDBRANCH  18  24
BRANCH  18  14
ATOM     14  C   UNL     1      -7.577 -10.076  11.816  0.00  0.00    +0.035 C 
BRANCH  14  11
ATOM     11  C   UNL     1      -6.215 -10.097  11.125  0.00  0.00    -0.009 C 
ATOM     12  C   UNL     1      -5.604  -8.689  11.092  0.00  0.00    +0.003 C 
ATOM     13  C   UNL     1      -6.334 -10.674   9.709  0.00  0.00    +0.003 C 
ATOM     15  C   UNL     1      -4.264  -8.675  10.360  0.00  0.00    +0.000 C 
ATOM     16  C   UNL     1      -4.993 -10.655   8.978  0.00  0.00    +0.000 C 
ATOM     17  C   UNL     1      -4.384  -9.256   8.955  0.00  0.00    +0.000 C 
ENDBRANCH  14  11
ENDBRANCH  18  14
ENDBRANCH   5  18
ENDBRANCH  19  21
BRANCH   9  27
ATOM     27  C   UNL     1      -2.433 -11.898  12.655  0.00  0.00    +0.068 C 
ATOM     28  C   UNL     1      -1.942 -10.507  12.276  0.00  0.00    +0.027 C 
ATOM     29  C   UNL     1      -3.063 -12.606  11.462  0.00  0.00    +0.027 C 
ENDBRANCH   9  27
TORSDOF 7
ENDMDL
MODEL 4
REMARK VINA RESULT:      -6.6      5.598     10.707
REMARK  Name = 11887601
REMARK  9 active torsions:
REMARK  status: ('A' for Active; 'I' for Inactive)
REMARK    1  A    between atoms: N_5  and  C_18
REMARK    2  A    between atoms: N_9  and  C_27
REMARK    3  A    between atoms: N_10  and  C_30
REMARK    4  A    between atoms: C_11  and  C_14
REMARK    5  A    between atoms: C_14  and  C_18
REMARK    6  A    between atoms: C_18  and  C_24
REMARK    7  A    between atoms: C_19  and  C_21
REMARK    8  A    between atoms: C_27  and  C_28
REMARK    9  A    between atoms: C_27  and  C_29
REMARK                            x       y       z     vdW  Elec       q    Type
REMARK                         _______ _______ _______ _____ _____    ______ ____
ROOT
ATOM      3  O   UNL     1      -1.839 -11.632  12.703  0.00  0.00    -0.253 OA
ATOM      4  O   UNL     1      -6.638 -10.110   7.915  0.00  0.00    -0.252 OA
ATOM      6  N   UNL     1      -3.760 -10.498  12.054  0.00  0.00    -0.271 N 
ATOM      7  N   UNL     1      -5.591  -9.662   9.928  0.00  0.00    -0.282 N 
ATOM      9  N   UNL     1      -3.061 -10.536  14.313  0.00  0.00    -0.297 N 
ATOM     10  N   UNL     1      -7.081  -8.094   8.991  0.00  0.00    -0.269 N 
ATOM     19  C   UNL     1      -4.852  -9.556  12.334  0.00  0.00    +0.181 C 
ATOM     20  C   UNL     1      -5.344  -8.800  11.095  0.00  0.00    +0.141 C 
ATOM     22  C   UNL     1      -3.568 -10.886  10.656  0.00  0.00    +0.129 C 
ATOM     23  C   UNL     1      -4.876 -10.936   9.883  0.00  0.00    +0.128 C 
ATOM     25  C   UNL     1      -2.814 -10.938  13.004  0.00  0.00    +0.303 C 
ATOM     26  C   UNL     1      -6.469  -9.342   8.865  0.00  0.00    +0.307 C 
ATOM     39  H   UNL     1      -3.935 -10.081  14.548  0.00  0.00    +0.150 HD
ATOM     40  H   UNL     1      -6.581  -7.373   9.502  0.00  0.00    +0.156 HD
ENDROOT
BRANCH  10  30
ATOM     30  C   UNL     1      -8.356  -7.705   8.509  0.00  0.00    +0.035 A 
ATOM     31  C   UNL     1      -9.503  -8.023   9.238  0.00  0.00    +0.023 A 
ATOM     32  C   UNL     1      -8.465  -7.006   7.308  0.00  0.00    +0.023 A 
ATOM     33  C   UNL     1     -10.758  -7.640   8.765  0.00  0.00    +0.002 A 
ATOM     34  C   UNL     1      -9.720  -6.623   6.835  0.00  0.00    +0.002 A 
ATOM     35  C   UNL     1     -10.866  -6.940   7.563  0.00  0.00    +0.000 A 
ENDBRANCH  10  30
BRANCH  19  21
ATOM      1  O   UNL     1      -6.147 -11.530  12.708  0.00  0.00    -0.274 OA
ATOM      5  N   UNL     1      -6.787  -9.550  13.748  0.00  0.00    -0.302 N 
ATOM     21  C   UNL     1      -5.982 -10.335  12.942  0.00  0.00    +0.236 C 
ATOM     36  H   UNL     1      -6.600  -8.553  13.809  0.00  0.00    +0.150 HD
BRANCH   5  18
ATOM     18  C   UNL     1      -7.956 -10.055  14.432  0.00  0.00    +0.159 C 
BRANCH  18  24
ATOM      2  O   UNL     1      -9.423  -9.709  12.526  0.00  0.00    -0.274 OA
ATOM      8  N   UNL     1     -10.037  -8.827  14.555  0.00  0.00    -0.328 N 
ATOM     24  C   UNL     1      -9.200  -9.538  13.722  0.00  0.00    +0.231 C 
ATOM     37  H   UNL     1      -9.831  -8.675  15.537  0.00  0.00    +0.145 HD
ATOM     38  H   UNL     1     -10.898  -8.421  14.204  0.00  0.00    +0.145 HD
ENDBRANCH  18  24
BRANCH  18  14
ATOM     14  C   UNL     1      -7.943  -9.719  15.927  0.00  0.00    +0.035 C 
BRANCH  14  11
ATOM     11  C   UNL     1      -6.906 -10.498  16.736  0.00  0.00    -0.009 C 
ATOM     12  C   UNL     1      -7.194 -12.004  16.675  0.00  0.00    +0.003 C 
ATOM     13  C   UNL     1      -6.872 -10.006  18.188  0.00  0.00    +0.003 C 
ATOM     15  C   UNL     1      -6.202 -12.801  17.519  0.00  0.00    +0.000 C 
ATOM     16  C   UNL     1      -5.881 -10.806  19.031  0.00  0.00    +0.000 C 
ATOM     17  C   UNL     1      -6.164 -12.304  18.961  0.00  0.00    +0.000 C 
ENDBRANCH  14  11
ENDBRANCH  18  14
ENDBRANCH   5  18
ENDBRANCH  19  21
BRANCH   9  27
ATOM     27  C   UNL     1      -2.196 -10.902  15.413  0.00  0.00    +0.068 C 
ATOM     28  C   UNL     1      -2.993 -10.985  16.708  0.00  0.00    +0.027 C 
ATOM     29  C   UNL     1      -1.042  -9.915  15.536  0.00  0.00    +0.027 C 
ENDBRANCH   9  27
TORSDOF 7
ENDMDL
MODEL 5
REMARK VINA RESULT:      -6.5      3.622      8.131
REMARK  Name = 11887601
REMARK  9 active torsions:
REMARK  status: ('A' for Active; 'I' for Inactive)
REMARK    1  A    between atoms: N_5  and  C_18
REMARK    2  A    between atoms: N_9  and  C_27
REMARK    3  A    between atoms: N_10  and  C_30
REMARK    4  A    between atoms: C_11  and  C_14
REMARK    5  A    between atoms: C_14  and  C_18
REMARK    6  A    between atoms: C_18  and  C_24
REMARK    7  A    between atoms: C_19  and  C_21
REMARK    8  A    between atoms: C_27  and  C_28
REMARK    9  A    between atoms: C_27  and  C_29
REMARK                            x       y       z     vdW  Elec       q    Type
REMARK                         _______ _______ _______ _____ _____    ______ ____
ROOT
ATOM      3  O   UNL     1      -1.974 -11.282  15.313  0.00  0.00    -0.253 OA
ATOM      4  O   UNL     1      -6.794 -10.890  20.300  0.00  0.00    -0.252 OA
ATOM      6  N   UNL     1      -4.158 -11.588  16.042  0.00  0.00    -0.271 N 
ATOM      7  N   UNL     1      -6.086 -11.678  18.245  0.00  0.00    -0.282 N 
ATOM      9  N   UNL     1      -3.589 -11.787  13.756  0.00  0.00    -0.297 N 
ATOM     10  N   UNL     1      -8.032 -12.556  19.244  0.00  0.00    -0.269 N 
ATOM     19  C   UNL     1      -5.542 -12.024  15.809  0.00  0.00    +0.181 C 
ATOM     20  C   UNL     1      -6.240 -12.549  17.068  0.00  0.00    +0.141 C 
ATOM     22  C   UNL     1      -3.775 -11.328  17.431  0.00  0.00    +0.129 C 
ATOM     23  C   UNL     1      -4.929 -10.785  18.259  0.00  0.00    +0.128 C 
ATOM     25  C   UNL     1      -3.154 -11.535  15.053  0.00  0.00    +0.303 C 
ATOM     26  C   UNL     1      -6.976 -11.648  19.343  0.00  0.00    +0.307 C 
ATOM     39  H   UNL     1      -4.579 -11.861  13.558  0.00  0.00    +0.150 HD
ATOM     40  H   UNL     1      -7.873 -13.406  18.711  0.00  0.00    +0.156 HD
ENDROOT
BRANCH  10  30
ATOM     30  C   UNL     1      -9.337 -12.424  19.779  0.00  0.00    +0.035 A 
ATOM     31  C   UNL     1     -10.026 -11.218  19.649  0.00  0.00    +0.023 A 
ATOM     32  C   UNL     1      -9.934 -13.500  20.436  0.00  0.00    +0.023 A 
ATOM     33  C   UNL     1     -11.312 -11.088  20.175  0.00  0.00    +0.002 A 
ATOM     34  C   UNL     1     -11.219 -13.371  20.962  0.00  0.00    +0.002 A 
ATOM     35  C   UNL     1     -11.908 -12.164  20.831  0.00  0.00    +0.000 A 
ENDBRANCH  10  30
BRANCH  19  21
ATOM      1  O   UNL     1      -5.744  -9.965  14.612  0.00  0.00    -0.274 OA
ATOM      5  N   UNL     1      -7.649 -10.909  15.559  0.00  0.00    -0.302 N 
ATOM     21  C   UNL     1      -6.301 -10.855  15.250  0.00  0.00    +0.236 C 
ATOM     36  H   UNL     1      -7.987 -11.655  16.160  0.00  0.00    +0.150 HD
BRANCH   5  18
ATOM     18  C   UNL     1      -8.593  -9.891  15.157  0.00  0.00    +0.159 C 
BRANCH  18  24
ATOM      2  O   UNL     1      -8.263  -9.031  17.406  0.00  0.00    -0.274 OA
ATOM      8  N   UNL     1      -9.377  -7.721  15.885  0.00  0.00    -0.328 N 
ATOM     24  C   UNL     1      -8.703  -8.859  16.271  0.00  0.00    +0.231 C 
ATOM     37  H   UNL     1      -9.753  -7.599  14.950  0.00  0.00    +0.145 HD
ATOM     38  H   UNL     1      -9.526  -6.957  16.537  0.00  0.00    +0.145 HD
ENDBRANCH  18  24
BRANCH  18  14
ATOM     14  C   UNL     1      -9.950 -10.484  14.762  0.00  0.00    +0.035 C 
BRANCH  14  11
ATOM     11  C   UNL     1     -10.746 -11.063  15.931  0.00  0.00    -0.009 C 
ATOM     12  C   UNL     1     -10.794 -12.594  15.846  0.00  0.00    +0.003 C 
ATOM     13  C   UNL     1     -12.161 -10.472  15.967  0.00  0.00    +0.003 C 
ATOM     15  C   UNL     1     -11.630 -13.194  16.975  0.00  0.00    +0.000 C 
ATOM     16  C   UNL     1     -12.995 -11.076  17.095  0.00  0.00    +0.000 C 
ATOM     17  C   UNL     1     -13.033 -12.599  17.014  0.00  0.00    +0.000 C 
ENDBRANCH  14  11
ENDBRANCH  18  14
ENDBRANCH   5  18
ENDBRANCH  19  21
BRANCH   9  27
ATOM     27  C   UNL     1      -2.694 -11.770  12.620  0.00  0.00    +0.068 C 
ATOM     28  C   UNL     1      -2.725 -10.406  11.942  0.00  0.00    +0.027 C 
ATOM     29  C   UNL     1      -3.049 -12.883  11.642  0.00  0.00    +0.027 C 
ENDBRANCH   9  27
TORSDOF 7
ENDMDL
MODEL 6
REMARK VINA RESULT:      -6.4     30.371     34.301
REMARK  Name = 11887601
REMARK  9 active torsions:
REMARK  status: ('A' for Active; 'I' for Inactive)
REMARK    1  A    between atoms: N_5  and  C_18
REMARK    2  A    between atoms: N_9  and  C_27
REMARK    3  A    between atoms: N_10  and  C_30
REMARK    4  A    between atoms: C_11  and  C_14
REMARK    5  A    between atoms: C_14  and  C_18
REMARK    6  A    between atoms: C_18  and  C_24
REMARK    7  A    between atoms: C_19  and  C_21
REMARK    8  A    between atoms: C_27  and  C_28
REMARK    9  A    between atoms: C_27  and  C_29
REMARK                            x       y       z     vdW  Elec       q    Type
REMARK                         _______ _______ _______ _____ _____    ______ ____
ROOT
ATOM      3  O   UNL     1      12.632   8.097  -1.186  0.00  0.00    -0.253 OA
ATOM      4  O   UNL     1      18.175   9.958   2.566  0.00  0.00    -0.252 OA
ATOM      6  N   UNL     1      14.030   7.792   0.644  0.00  0.00    -0.271 N 
ATOM      7  N   UNL     1      16.529   8.423   2.034  0.00  0.00    -0.282 N 
ATOM      9  N   UNL     1      11.981   6.627   0.459  0.00  0.00    -0.297 N 
ATOM     10  N   UNL     1      18.328   7.799   3.424  0.00  0.00    -0.269 N 
ATOM     19  C   UNL     1      14.420   7.057   1.856  0.00  0.00    +0.181 C 
ATOM     20  C   UNL     1      15.927   7.084   2.132  0.00  0.00    +0.141 C 
ATOM     22  C   UNL     1      15.003   8.749   0.114  0.00  0.00    +0.129 C 
ATOM     23  C   UNL     1      15.827   9.406   1.210  0.00  0.00    +0.128 C 
ATOM     25  C   UNL     1      12.862   7.543  -0.107  0.00  0.00    +0.303 C 
ATOM     26  C   UNL     1      17.723   8.816   2.683  0.00  0.00    +0.307 C 
ATOM     39  H   UNL     1      12.133   6.291   1.401  0.00  0.00    +0.150 HD
ATOM     40  H   UNL     1      18.179   6.842   3.118  0.00  0.00    +0.156 HD
ENDROOT
BRANCH  10  30
ATOM     30  C   UNL     1      19.117   7.934   4.592  0.00  0.00    +0.035 A 
ATOM     31  C   UNL     1      18.640   8.675   5.675  0.00  0.00    +0.023 A 
ATOM     32  C   UNL     1      20.371   7.328   4.661  0.00  0.00    +0.023 A 
ATOM     33  C   UNL     1      19.417   8.807   6.825  0.00  0.00    +0.002 A 
ATOM     34  C   UNL     1      21.148   7.461   5.812  0.00  0.00    +0.002 A 
ATOM     35  C   UNL     1      20.671   8.200   6.894  0.00  0.00    +0.000 A 
ENDBRANCH  10  30
BRANCH  19  21
ATOM      1  O   UNL     1      12.991   8.670   2.889  0.00  0.00    -0.274 OA
ATOM      5  N   UNL     1      13.875   6.953   4.187  0.00  0.00    -0.302 N 
ATOM     21  C   UNL     1      13.675   7.657   3.013  0.00  0.00    +0.236 C 
ATOM     36  H   UNL     1      14.524   6.172   4.188  0.00  0.00    +0.150 HD
BRANCH   5  18
ATOM     18  C   UNL     1      13.287   7.338   5.450  0.00  0.00    +0.159 C 
BRANCH  18  24
ATOM      2  O   UNL     1      15.402   7.703   6.588  0.00  0.00    -0.274 OA
ATOM      8  N   UNL     1      13.918   6.203   7.492  0.00  0.00    -0.328 N 
ATOM     24  C   UNL     1      14.316   7.129   6.552  0.00  0.00    +0.231 C 
ATOM     37  H   UNL     1      13.026   5.721   7.440  0.00  0.00    +0.145 HD
ATOM     38  H   UNL     1      14.517   5.966   8.276  0.00  0.00    +0.145 HD
ENDBRANCH  18  24
BRANCH  18  14
ATOM     14  C   UNL     1      11.969   6.605   5.723  0.00  0.00    +0.035 C 
BRANCH  14  11
ATOM     11  C   UNL     1      10.720   7.400   5.347  0.00  0.00    -0.009 C 
ATOM     12  C   UNL     1       9.644   7.261   6.432  0.00  0.00    +0.003 C 
ATOM     13  C   UNL     1      10.181   6.951   3.982  0.00  0.00    +0.003 C 
ATOM     15  C   UNL     1       8.365   8.006   6.055  0.00  0.00    +0.000 C 
ATOM     16  C   UNL     1       8.901   7.695   3.609  0.00  0.00    +0.000 C 
ATOM     17  C   UNL     1       7.837   7.562   4.694  0.00  0.00    +0.000 C 
ENDBRANCH  14  11
ENDBRANCH  18  14
ENDBRANCH   5  18
ENDBRANCH  19  21
BRANCH   9  27
ATOM     27  C   UNL     1      10.734   6.259  -0.174  0.00  0.00    +0.068 C 
ATOM     28  C   UNL     1       9.695   7.354   0.025  0.00  0.00    +0.027 C 
ATOM     29  C   UNL     1      10.237   4.921   0.361  0.00  0.00    +0.027 C 
ENDBRANCH   9  27
TORSDOF 7
ENDMDL
MODEL 7
REMARK VINA RESULT:      -6.4     29.989     34.239
REMARK  Name = 11887601
REMARK  9 active torsions:
REMARK  status: ('A' for Active; 'I' for Inactive)
REMARK    1  A    between atoms: N_5  and  C_18
REMARK    2  A    between atoms: N_9  and  C_27
REMARK    3  A    between atoms: N_10  and  C_30
REMARK    4  A    between atoms: C_11  and  C_14
REMARK    5  A    between atoms: C_14  and  C_18
REMARK    6  A    between atoms: C_18  and  C_24
REMARK    7  A    between atoms: C_19  and  C_21
REMARK    8  A    between atoms: C_27  and  C_28
REMARK    9  A    between atoms: C_27  and  C_29
REMARK                            x       y       z     vdW  Elec       q    Type
REMARK                         _______ _______ _______ _____ _____    ______ ____
ROOT
ATOM      3  O   UNL     1      18.620  10.178   4.139  0.00  0.00    -0.253 OA
ATOM      4  O   UNL     1      11.724   9.836   4.909  0.00  0.00    -0.252 OA
ATOM      6  N   UNL     1      16.671   8.936   4.380  0.00  0.00    -0.271 N 
ATOM      7  N   UNL     1      13.809   8.840   4.991  0.00  0.00    -0.282 N 
ATOM      9  N   UNL     1      18.722   7.903   3.816  0.00  0.00    -0.297 N 
ATOM     10  N   UNL     1      11.930   7.734   5.890  0.00  0.00    -0.269 N 
ATOM     19  C   UNL     1      15.975   7.648   4.504  0.00  0.00    +0.181 C 
ATOM     20  C   UNL     1      14.696   7.721   5.346  0.00  0.00    +0.141 C 
ATOM     22  C   UNL     1      15.895  10.137   4.697  0.00  0.00    +0.129 C 
ATOM     23  C   UNL     1      14.426   9.990   4.334  0.00  0.00    +0.128 C 
ATOM     25  C   UNL     1      18.048   9.084   4.114  0.00  0.00    +0.303 C 
ATOM     26  C   UNL     1      12.416   8.868   5.236  0.00  0.00    +0.307 C 
ATOM     39  H   UNL     1      18.204   7.045   3.674  0.00  0.00    +0.150 HD
ATOM     40  H   UNL     1      12.569   7.235   6.503  0.00  0.00    +0.156 HD
ENDROOT
BRANCH  10  30
ATOM     30  C   UNL     1      10.640   7.161   5.780  0.00  0.00    +0.035 A 
ATOM     31  C   UNL     1      10.497   5.846   5.333  0.00  0.00    +0.023 A 
ATOM     32  C   UNL     1       9.512   7.908   6.117  0.00  0.00    +0.023 A 
ATOM     33  C   UNL     1       9.226   5.281   5.225  0.00  0.00    +0.002 A 
ATOM     34  C   UNL     1       8.242   7.343   6.010  0.00  0.00    +0.002 A 
ATOM     35  C   UNL     1       8.099   6.029   5.564  0.00  0.00    +0.000 A 
ENDBRANCH  10  30
BRANCH  19  21
ATOM      1  O   UNL     1      16.215   7.624   2.126  0.00  0.00    -0.274 OA
ATOM      5  N   UNL     1      14.660   6.202   3.116  0.00  0.00    -0.302 N 
ATOM     21  C   UNL     1      15.652   7.169   3.119  0.00  0.00    +0.236 C 
ATOM     36  H   UNL     1      14.210   5.957   3.993  0.00  0.00    +0.150 HD
BRANCH   5  18
ATOM     18  C   UNL     1      14.151   5.595   1.908  0.00  0.00    +0.159 C 
BRANCH  18  24
ATOM      2  O   UNL     1      15.770   4.717   0.322  0.00  0.00    -0.274 OA
ATOM      8  N   UNL     1      15.356   3.522   2.238  0.00  0.00    -0.328 N 
ATOM     24  C   UNL     1      15.179   4.596   1.393  0.00  0.00    +0.231 C 
ATOM     37  H   UNL     1      14.846   3.424   3.111  0.00  0.00    +0.145 HD
ATOM     38  H   UNL     1      16.008   2.779   2.007  0.00  0.00    +0.145 HD
ENDBRANCH  18  24
BRANCH  18  14
ATOM     14  C   UNL     1      13.758   6.637   0.856  0.00  0.00    +0.035 C 
BRANCH  14  11
ATOM     11  C   UNL     1      12.276   7.008   0.864  0.00  0.00    -0.009 C 
ATOM     12  C   UNL     1      12.056   8.342   1.590  0.00  0.00    +0.003 C 
ATOM     13  C   UNL     1      11.442   5.892   1.507  0.00  0.00    +0.003 C 
ATOM     15  C   UNL     1      10.575   8.708   1.657  0.00  0.00    +0.000 C 
ATOM     16  C   UNL     1       9.962   6.262   1.576  0.00  0.00    +0.000 C 
ATOM     17  C   UNL     1       9.748   7.594   2.289  0.00  0.00    +0.000 C 
ENDBRANCH  14  11
ENDBRANCH  18  14
ENDBRANCH   5  18
ENDBRANCH  19  21
BRANCH   9  27
ATOM     27  C   UNL     1      20.136   7.872   3.514  0.00  0.00    +0.068 C 
ATOM     28  C   UNL     1      20.354   7.673   2.019  0.00  0.00    +0.027 C 
ATOM     29  C   UNL     1      20.832   6.786   4.324  0.00  0.00    +0.027 C 
ENDBRANCH   9  27
TORSDOF 7
ENDMDL
MODEL 8
REMARK VINA RESULT:      -6.3     30.100     34.531
REMARK  Name = 11887601
REMARK  9 active torsions:
REMARK  status: ('A' for Active; 'I' for Inactive)
REMARK    1  A    between atoms: N_5  and  C_18
REMARK    2  A    between atoms: N_9  and  C_27
REMARK    3  A    between atoms: N_10  and  C_30
REMARK    4  A    between atoms: C_11  and  C_14
REMARK    5  A    between atoms: C_14  and  C_18
REMARK    6  A    between atoms: C_18  and  C_24
REMARK    7  A    between atoms: C_19  and  C_21
REMARK    8  A    between atoms: C_27  and  C_28
REMARK    9  A    between atoms: C_27  and  C_29
REMARK                            x       y       z     vdW  Elec       q    Type
REMARK                         _______ _______ _______ _____ _____    ______ ____
ROOT
ATOM      3  O   UNL     1      19.077   9.999   5.107  0.00  0.00    -0.253 OA
ATOM      4  O   UNL     1      12.253   9.988   6.411  0.00  0.00    -0.252 OA
ATOM      6  N   UNL     1      17.052   8.873   5.274  0.00  0.00    -0.271 N 
ATOM      7  N   UNL     1      14.246   8.853   6.109  0.00  0.00    -0.282 N 
ATOM      9  N   UNL     1      18.960   7.835   4.338  0.00  0.00    -0.297 N 
ATOM     10  N   UNL     1      12.351   7.723   6.939  0.00  0.00    -0.269 N 
ATOM     19  C   UNL     1      16.259   7.638   5.207  0.00  0.00    +0.181 C 
ATOM     20  C   UNL     1      15.057   7.627   6.158  0.00  0.00    +0.141 C 
ATOM     22  C   UNL     1      16.408  10.036   5.888  0.00  0.00    +0.129 C 
ATOM     23  C   UNL     1      14.909  10.067   5.637  0.00  0.00    +0.128 C 
ATOM     25  C   UNL     1      18.414   8.975   4.920  0.00  0.00    +0.303 C 
ATOM     26  C   UNL     1      12.882   8.929   6.479  0.00  0.00    +0.307 C 
ATOM     39  H   UNL     1      18.361   7.061   4.078  0.00  0.00    +0.150 HD
ATOM     40  H   UNL     1      12.988   7.067   7.384  0.00  0.00    +0.156 HD
ENDROOT
BRANCH  10  30
ATOM     30  C   UNL     1      11.011   7.273   6.836  0.00  0.00    +0.035 A 
ATOM     31  C   UNL     1      10.042   7.763   7.713  0.00  0.00    +0.023 A 
ATOM     32  C   UNL     1      10.661   6.342   5.859  0.00  0.00    +0.023 A 
ATOM     33  C   UNL     1       8.723   7.321   7.610  0.00  0.00    +0.002 A 
ATOM     34  C   UNL     1       9.342   5.901   5.756  0.00  0.00    +0.002 A 
ATOM     35  C   UNL     1       8.373   6.391   6.632  0.00  0.00    +0.000 A 
ENDBRANCH  10  30
BRANCH  19  21
ATOM      1  O   UNL     1      15.972   8.342   2.941  0.00  0.00    -0.274 OA
ATOM      5  N   UNL     1      15.148   6.263   3.587  0.00  0.00    -0.302 N 
ATOM     21  C   UNL     1      15.794   7.471   3.789  0.00  0.00    +0.236 C 
ATOM     36  H   UNL     1      14.990   5.651   4.382  0.00  0.00    +0.150 HD
BRANCH   5  18
ATOM     18  C   UNL     1      14.586   5.870   2.316  0.00  0.00    +0.159 C 
BRANCH  18  24
ATOM      2  O   UNL     1      12.786   7.402   1.754  0.00  0.00    -0.274 OA
ATOM      8  N   UNL     1      12.263   5.455   2.853  0.00  0.00    -0.328 N 
ATOM     24  C   UNL     1      13.138   6.337   2.256  0.00  0.00    +0.231 C 
ATOM     37  H   UNL     1      12.570   4.588   3.283  0.00  0.00    +0.145 HD
ATOM     38  H   UNL     1      11.268   5.653   2.889  0.00  0.00    +0.145 HD
ENDBRANCH  18  24
BRANCH  18  14
ATOM     14  C   UNL     1      14.735   4.367   2.056  0.00  0.00    +0.035 C 
BRANCH  14  11
ATOM     11  C   UNL     1      14.902   3.999   0.583  0.00  0.00    -0.009 C 
ATOM     12  C   UNL     1      15.795   5.022  -0.132  0.00  0.00    +0.003 C 
ATOM     13  C   UNL     1      13.535   3.891  -0.106  0.00  0.00    +0.003 C 
ATOM     15  C   UNL     1      15.934   4.704  -1.620  0.00  0.00    +0.000 C 
ATOM     16  C   UNL     1      13.677   3.576  -1.594  0.00  0.00    +0.000 C 
ATOM     17  C   UNL     1      14.574   4.589  -2.300  0.00  0.00    +0.000 C 
ENDBRANCH  14  11
ENDBRANCH  18  14
ENDBRANCH   5  18
ENDBRANCH  19  21
BRANCH   9  27
ATOM     27  C   UNL     1      20.339   7.768   3.910  0.00  0.00    +0.068 C 
ATOM     28  C   UNL     1      20.420   7.702   2.390  0.00  0.00    +0.027 C 
ATOM     29  C   UNL     1      21.041   6.578   4.553  0.00  0.00    +0.027 C 
ENDBRANCH   9  27
TORSDOF 7
ENDMDL
MODEL 9
REMARK VINA RESULT:      -6.0     21.638     24.839
REMARK  Name = 11887601
REMARK  9 active torsions:
REMARK  status: ('A' for Active; 'I' for Inactive)
REMARK    1  A    between atoms: N_5  and  C_18
REMARK    2  A    between atoms: N_9  and  C_27
REMARK    3  A    between atoms: N_10  and  C_30
REMARK    4  A    between atoms: C_11  and  C_14
REMARK    5  A    between atoms: C_14  and  C_18
REMARK    6  A    between atoms: C_18  and  C_24
REMARK    7  A    between atoms: C_19  and  C_21
REMARK    8  A    between atoms: C_27  and  C_28
REMARK    9  A    between atoms: C_27  and  C_29
REMARK                            x       y       z     vdW  Elec       q    Type
REMARK                         _______ _______ _______ _____ _____    ______ ____
ROOT
ATOM      3  O   UNL     1       4.562 -13.404  36.156  0.00  0.00    -0.253 OA
ATOM      4  O   UNL     1       6.268  -7.705  39.744  0.00  0.00    -0.252 OA
ATOM      6  N   UNL     1       4.798 -11.097  36.295  0.00  0.00    -0.271 N 
ATOM      7  N   UNL     1       5.249  -8.708  37.927  0.00  0.00    -0.282 N 
ATOM      9  N   UNL     1       4.373 -12.165  34.228  0.00  0.00    -0.297 N 
ATOM     10  N   UNL     1       4.887  -6.423  38.377  0.00  0.00    -0.269 N 
ATOM     19  C   UNL     1       4.681  -9.755  35.707  0.00  0.00    +0.181 C 
ATOM     20  C   UNL     1       4.386  -8.658  36.735  0.00  0.00    +0.141 C 
ATOM     22  C   UNL     1       5.023 -11.165  37.740  0.00  0.00    +0.129 C 
ATOM     23  C   UNL     1       5.853  -9.999  38.253  0.00  0.00    +0.128 C 
ATOM     25  C   UNL     1       4.575 -12.303  35.598  0.00  0.00    +0.303 C 
ATOM     26  C   UNL     1       5.531  -7.600  38.760  0.00  0.00    +0.307 C 
ATOM     39  H   UNL     1       4.519 -11.268  33.781  0.00  0.00    +0.150 HD
ATOM     40  H   UNL     1       4.000  -6.509  37.889  0.00  0.00    +0.156 HD
ENDROOT
BRANCH  10  30
ATOM     30  C   UNL     1       5.338  -5.092  38.561  0.00  0.00    +0.035 A 
ATOM     31  C   UNL     1       6.273  -4.545  37.682  0.00  0.00    +0.023 A 
ATOM     32  C   UNL     1       4.848  -4.329  39.621  0.00  0.00    +0.023 A 
ATOM     33  C   UNL     1       6.717  -3.235  37.862  0.00  0.00    +0.002 A 
ATOM     34  C   UNL     1       5.291  -3.019  39.801  0.00  0.00    +0.002 A 
ATOM     35  C   UNL     1       6.226  -2.472  38.921  0.00  0.00    +0.000 A 
ENDBRANCH  10  30
BRANCH  19  21
ATOM      1  O   UNL     1       6.911 -10.244  34.998  0.00  0.00    -0.274 OA
ATOM      5  N   UNL     1       5.948  -8.220  34.371  0.00  0.00    -0.302 N 
ATOM     21  C   UNL     1       5.967  -9.458  34.991  0.00  0.00    +0.236 C 
ATOM     36  H   UNL     1       5.138  -7.619  34.497  0.00  0.00    +0.150 HD
BRANCH   5  18
ATOM     18  C   UNL     1       7.071  -7.687  33.635  0.00  0.00    +0.159 C 
BRANCH  18  24
ATOM      2  O   UNL     1       8.225  -6.156  35.126  0.00  0.00    -0.274 OA
ATOM      8  N   UNL     1       6.736  -5.291  33.607  0.00  0.00    -0.328 N 
ATOM     24  C   UNL     1       7.427  -6.322  34.207  0.00  0.00    +0.231 C 
ATOM     37  H   UNL     1       6.064  -5.444  32.862  0.00  0.00    +0.145 HD
ATOM     38  H   UNL     1       6.875  -4.330  33.903  0.00  0.00    +0.145 HD
ENDBRANCH  18  24
BRANCH  18  14
ATOM     14  C   UNL     1       6.808  -7.648  32.126  0.00  0.00    +0.035 C 
BRANCH  14  11
ATOM     11  C   UNL     1       7.530  -8.737  31.335  0.00  0.00    -0.009 C 
ATOM     12  C   UNL     1       6.524  -9.733  30.743  0.00  0.00    +0.003 C 
ATOM     13  C   UNL     1       8.558  -9.457  32.218  0.00  0.00    +0.003 C 
ATOM     15  C   UNL     1       7.226 -10.862  29.991  0.00  0.00    +0.000 C 
ATOM     16  C   UNL     1       9.256 -10.587  31.464  0.00  0.00    +0.000 C 
ATOM     17  C   UNL     1       8.253 -11.570  30.870  0.00  0.00    +0.000 C 
ENDBRANCH  14  11
ENDBRANCH  18  14
ENDBRANCH   5  18
ENDBRANCH  19  21
BRANCH   9  27
ATOM     27  C   UNL     1       4.134 -13.298  33.361  0.00  0.00    +0.068 C 
ATOM     28  C   UNL     1       5.087 -13.265  32.174  0.00  0.00    +0.027 C 
ATOM     29  C   UNL     1       2.681 -13.324  32.905  0.00  0.00    +0.027 C 
ENDBRANCH   9  27
TORSDOF 7
ENDMDL
MODEL 10
REMARK VINA RESULT:      -6.0     30.033     34.394
REMARK  Name = 11887601
REMARK  9 active torsions:
REMARK  status: ('A' for Active; 'I' for Inactive)
REMARK    1  A    between atoms: N_5  and  C_18
REMARK    2  A    between atoms: N_9  and  C_27
REMARK    3  A    between atoms: N_10  and  C_30
REMARK    4  A    between atoms: C_11  and  C_14
REMARK    5  A    between atoms: C_14  and  C_18
REMARK    6  A    between atoms: C_18  and  C_24
REMARK    7  A    between atoms: C_19  and  C_21
REMARK    8  A    between atoms: C_27  and  C_28
REMARK    9  A    between atoms: C_27  and  C_29
REMARK                            x       y       z     vdW  Elec       q    Type
REMARK                         _______ _______ _______ _____ _____    ______ ____
ROOT
ATOM      3  O   UNL     1      19.322   9.385   5.255  0.00  0.00    -0.253 OA
ATOM      4  O   UNL     1      12.629   9.418   7.116  0.00  0.00    -0.252 OA
ATOM      6  N   UNL     1      17.156   8.576   5.028  0.00  0.00    -0.271 N 
ATOM      7  N   UNL     1      14.412   8.416   6.037  0.00  0.00    -0.282 N 
ATOM      9  N   UNL     1      18.847   8.007   3.476  0.00  0.00    -0.297 N 
ATOM     10  N   UNL     1      12.398   7.232   6.351  0.00  0.00    -0.269 N 
ATOM     19  C   UNL     1      16.181   7.668   4.408  0.00  0.00    +0.181 C 
ATOM     20  C   UNL     1      15.028   7.278   5.337  0.00  0.00    +0.141 C 
ATOM     22  C   UNL     1      16.720   9.286   6.233  0.00  0.00    +0.129 C 
ATOM     23  C   UNL     1      15.235   9.612   6.207  0.00  0.00    +0.128 C 
ATOM     25  C   UNL     1      18.503   8.703   4.631  0.00  0.00    +0.303 C 
ATOM     26  C   UNL     1      13.090   8.429   6.542  0.00  0.00    +0.307 C 
ATOM     39  H   UNL     1      18.128   7.566   2.916  0.00  0.00    +0.150 HD
ATOM     40  H   UNL     1      12.942   6.375   6.306  0.00  0.00    +0.156 HD
ENDROOT
BRANCH  10  30
ATOM     30  C   UNL     1      11.003   7.060   6.178  0.00  0.00    +0.035 A 
ATOM     31  C   UNL     1      10.495   6.691   4.931  0.00  0.00    +0.023 A 
ATOM     32  C   UNL     1      10.136   7.259   7.252  0.00  0.00    +0.023 A 
ATOM     33  C   UNL     1       9.121   6.521   4.760  0.00  0.00    +0.002 A 
ATOM     34  C   UNL     1       8.762   7.088   7.081  0.00  0.00    +0.002 A 
ATOM     35  C   UNL     1       8.255   6.719   5.835  0.00  0.00    +0.000 A 
ENDBRANCH  10  30
BRANCH  19  21
ATOM      1  O   UNL     1      16.244   9.269   2.634  0.00  0.00    -0.274 OA
ATOM      5  N   UNL     1      14.428   7.822   2.781  0.00  0.00    -0.302 N 
ATOM     21  C   UNL     1      15.645   8.346   3.179  0.00  0.00    +0.236 C 
ATOM     36  H   UNL     1      13.987   7.108   3.355  0.00  0.00    +0.150 HD
BRANCH   5  18
ATOM     18  C   UNL     1      13.690   8.314   1.640  0.00  0.00    +0.159 C 
BRANCH  18  24
ATOM      2  O   UNL     1      12.907  10.611   1.510  0.00  0.00    -0.274 OA
ATOM      8  N   UNL     1      12.093   9.270   3.186  0.00  0.00    -0.328 N 
ATOM     24  C   UNL     1      12.867   9.520   2.073  0.00  0.00    +0.231 C 
ATOM     37  H   UNL     1      12.084   8.370   3.655  0.00  0.00    +0.145 HD
ATOM     38  H   UNL     1      11.502   9.994   3.583  0.00  0.00    +0.145 HD
ENDBRANCH  18  24
BRANCH  18  14
ATOM     14  C   UNL     1      12.841   7.221   0.984  0.00  0.00    +0.035 C 
BRANCH  14  11
ATOM     11  C   UNL     1      12.962   5.850   1.647  0.00  0.00    -0.009 C 
ATOM     12  C   UNL     1      13.957   4.966   0.882  0.00  0.00    +0.003 C 
ATOM     13  C   UNL     1      11.590   5.170   1.743  0.00  0.00    +0.003 C 
ATOM     15  C   UNL     1      14.057   3.571   1.495  0.00  0.00    +0.000 C 
ATOM     16  C   UNL     1      11.693   3.775   2.354  0.00  0.00    +0.000 C 
ATOM     17  C   UNL     1      12.690   2.902   1.597  0.00  0.00    +0.000 C 
ENDBRANCH  14  11
ENDBRANCH  18  14
ENDBRANCH   5  18
ENDBRANCH  19  21
BRANCH   9  27
ATOM     27  C   UNL     1      20.184   8.030   2.925  0.00  0.00    +0.068 C 
ATOM     28  C   UNL     1      20.136   7.850   1.413  0.00  0.00    +0.027 C 
ATOM     29  C   UNL     1      21.052   6.965   3.582  0.00  0.00    +0.027 C 
ENDBRANCH   9  27
TORSDOF 7
ENDMDL
