MODEL 1
REMARK VINA RESULT:      -6.3      0.000      0.000
REMARK  Name = 45783275
REMARK  7 active torsions:
REMARK  status: ('A' for Active; 'I' for Inactive)
REMARK    1  A    between atoms: O_2  and  C_21
REMARK    2  A    between atoms: O_2  and  C_22
REMARK    3  A    between atoms: N_3  and  C_13
REMARK    4  A    between atoms: N_6  and  C_19
REMARK    5  A    between atoms: C_8  and  C_12
REMARK    6  A    between atoms: C_14  and  C_15
REMARK    7  A    between atoms: C_19  and  C_21
REMARK                            x       y       z     vdW  Elec       q    Type
REMARK                         _______ _______ _______ _____ _____    ______ ____
ROOT
ATOM      6  N   UNL     1      -8.369  -9.448  18.069  0.00  0.00    -0.327 N 
ATOM      7  N   UNL     1      -6.731 -10.607  19.354  0.00  0.00    -0.240 NA
ATOM     15  C   UNL     1      -5.043 -10.655  17.126  0.00  0.00    +0.027 A 
ATOM     16  C   UNL     1      -6.297 -10.059  17.040  0.00  0.00    +0.055 A 
ATOM     17  C   UNL     1      -4.633 -11.227  18.325  0.00  0.00    +0.031 A 
ATOM     18  C   UNL     1      -7.095 -10.062  18.172  0.00  0.00    +0.119 A 
ATOM     20  C   UNL     1      -5.506 -11.178  19.400  0.00  0.00    +0.113 A 
ATOM     23  H   UNL     1      -8.944  -9.460  18.903  0.00  0.00    +0.148 HD
ENDROOT
BRANCH  15  14
ATOM      1  O   UNL     1      -2.435 -10.657  14.748  0.00  0.00    -0.336 OA
ATOM      4  N   UNL     1      -4.670 -10.796  14.715  0.00  0.00    -0.190 NA
ATOM      5  N   UNL     1      -2.849 -10.593  16.084  0.00  0.00    -0.056 NA
ATOM     12  C   UNL     1      -3.567 -10.776  14.008  0.00  0.00    +0.245 A 
ATOM     14  C   UNL     1      -4.178 -10.681  15.982  0.00  0.00    +0.202 A 
BRANCH  12   8
ATOM      3  N   UNL     1      -4.182  -9.858  11.779  0.00  0.00    -0.294 NA
ATOM      8  C   UNL     1      -3.387 -10.866  12.508  0.00  0.00    +0.146 C 
ATOM      9  C   UNL     1      -1.934 -10.612  12.066  0.00  0.00    +0.030 C 
ATOM     10  C   UNL     1      -2.020  -9.485  11.046  0.00  0.00    +0.017 C 
ATOM     11  C   UNL     1      -3.449  -9.563  10.548  0.00  0.00    +0.085 C 
ATOM     13  C   UNL     1      -5.550 -10.286  11.513  0.00  0.00    +0.105 C 
ENDBRANCH  12   8
ENDBRANCH  15  14
BRANCH   6  19
ATOM     19  C   UNL     1      -8.838  -8.846  16.865  0.00  0.00    +0.131 C 
BRANCH  19  21
ATOM     21  C   UNL     1      -9.932  -7.840  17.178  0.00  0.00    +0.178 C 
BRANCH  21   2
ATOM      2  O   UNL     1     -10.110  -6.970  16.067  0.00  0.00    -0.381 OA
ATOM     22  C   UNL     1     -11.241  -6.129  16.239  0.00  0.00    +0.194 C 
ENDBRANCH  21   2
ENDBRANCH  19  21
ENDBRANCH   6  19
TORSDOF 5
ENDMDL
MODEL 2
REMARK VINA RESULT:      -6.1      1.240      1.421
REMARK  Name = 45783275
REMARK  7 active torsions:
REMARK  status: ('A' for Active; 'I' for Inactive)
REMARK    1  A    between atoms: O_2  and  C_21
REMARK    2  A    between atoms: O_2  and  C_22
REMARK    3  A    between atoms: N_3  and  C_13
REMARK    4  A    between atoms: N_6  and  C_19
REMARK    5  A    between atoms: C_8  and  C_12
REMARK    6  A    between atoms: C_14  and  C_15
REMARK    7  A    between atoms: C_19  and  C_21
REMARK                            x       y       z     vdW  Elec       q    Type
REMARK                         _______ _______ _______ _____ _____    ______ ____
ROOT
ATOM      6  N   UNL     1      -7.556  -9.746  18.149  0.00  0.00    -0.327 N 
ATOM      7  N   UNL     1      -6.062 -11.062  19.459  0.00  0.00    -0.240 NA
ATOM     15  C   UNL     1      -4.245 -11.081  17.334  0.00  0.00    +0.027 A 
ATOM     16  C   UNL     1      -5.459 -10.413  17.210  0.00  0.00    +0.055 A 
ATOM     17  C   UNL     1      -3.940 -11.739  18.520  0.00  0.00    +0.031 A 
ATOM     18  C   UNL     1      -6.324 -10.433  18.292  0.00  0.00    +0.119 A 
ATOM     20  C   UNL     1      -4.873 -11.700  19.544  0.00  0.00    +0.113 A 
ATOM     23  H   UNL     1      -8.181  -9.771  18.947  0.00  0.00    +0.148 HD
ENDROOT
BRANCH  15  14
ATOM      1  O   UNL     1      -1.521 -10.915  15.097  0.00  0.00    -0.336 OA
ATOM      4  N   UNL     1      -3.695 -11.437  14.980  0.00  0.00    -0.190 NA
ATOM      5  N   UNL     1      -2.027 -10.767  16.394  0.00  0.00    -0.056 NA
ATOM     12  C   UNL     1      -2.567 -11.312  14.328  0.00  0.00    +0.245 A 
ATOM     14  C   UNL     1      -3.314 -11.092  16.243  0.00  0.00    +0.202 A 
BRANCH  12   8
ATOM      3  N   UNL     1      -3.444 -12.071  12.126  0.00  0.00    -0.294 NA
ATOM      8  C   UNL     1      -2.276 -11.545  12.860  0.00  0.00    +0.146 C 
ATOM      9  C   UNL     1      -1.897 -10.252  12.115  0.00  0.00    +0.030 C 
ATOM     10  C   UNL     1      -2.867 -10.167  10.946  0.00  0.00    +0.017 C 
ATOM     11  C   UNL     1      -3.312 -11.602  10.747  0.00  0.00    +0.085 C 
ATOM     13  C   UNL     1      -3.565 -13.522  12.202  0.00  0.00    +0.105 C 
ENDBRANCH  12   8
ENDBRANCH  15  14
BRANCH   6  19
ATOM     19  C   UNL     1      -7.918  -9.054  16.956  0.00  0.00    +0.131 C 
BRANCH  19  21
ATOM     21  C   UNL     1      -9.430  -8.941  16.859  0.00  0.00    +0.178 C 
BRANCH  21   2
ATOM      2  O   UNL     1      -9.824  -7.601  17.126  0.00  0.00    -0.381 OA
ATOM     22  C   UNL     1     -10.345  -6.969  15.966  0.00  0.00    +0.194 C 
ENDBRANCH  21   2
ENDBRANCH  19  21
ENDBRANCH   6  19
TORSDOF 5
ENDMDL
MODEL 3
REMARK VINA RESULT:      -5.9     26.530     28.150
REMARK  Name = 45783275
REMARK  7 active torsions:
REMARK  status: ('A' for Active; 'I' for Inactive)
REMARK    1  A    between atoms: O_2  and  C_21
REMARK    2  A    between atoms: O_2  and  C_22
REMARK    3  A    between atoms: N_3  and  C_13
REMARK    4  A    between atoms: N_6  and  C_19
REMARK    5  A    between atoms: C_8  and  C_12
REMARK    6  A    between atoms: C_14  and  C_15
REMARK    7  A    between atoms: C_19  and  C_21
REMARK                            x       y       z     vdW  Elec       q    Type
REMARK                         _______ _______ _______ _____ _____    ______ ____
ROOT
ATOM      6  N   UNL     1      12.337   8.190  17.733  0.00  0.00    -0.327 N 
ATOM      7  N   UNL     1      12.074   6.733  19.599  0.00  0.00    -0.240 NA
ATOM     15  C   UNL     1      11.568   8.946  21.232  0.00  0.00    +0.027 A 
ATOM     16  C   UNL     1      11.830   9.122  19.877  0.00  0.00    +0.055 A 
ATOM     17  C   UNL     1      11.559   7.664  21.771  0.00  0.00    +0.031 A 
ATOM     18  C   UNL     1      12.074   7.994  19.112  0.00  0.00    +0.119 A 
ATOM     20  C   UNL     1      11.816   6.600  20.920  0.00  0.00    +0.113 A 
ATOM     23  H   UNL     1      12.517   7.357  17.185  0.00  0.00    +0.148 HD
ENDROOT
BRANCH  15  14
ATOM      1  O   UNL     1      10.702  11.301  23.714  0.00  0.00    -0.336 OA
ATOM      4  N   UNL     1      11.612  11.350  21.668  0.00  0.00    -0.190 NA
ATOM      5  N   UNL     1      10.763   9.969  23.283  0.00  0.00    -0.056 NA
ATOM     12  C   UNL     1      11.221  12.047  22.706  0.00  0.00    +0.245 A 
ATOM     14  C   UNL     1      11.311  10.082  22.069  0.00  0.00    +0.202 A 
BRANCH  12   8
ATOM      3  N   UNL     1       9.935  14.172  22.851  0.00  0.00    -0.294 NA
ATOM      8  C   UNL     1      11.269  13.544  22.929  0.00  0.00    +0.146 C 
ATOM      9  C   UNL     1      11.797  13.921  24.326  0.00  0.00    +0.030 C 
ATOM     10  C   UNL     1      10.720  14.809  24.933  0.00  0.00    +0.017 C 
ATOM     11  C   UNL     1       9.978  15.345  23.725  0.00  0.00    +0.085 C 
ATOM     13  C   UNL     1       9.540  14.516  21.491  0.00  0.00    +0.105 C 
ENDBRANCH  12   8
ENDBRANCH  15  14
BRANCH   6  19
ATOM     19  C   UNL     1      12.356   9.482  17.129  0.00  0.00    +0.131 C 
BRANCH  19  21
ATOM     21  C   UNL     1      12.454   9.349  15.619  0.00  0.00    +0.178 C 
BRANCH  21   2
ATOM      2  O   UNL     1      13.253  10.405  15.100  0.00  0.00    -0.381 OA
ATOM     22  C   UNL     1      14.626  10.223  15.416  0.00  0.00    +0.194 C 
ENDBRANCH  21   2
ENDBRANCH  19  21
ENDBRANCH   6  19
TORSDOF 5
ENDMDL
MODEL 4
REMARK VINA RESULT:      -5.7      2.151      6.873
REMARK  Name = 45783275
REMARK  7 active torsions:
REMARK  status: ('A' for Active; 'I' for Inactive)
REMARK    1  A    between atoms: O_2  and  C_21
REMARK    2  A    between atoms: O_2  and  C_22
REMARK    3  A    between atoms: N_3  and  C_13
REMARK    4  A    between atoms: N_6  and  C_19
REMARK    5  A    between atoms: C_8  and  C_12
REMARK    6  A    between atoms: C_14  and  C_15
REMARK    7  A    between atoms: C_19  and  C_21
REMARK                            x       y       z     vdW  Elec       q    Type
REMARK                         _______ _______ _______ _____ _____    ______ ____
ROOT
ATOM      6  N   UNL     1      -2.966 -11.370  16.613  0.00  0.00    -0.327 N 
ATOM      7  N   UNL     1      -3.748 -11.831  18.816  0.00  0.00    -0.240 NA
ATOM     15  C   UNL     1      -6.218 -10.697  18.157  0.00  0.00    +0.027 A 
ATOM     16  C   UNL     1      -5.198 -10.749  17.212  0.00  0.00    +0.055 A 
ATOM     17  C   UNL     1      -6.003 -11.210  19.432  0.00  0.00    +0.031 A 
ATOM     18  C   UNL     1      -3.994 -11.322  17.589  0.00  0.00    +0.119 A 
ATOM     20  C   UNL     1      -4.762 -11.762  19.709  0.00  0.00    +0.113 A 
ATOM     23  H   UNL     1      -2.089 -11.787  16.902  0.00  0.00    +0.148 HD
ENDROOT
BRANCH  15  14
ATOM      1  O   UNL     1      -9.557  -9.601  17.834  0.00  0.00    -0.336 OA
ATOM      4  N   UNL     1      -7.620  -9.260  16.764  0.00  0.00    -0.190 NA
ATOM      5  N   UNL     1      -8.598 -10.367  18.511  0.00  0.00    -0.056 NA
ATOM     12  C   UNL     1      -8.898  -8.982  16.821  0.00  0.00    +0.245 A 
ATOM     14  C   UNL     1      -7.483 -10.113  17.819  0.00  0.00    +0.202 A 
BRANCH  12   8
ATOM      3  N   UNL     1     -10.665  -8.836  15.075  0.00  0.00    -0.294 NA
ATOM      8  C   UNL     1      -9.725  -8.081  15.929  0.00  0.00    +0.146 C 
ATOM      9  C   UNL     1     -10.616  -7.109  16.725  0.00  0.00    +0.030 C 
ATOM     10  C   UNL     1     -12.028  -7.348  16.209  0.00  0.00    +0.017 C 
ATOM     11  C   UNL     1     -11.808  -7.954  14.837  0.00  0.00    +0.085 C 
ATOM     13  C   UNL     1     -10.064  -9.303  13.832  0.00  0.00    +0.105 C 
ENDBRANCH  12   8
ENDBRANCH  15  14
BRANCH   6  19
ATOM     19  C   UNL     1      -3.134 -10.859  15.292  0.00  0.00    +0.131 C 
BRANCH  19  21
ATOM     21  C   UNL     1      -1.796 -10.397  14.739  0.00  0.00    +0.178 C 
BRANCH  21   2
ATOM      2  O   UNL     1      -1.846 -10.395  13.318  0.00  0.00    -0.381 OA
ATOM     22  C   UNL     1      -2.084 -11.697  12.802  0.00  0.00    +0.194 C 
ENDBRANCH  21   2
ENDBRANCH  19  21
ENDBRANCH   6  19
TORSDOF 5
ENDMDL
MODEL 5
REMARK VINA RESULT:      -5.5     27.820     29.870
REMARK  Name = 45783275
REMARK  7 active torsions:
REMARK  status: ('A' for Active; 'I' for Inactive)
REMARK    1  A    between atoms: O_2  and  C_21
REMARK    2  A    between atoms: O_2  and  C_22
REMARK    3  A    between atoms: N_3  and  C_13
REMARK    4  A    between atoms: N_6  and  C_19
REMARK    5  A    between atoms: C_8  and  C_12
REMARK    6  A    between atoms: C_14  and  C_15
REMARK    7  A    between atoms: C_19  and  C_21
REMARK                            x       y       z     vdW  Elec       q    Type
REMARK                         _______ _______ _______ _____ _____    ______ ____
ROOT
ATOM      6  N   UNL     1      21.229   7.165  23.221  0.00  0.00    -0.327 N 
ATOM      7  N   UNL     1      21.603   5.353  21.719  0.00  0.00    -0.240 NA
ATOM     15  C   UNL     1      19.108   5.833  20.550  0.00  0.00    +0.027 A 
ATOM     16  C   UNL     1      19.550   6.625  21.605  0.00  0.00    +0.055 A 
ATOM     17  C   UNL     1      19.913   4.801  20.080  0.00  0.00    +0.031 A 
ATOM     18  C   UNL     1      20.793   6.347  22.149  0.00  0.00    +0.119 A 
ATOM     20  C   UNL     1      21.140   4.604  20.693  0.00  0.00    +0.113 A 
ATOM     23  H   UNL     1      22.139   6.948  23.613  0.00  0.00    +0.148 HD
ENDROOT
BRANCH  15  14
ATOM      1  O   UNL     1      16.158   6.017  18.622  0.00  0.00    -0.336 OA
ATOM      4  N   UNL     1      16.929   6.937  20.512  0.00  0.00    -0.190 NA
ATOM      5  N   UNL     1      17.440   5.487  18.819  0.00  0.00    -0.056 NA
ATOM     12  C   UNL     1      15.935   6.860  19.663  0.00  0.00    +0.245 A 
ATOM     14  C   UNL     1      17.828   6.078  19.952  0.00  0.00    +0.202 A 
BRANCH  12   8
ATOM      3  N   UNL     1      13.895   7.492  18.386  0.00  0.00    -0.294 NA
ATOM      8  C   UNL     1      14.598   7.568  19.683  0.00  0.00    +0.146 C 
ATOM      9  C   UNL     1      13.613   6.955  20.696  0.00  0.00    +0.030 C 
ATOM     10  C   UNL     1      12.367   6.621  19.889  0.00  0.00    +0.017 C 
ATOM     11  C   UNL     1      12.465   7.538  18.686  0.00  0.00    +0.085 C 
ATOM     13  C   UNL     1      14.294   8.540  17.454  0.00  0.00    +0.105 C 
ENDBRANCH  12   8
ENDBRANCH  15  14
BRANCH   6  19
ATOM     19  C   UNL     1      20.445   8.236  23.741  0.00  0.00    +0.131 C 
BRANCH  19  21
ATOM     21  C   UNL     1      21.293   9.492  23.858  0.00  0.00    +0.178 C 
BRANCH  21   2
ATOM      2  O   UNL     1      20.864  10.446  22.895  0.00  0.00    -0.381 OA
ATOM     22  C   UNL     1      19.478  10.312  22.610  0.00  0.00    +0.194 C 
ENDBRANCH  21   2
ENDBRANCH  19  21
ENDBRANCH   6  19
TORSDOF 5
ENDMDL
MODEL 6
REMARK VINA RESULT:      -5.5      1.856      2.604
REMARK  Name = 45783275
REMARK  7 active torsions:
REMARK  status: ('A' for Active; 'I' for Inactive)
REMARK    1  A    between atoms: O_2  and  C_21
REMARK    2  A    between atoms: O_2  and  C_22
REMARK    3  A    between atoms: N_3  and  C_13
REMARK    4  A    between atoms: N_6  and  C_19
REMARK    5  A    between atoms: C_8  and  C_12
REMARK    6  A    between atoms: C_14  and  C_15
REMARK    7  A    between atoms: C_19  and  C_21
REMARK                            x       y       z     vdW  Elec       q    Type
REMARK                         _______ _______ _______ _____ _____    ______ ____
ROOT
ATOM      6  N   UNL     1      -9.976  -9.237  18.227  0.00  0.00    -0.327 N 
ATOM      7  N   UNL     1      -9.573 -11.267  19.407  0.00  0.00    -0.240 NA
ATOM     15  C   UNL     1      -6.956 -11.299  18.422  0.00  0.00    +0.027 A 
ATOM     16  C   UNL     1      -7.822 -10.266  18.074  0.00  0.00    +0.055 A 
ATOM     17  C   UNL     1      -7.399 -12.315  19.261  0.00  0.00    +0.031 A 
ATOM     18  C   UNL     1      -9.107 -10.297  18.589  0.00  0.00    +0.119 A 
ATOM     20  C   UNL     1      -8.704 -12.254  19.723  0.00  0.00    +0.113 A 
ATOM     23  H   UNL     1     -10.915  -9.273  18.607  0.00  0.00    +0.148 HD
ENDROOT
BRANCH  15  14
ATOM      1  O   UNL     1      -3.483 -11.262  17.798  0.00  0.00    -0.336 OA
ATOM      4  N   UNL     1      -5.354 -11.456  16.583  0.00  0.00    -0.190 NA
ATOM      5  N   UNL     1      -4.546 -11.193  18.707  0.00  0.00    -0.056 NA
ATOM     12  C   UNL     1      -4.046 -11.417  16.572  0.00  0.00    +0.245 A 
ATOM     14  C   UNL     1      -5.615 -11.315  17.915  0.00  0.00    +0.202 A 
BRANCH  12   8
ATOM      3  N   UNL     1      -3.500 -10.670  14.261  0.00  0.00    -0.294 NA
ATOM      8  C   UNL     1      -3.092 -11.519  15.400  0.00  0.00    +0.146 C 
ATOM      9  C   UNL     1      -1.668 -11.048  15.747  0.00  0.00    +0.030 C 
ATOM     10  C   UNL     1      -1.339  -9.978  14.716  0.00  0.00    +0.017 C 
ATOM     11  C   UNL     1      -2.270 -10.296  13.563  0.00  0.00    +0.085 C 
ATOM     13  C   UNL     1      -4.458 -11.319  13.375  0.00  0.00    +0.105 C 
ENDBRANCH  12   8
ENDBRANCH  15  14
BRANCH   6  19
ATOM     19  C   UNL     1      -9.573  -8.170  17.371  0.00  0.00    +0.131 C 
BRANCH  19  21
ATOM     21  C   UNL     1     -10.792  -7.402  16.888  0.00  0.00    +0.178 C 
BRANCH  21   2
ATOM      2  O   UNL     1     -10.511  -6.811  15.626  0.00  0.00    -0.381 OA
ATOM     22  C   UNL     1     -11.452  -5.797  15.303  0.00  0.00    +0.194 C 
ENDBRANCH  21   2
ENDBRANCH  19  21
ENDBRANCH   6  19
TORSDOF 5
ENDMDL
MODEL 7
REMARK VINA RESULT:      -5.5     24.005     25.418
REMARK  Name = 45783275
REMARK  7 active torsions:
REMARK  status: ('A' for Active; 'I' for Inactive)
REMARK    1  A    between atoms: O_2  and  C_21
REMARK    2  A    between atoms: O_2  and  C_22
REMARK    3  A    between atoms: N_3  and  C_13
REMARK    4  A    between atoms: N_6  and  C_19
REMARK    5  A    between atoms: C_8  and  C_12
REMARK    6  A    between atoms: C_14  and  C_15
REMARK    7  A    between atoms: C_19  and  C_21
REMARK                            x       y       z     vdW  Elec       q    Type
REMARK                         _______ _______ _______ _____ _____    ______ ____
ROOT
ATOM      6  N   UNL     1       7.253   9.065   5.019  0.00  0.00    -0.327 N 
ATOM      7  N   UNL     1       8.139   7.772   6.814  0.00  0.00    -0.240 NA
ATOM     15  C   UNL     1       9.555   6.218   4.970  0.00  0.00    +0.027 A 
ATOM     16  C   UNL     1       8.748   7.263   4.530  0.00  0.00    +0.055 A 
ATOM     17  C   UNL     1       9.653   5.950   6.331  0.00  0.00    +0.031 A 
ATOM     18  C   UNL     1       8.068   8.003   5.484  0.00  0.00    +0.119 A 
ATOM     20  C   UNL     1       8.932   6.749   7.204  0.00  0.00    +0.113 A 
ATOM     23  H   UNL     1       6.758   9.596   5.726  0.00  0.00    +0.148 HD
ENDROOT
BRANCH  15  14
ATOM      1  O   UNL     1      11.204   3.760   3.047  0.00  0.00    -0.336 OA
ATOM      4  N   UNL     1      10.831   5.964   2.901  0.00  0.00    -0.190 NA
ATOM      5  N   UNL     1      10.459   4.105   4.183  0.00  0.00    -0.056 NA
ATOM     12  C   UNL     1      11.378   4.911   2.348  0.00  0.00    +0.245 A 
ATOM     14  C   UNL     1      10.279   5.420   4.024  0.00  0.00    +0.202 A 
BRANCH  12   8
ATOM      3  N   UNL     1      12.895   3.526   0.943  0.00  0.00    -0.294 NA
ATOM      8  C   UNL     1      12.163   4.804   1.058  0.00  0.00    +0.146 C 
ATOM      9  C   UNL     1      11.266   4.853  -0.193  0.00  0.00    +0.030 C 
ATOM     10  C   UNL     1      11.605   3.594  -0.977  0.00  0.00    +0.017 C 
ATOM     11  C   UNL     1      12.993   3.232  -0.487  0.00  0.00    +0.085 C 
ATOM     13  C   UNL     1      14.202   3.552   1.588  0.00  0.00    +0.105 C 
ENDBRANCH  12   8
ENDBRANCH  15  14
BRANCH   6  19
ATOM     19  C   UNL     1       7.118   9.384   3.636  0.00  0.00    +0.131 C 
BRANCH  19  21
ATOM     21  C   UNL     1       5.826  10.149   3.402  0.00  0.00    +0.178 C 
BRANCH  21   2
ATOM      2  O   UNL     1       5.342  10.652   4.641  0.00  0.00    -0.381 OA
ATOM     22  C   UNL     1       4.742  11.930   4.485  0.00  0.00    +0.194 C 
ENDBRANCH  21   2
ENDBRANCH  19  21
ENDBRANCH   6  19
TORSDOF 5
ENDMDL
MODEL 8
REMARK VINA RESULT:      -5.4     22.173     25.748
REMARK  Name = 45783275
REMARK  7 active torsions:
REMARK  status: ('A' for Active; 'I' for Inactive)
REMARK    1  A    between atoms: O_2  and  C_21
REMARK    2  A    between atoms: O_2  and  C_22
REMARK    3  A    between atoms: N_3  and  C_13
REMARK    4  A    between atoms: N_6  and  C_19
REMARK    5  A    between atoms: C_8  and  C_12
REMARK    6  A    between atoms: C_14  and  C_15
REMARK    7  A    between atoms: C_19  and  C_21
REMARK                            x       y       z     vdW  Elec       q    Type
REMARK                         _______ _______ _______ _____ _____    ______ ____
ROOT
ATOM      6  N   UNL     1       9.091   6.215   6.518  0.00  0.00    -0.327 N 
ATOM      7  N   UNL     1       8.551   7.598   4.655  0.00  0.00    -0.240 NA
ATOM     15  C   UNL     1      10.035   5.909   2.993  0.00  0.00    +0.027 A 
ATOM     16  C   UNL     1       9.934   5.639   4.354  0.00  0.00    +0.055 A 
ATOM     17  C   UNL     1       9.396   7.024   2.463  0.00  0.00    +0.031 A 
ATOM     18  C   UNL     1       9.187   6.506   5.134  0.00  0.00    +0.119 A 
ATOM     20  C   UNL     1       8.672   7.830   3.328  0.00  0.00    +0.113 A 
ATOM     23  H   UNL     1       8.545   6.859   7.077  0.00  0.00    +0.148 HD
ENDROOT
BRANCH  15  14
ATOM      1  O   UNL     1      12.142   3.530   1.457  0.00  0.00    -0.336 OA
ATOM      4  N   UNL     1      10.721   5.124   0.783  0.00  0.00    -0.190 NA
ATOM      5  N   UNL     1      11.628   4.112   2.623  0.00  0.00    -0.056 NA
ATOM     12  C   UNL     1      11.556   4.183   0.421  0.00  0.00    +0.245 A 
ATOM     14  C   UNL     1      10.799   5.043   2.142  0.00  0.00    +0.202 A 
BRANCH  12   8
ATOM      3  N   UNL     1      11.552   4.698  -2.014  0.00  0.00    -0.294 NA
ATOM      8  C   UNL     1      11.950   3.732  -0.970  0.00  0.00    +0.146 C 
ATOM      9  C   UNL     1      13.473   3.580  -1.138  0.00  0.00    +0.030 C 
ATOM     10  C   UNL     1      13.830   4.450  -2.335  0.00  0.00    +0.017 C 
ATOM     11  C   UNL     1      12.525   4.560  -3.098  0.00  0.00    +0.085 C 
ATOM     13  C   UNL     1      10.183   4.512  -2.479  0.00  0.00    +0.105 C 
ENDBRANCH  12   8
ENDBRANCH  15  14
BRANCH   6  19
ATOM     19  C   UNL     1       9.726   5.085   7.113  0.00  0.00    +0.131 C 
BRANCH  19  21
ATOM     21  C   UNL     1      10.277   5.457   8.479  0.00  0.00    +0.178 C 
BRANCH  21   2
ATOM      2  O   UNL     1      10.068   4.381   9.384  0.00  0.00    -0.381 OA
ATOM     22  C   UNL     1       8.947   4.616  10.224  0.00  0.00    +0.194 C 
ENDBRANCH  21   2
ENDBRANCH  19  21
ENDBRANCH   6  19
TORSDOF 5
ENDMDL
MODEL 9
REMARK VINA RESULT:      -5.4     27.658     29.653
REMARK  Name = 45783275
REMARK  7 active torsions:
REMARK  status: ('A' for Active; 'I' for Inactive)
REMARK    1  A    between atoms: O_2  and  C_21
REMARK    2  A    between atoms: O_2  and  C_22
REMARK    3  A    between atoms: N_3  and  C_13
REMARK    4  A    between atoms: N_6  and  C_19
REMARK    5  A    between atoms: C_8  and  C_12
REMARK    6  A    between atoms: C_14  and  C_15
REMARK    7  A    between atoms: C_19  and  C_21
REMARK                            x       y       z     vdW  Elec       q    Type
REMARK                         _______ _______ _______ _____ _____    ______ ____
ROOT
ATOM      6  N   UNL     1      20.593   8.281  22.081  0.00  0.00    -0.327 N 
ATOM      7  N   UNL     1      20.459   6.308  20.751  0.00  0.00    -0.240 NA
ATOM     15  C   UNL     1      17.684   6.614  20.609  0.00  0.00    +0.027 A 
ATOM     16  C   UNL     1      18.453   7.532  21.318  0.00  0.00    +0.055 A 
ATOM     17  C   UNL     1      18.302   5.543  19.972  0.00  0.00    +0.031 A 
ATOM     18  C   UNL     1      19.823   7.335  21.357  0.00  0.00    +0.119 A 
ATOM     20  C   UNL     1      19.680   5.436  20.072  0.00  0.00    +0.113 A 
ATOM     23  H   UNL     1      21.594   8.124  22.105  0.00  0.00    +0.148 HD
ENDROOT
BRANCH  15  14
ATOM      1  O   UNL     1      14.235   6.691  19.863  0.00  0.00    -0.336 OA
ATOM      4  N   UNL     1      15.557   7.389  21.530  0.00  0.00    -0.190 NA
ATOM      5  N   UNL     1      15.539   6.324  19.506  0.00  0.00    -0.056 NA
ATOM     12  C   UNL     1      14.335   7.312  21.066  0.00  0.00    +0.245 A 
ATOM     14  C   UNL     1      16.260   6.770  20.539  0.00  0.00    +0.202 A 
BRANCH  12   8
ATOM      3  N   UNL     1      12.783   9.233  21.374  0.00  0.00    -0.294 NA
ATOM      8  C   UNL     1      13.043   7.811  21.677  0.00  0.00    +0.146 C 
ATOM      9  C   UNL     1      11.805   7.066  21.145  0.00  0.00    +0.030 C 
ATOM     10  C   UNL     1      10.881   8.154  20.617  0.00  0.00    +0.017 C 
ATOM     11  C   UNL     1      11.330   9.395  21.362  0.00  0.00    +0.085 C 
ATOM     13  C   UNL     1      13.430  10.148  22.307  0.00  0.00    +0.105 C 
ENDBRANCH  12   8
ENDBRANCH  15  14
BRANCH   6  19
ATOM     19  C   UNL     1      20.010   9.397  22.751  0.00  0.00    +0.131 C 
BRANCH  19  21
ATOM     21  C   UNL     1      20.567  10.692  22.184  0.00  0.00    +0.178 C 
BRANCH  21   2
ATOM      2  O   UNL     1      19.523  11.653  22.084  0.00  0.00    -0.381 OA
ATOM     22  C   UNL     1      18.269  11.101  22.459  0.00  0.00    +0.194 C 
ENDBRANCH  21   2
ENDBRANCH  19  21
ENDBRANCH   6  19
TORSDOF 5
ENDMDL
MODEL 10
REMARK VINA RESULT:      -5.4     23.309     26.437
REMARK  Name = 45783275
REMARK  7 active torsions:
REMARK  status: ('A' for Active; 'I' for Inactive)
REMARK    1  A    between atoms: O_2  and  C_21
REMARK    2  A    between atoms: O_2  and  C_22
REMARK    3  A    between atoms: N_3  and  C_13
REMARK    4  A    between atoms: N_6  and  C_19
REMARK    5  A    between atoms: C_8  and  C_12
REMARK    6  A    between atoms: C_14  and  C_15
REMARK    7  A    between atoms: C_19  and  C_21
REMARK                            x       y       z     vdW  Elec       q    Type
REMARK                         _______ _______ _______ _____ _____    ______ ____
ROOT
ATOM      6  N   UNL     1      10.555   4.388  -1.534  0.00  0.00    -0.327 N 
ATOM      7  N   UNL     1      12.366   3.326  -0.407  0.00  0.00    -0.240 NA
ATOM     15  C   UNL     1      11.604   4.590   1.968  0.00  0.00    +0.027 A 
ATOM     16  C   UNL     1      10.883   4.808   0.798  0.00  0.00    +0.055 A 
ATOM     17  C   UNL     1      12.705   3.742   1.951  0.00  0.00    +0.031 A 
ATOM     18  C   UNL     1      11.302   4.158  -0.351  0.00  0.00    +0.119 A 
ATOM     20  C   UNL     1      13.042   3.139   0.749  0.00  0.00    +0.113 A 
ATOM     23  H   UNL     1      10.873   3.909  -2.369  0.00  0.00    +0.148 HD
ENDROOT
BRANCH  15  14
ATOM      1  O   UNL     1      11.191   6.539   4.882  0.00  0.00    -0.336 OA
ATOM      4  N   UNL     1      10.077   4.891   3.852  0.00  0.00    -0.190 NA
ATOM      5  N   UNL     1      11.935   6.220   3.739  0.00  0.00    -0.056 NA
ATOM     12  C   UNL     1      10.114   5.711   4.872  0.00  0.00    +0.245 A 
ATOM     14  C   UNL     1      11.214   5.241   3.185  0.00  0.00    +0.202 A 
BRANCH  12   8
ATOM      3  N   UNL     1       9.800   5.796   7.339  0.00  0.00    -0.294 NA
ATOM      8  C   UNL     1       9.139   5.860   6.021  0.00  0.00    +0.146 C 
ATOM      9  C   UNL     1       8.413   7.218   6.014  0.00  0.00    +0.030 C 
ATOM     10  C   UNL     1       8.673   7.816   7.389  0.00  0.00    +0.017 C 
ATOM     11  C   UNL     1       8.992   6.609   8.248  0.00  0.00    +0.085 C 
ATOM     13  C   UNL     1       9.974   4.434   7.829  0.00  0.00    +0.105 C 
ENDBRANCH  12   8
ENDBRANCH  15  14
BRANCH   6  19
ATOM     19  C   UNL     1       9.417   5.247  -1.572  0.00  0.00    +0.131 C 
BRANCH  19  21
ATOM     21  C   UNL     1       9.256   5.836  -2.963  0.00  0.00    +0.178 C 
BRANCH  21   2
ATOM      2  O   UNL     1       8.327   5.054  -3.704  0.00  0.00    -0.381 OA
ATOM     22  C   UNL     1       8.949   4.410  -4.806  0.00  0.00    +0.194 C 
ENDBRANCH  21   2
ENDBRANCH  19  21
ENDBRANCH   6  19
TORSDOF 5
ENDMDL
