MODEL 1
REMARK VINA RESULT:      -7.4      0.000      0.000
REMARK  Name = 11882557
REMARK  11 active torsions:
REMARK  status: ('A' for Active; 'I' for Inactive)
REMARK    1  A    between atoms: O_2  and  C_12
REMARK    2  A    between atoms: O_3  and  C_15
REMARK    3  A    between atoms: O_4  and  C_17
REMARK    4  A    between atoms: N_8  and  C_13
REMARK    5  A    between atoms: N_9  and  C_19
REMARK    6  A    between atoms: N_10  and  C_24
REMARK    7  A    between atoms: C_12  and  C_18
REMARK    8  A    between atoms: C_19  and  C_21
REMARK    9  A    between atoms: C_19  and  C_22
REMARK   10  A    between atoms: C_21  and  C_23
REMARK   11  A    between atoms: C_32  and  C_33
REMARK                            x       y       z     vdW  Elec       q    Type
REMARK                         _______ _______ _______ _____ _____    ______ ____
ROOT
ATOM     12  C   UNL     1      -5.484 -11.343  17.051  0.00  0.00    +0.146 C 
ATOM     13  C   UNL     1      -7.570 -10.115  17.826  0.00  0.00    +0.109 C 
ATOM     14  C   UNL     1      -6.386 -10.124  16.853  0.00  0.00    +0.069 C 
ATOM     15  C   UNL     1      -7.112 -10.255  19.284  0.00  0.00    +0.163 C 
ATOM     16  C   UNL     1      -5.019 -11.460  18.501  0.00  0.00    +0.078 C 
ATOM     17  C   UNL     1      -6.192 -11.462  19.484  0.00  0.00    +0.148 C 
ENDROOT
BRANCH  13   8
ATOM      6  O   UNL     1      -9.891  -9.789  16.179  0.00  0.00    -0.252 OA
ATOM      8  N   UNL     1      -8.341  -8.904  17.649  0.00  0.00    -0.294 N 
ATOM     10  N   UNL     1     -10.001  -7.541  16.849  0.00  0.00    -0.269 N 
ATOM     20  C   UNL     1      -9.465  -8.831  16.822  0.00  0.00    +0.304 C 
ATOM     34  H   UNL     1      -8.006  -8.050  18.085  0.00  0.00    +0.151 HD
ATOM     39  H   UNL     1      -9.526  -6.861  17.436  0.00  0.00    +0.156 HD
BRANCH  10  24
ATOM     24  C   UNL     1     -11.134  -7.057  16.153  0.00  0.00    +0.035 A 
ATOM     26  C   UNL     1     -12.379  -7.654  16.349  0.00  0.00    +0.023 A 
ATOM     27  C   UNL     1     -11.004  -5.985  15.271  0.00  0.00    +0.023 A 
ATOM     30  C   UNL     1     -13.496  -7.177  15.661  0.00  0.00    +0.005 A 
ATOM     31  C   UNL     1     -12.121  -5.509  14.584  0.00  0.00    +0.005 A 
ATOM     32  C   UNL     1     -13.367  -6.105  14.779  0.00  0.00    -0.050 A 
ATOM     33  C   UNL     1     -14.561  -5.596  14.045  0.00  0.00    +0.044 C 
ENDBRANCH  10  24
ENDBRANCH  13   8
BRANCH  12  18
ATOM      5  O   UNL     1      -3.264 -10.702  16.446  0.00  0.00    -0.273 OA
ATOM      9  N   UNL     1      -4.541 -11.915  14.924  0.00  0.00    -0.301 N 
ATOM     18  C   UNL     1      -4.300 -11.280  16.131  0.00  0.00    +0.246 C 
ATOM     38  H   UNL     1      -5.459 -12.302  14.729  0.00  0.00    +0.150 HD
BRANCH   9  19
ATOM     19  C   UNL     1      -3.570 -11.976  13.856  0.00  0.00    +0.163 C 
BRANCH  19  22
ATOM      7  O   UNL     1      -2.517 -14.113  14.337  0.00  0.00    -0.274 OA
ATOM     11  N   UNL     1      -1.312 -12.188  14.693  0.00  0.00    -0.328 N 
ATOM     22  C   UNL     1      -2.445 -12.886  14.327  0.00  0.00    +0.231 C 
ATOM     40  H   UNL     1      -0.482 -12.676  15.011  0.00  0.00    +0.145 HD
ATOM     41  H   UNL     1      -1.265 -11.175  14.676  0.00  0.00    +0.145 HD
ENDBRANCH  19  22
BRANCH  19  21
ATOM     21  C   UNL     1      -3.020 -10.592  13.490  0.00  0.00    +0.074 C 
BRANCH  21  23
ATOM      1  S   UNL     1      -5.141  -9.872  11.834  0.00  0.00    -0.102 S 
ATOM     23  C   UNL     1      -3.474 -10.136  12.123  0.00  0.00    -0.008 A 
ATOM     25  C   UNL     1      -2.710  -9.886  11.005  0.00  0.00    +0.011 A 
ATOM     28  C   UNL     1      -3.502  -9.472   9.897  0.00  0.00    +0.008 A 
ATOM     29  C   UNL     1      -4.843  -9.421  10.209  0.00  0.00    +0.045 A 
ENDBRANCH  21  23
ENDBRANCH  19  21
ENDBRANCH   9  19
ENDBRANCH  12  18
BRANCH  12   2
ATOM      2  O   UNL     1      -6.172 -12.534  16.686  0.00  0.00    -0.379 OA
ATOM     35  H   UNL     1      -6.190 -13.127  17.457  0.00  0.00    +0.211 HD
ENDBRANCH  12   2
BRANCH  15   3
ATOM      3  O   UNL     1      -8.258 -10.443  20.118  0.00  0.00    -0.387 OA
ATOM     36  H   UNL     1      -8.098  -9.984  20.960  0.00  0.00    +0.210 HD
ENDBRANCH  15   3
BRANCH  17   4
ATOM      4  O   UNL     1      -5.678 -11.424  20.815  0.00  0.00    -0.389 OA
ATOM     37  H   UNL     1      -4.726 -11.233  20.756  0.00  0.00    +0.210 HD
ENDBRANCH  17   4
TORSDOF 10
ENDMDL
MODEL 2
REMARK VINA RESULT:      -7.3     27.551     30.257
REMARK  Name = 11882557
REMARK  11 active torsions:
REMARK  status: ('A' for Active; 'I' for Inactive)
REMARK    1  A    between atoms: O_2  and  C_12
REMARK    2  A    between atoms: O_3  and  C_15
REMARK    3  A    between atoms: O_4  and  C_17
REMARK    4  A    between atoms: N_8  and  C_13
REMARK    5  A    between atoms: N_9  and  C_19
REMARK    6  A    between atoms: N_10  and  C_24
REMARK    7  A    between atoms: C_12  and  C_18
REMARK    8  A    between atoms: C_19  and  C_21
REMARK    9  A    between atoms: C_19  and  C_22
REMARK   10  A    between atoms: C_21  and  C_23
REMARK   11  A    between atoms: C_32  and  C_33
REMARK                            x       y       z     vdW  Elec       q    Type
REMARK                         _______ _______ _______ _____ _____    ______ ____
ROOT
ATOM     12  C   UNL     1      13.222   8.037  17.904  0.00  0.00    +0.146 C 
ATOM     13  C   UNL     1      14.114   9.774  16.277  0.00  0.00    +0.109 C 
ATOM     14  C   UNL     1      14.204   9.190  17.692  0.00  0.00    +0.069 C 
ATOM     15  C   UNL     1      12.678  10.173  15.914  0.00  0.00    +0.163 C 
ATOM     16  C   UNL     1      11.794   8.453  17.559  0.00  0.00    +0.078 C 
ATOM     17  C   UNL     1      11.688   9.028  16.145  0.00  0.00    +0.148 C 
ENDROOT
BRANCH  13   8
ATOM      6  O   UNL     1      15.564  10.575  13.940  0.00  0.00    -0.252 OA
ATOM      8  N   UNL     1      15.004  10.909  16.159  0.00  0.00    -0.294 N 
ATOM     10  N   UNL     1      16.459  12.372  15.160  0.00  0.00    -0.269 N 
ATOM     20  C   UNL     1      15.675  11.230  14.976  0.00  0.00    +0.304 C 
ATOM     34  H   UNL     1      15.207  11.452  16.992  0.00  0.00    +0.151 HD
ATOM     39  H   UNL     1      16.438  12.795  16.084  0.00  0.00    +0.156 HD
BRANCH  10  24
ATOM     24  C   UNL     1      17.287  13.018  14.213  0.00  0.00    +0.035 A 
ATOM     26  C   UNL     1      16.766  14.031  13.408  0.00  0.00    +0.023 A 
ATOM     27  C   UNL     1      18.623  12.641  14.083  0.00  0.00    +0.023 A 
ATOM     30  C   UNL     1      17.583  14.667  12.473  0.00  0.00    +0.005 A 
ATOM     31  C   UNL     1      19.440  13.278  13.149  0.00  0.00    +0.005 A 
ATOM     32  C   UNL     1      18.920  14.292  12.343  0.00  0.00    -0.050 A 
ATOM     33  C   UNL     1      19.792  14.973  11.344  0.00  0.00    +0.044 C 
ENDBRANCH  10  24
ENDBRANCH  13   8
BRANCH  12  18
ATOM      5  O   UNL     1      14.171   6.772  19.695  0.00  0.00    -0.273 OA
ATOM      9  N   UNL     1      12.250   8.025  20.094  0.00  0.00    -0.301 N 
ATOM     18  C   UNL     1      13.289   7.539  19.318  0.00  0.00    +0.246 C 
ATOM     38  H   UNL     1      11.527   8.598  19.671  0.00  0.00    +0.150 HD
BRANCH   9  19
ATOM     19  C   UNL     1      12.073   7.678  21.485  0.00  0.00    +0.163 C 
BRANCH  19  22
ATOM      7  O   UNL     1      11.066   5.480  21.243  0.00  0.00    -0.274 OA
ATOM     11  N   UNL     1       9.772   7.200  22.048  0.00  0.00    -0.328 N 
ATOM     22  C   UNL     1      10.942   6.663  21.552  0.00  0.00    +0.231 C 
ATOM     40  H   UNL     1       8.943   6.626  22.159  0.00  0.00    +0.145 HD
ATOM     41  H   UNL     1       9.684   8.178  22.303  0.00  0.00    +0.145 HD
ENDBRANCH  19  22
BRANCH  19  21
ATOM     21  C   UNL     1      11.747   8.900  22.353  0.00  0.00    +0.074 C 
BRANCH  21  23
ATOM      1  S   UNL     1      14.190  10.235  22.270  0.00  0.00    -0.102 S 
ATOM     23  C   UNL     1      12.516  10.128  21.928  0.00  0.00    -0.008 A 
ATOM     25  C   UNL     1      12.051  11.245  21.269  0.00  0.00    +0.011 A 
ATOM     28  C   UNL     1      13.082  12.201  21.041  0.00  0.00    +0.008 A 
ATOM     29  C   UNL     1      14.297  11.779  21.535  0.00  0.00    +0.045 A 
ENDBRANCH  21  23
ENDBRANCH  19  21
ENDBRANCH   9  19
ENDBRANCH  12  18
BRANCH  12   2
ATOM      2  O   UNL     1      13.588   6.919  17.103  0.00  0.00    -0.379 OA
ATOM     35  H   UNL     1      13.582   7.194  16.170  0.00  0.00    +0.211 HD
ENDBRANCH  12   2
BRANCH  15   3
ATOM      3  O   UNL     1      12.626  10.516  14.527  0.00  0.00    -0.387 OA
ATOM     36  H   UNL     1      11.704  10.430  14.230  0.00  0.00    +0.210 HD
ENDBRANCH  15   3
BRANCH  17   4
ATOM      4  O   UNL     1      10.365   9.527  15.949  0.00  0.00    -0.389 OA
ATOM     37  H   UNL     1      10.435  10.480  15.769  0.00  0.00    +0.210 HD
ENDBRANCH  17   4
TORSDOF 10
ENDMDL
MODEL 3
REMARK VINA RESULT:      -7.3     28.915     31.876
REMARK  Name = 11882557
REMARK  11 active torsions:
REMARK  status: ('A' for Active; 'I' for Inactive)
REMARK    1  A    between atoms: O_2  and  C_12
REMARK    2  A    between atoms: O_3  and  C_15
REMARK    3  A    between atoms: O_4  and  C_17
REMARK    4  A    between atoms: N_8  and  C_13
REMARK    5  A    between atoms: N_9  and  C_19
REMARK    6  A    between atoms: N_10  and  C_24
REMARK    7  A    between atoms: C_12  and  C_18
REMARK    8  A    between atoms: C_19  and  C_21
REMARK    9  A    between atoms: C_19  and  C_22
REMARK   10  A    between atoms: C_21  and  C_23
REMARK   11  A    between atoms: C_32  and  C_33
REMARK                            x       y       z     vdW  Elec       q    Type
REMARK                         _______ _______ _______ _____ _____    ______ ____
ROOT
ATOM     12  C   UNL     1      16.040   7.085  20.961  0.00  0.00    +0.146 C 
ATOM     13  C   UNL     1      18.535   6.921  21.416  0.00  0.00    +0.109 C 
ATOM     14  C   UNL     1      17.283   7.803  21.488  0.00  0.00    +0.069 C 
ATOM     15  C   UNL     1      18.756   6.359  20.006  0.00  0.00    +0.163 C 
ATOM     16  C   UNL     1      16.267   6.547  19.550  0.00  0.00    +0.078 C 
ATOM     17  C   UNL     1      17.509   5.657  19.465  0.00  0.00    +0.148 C 
ENDROOT
BRANCH  13   8
ATOM      6  O   UNL     1      20.679   5.972  23.062  0.00  0.00    -0.252 OA
ATOM      8  N   UNL     1      19.691   7.675  21.851  0.00  0.00    -0.294 N 
ATOM     10  N   UNL     1      21.679   8.091  22.914  0.00  0.00    -0.269 N 
ATOM     20  C   UNL     1      20.695   7.133  22.657  0.00  0.00    +0.304 C 
ATOM     34  H   UNL     1      19.736   8.664  21.622  0.00  0.00    +0.151 HD
ATOM     39  H   UNL     1      21.539   9.010  22.501  0.00  0.00    +0.156 HD
BRANCH  10  24
ATOM     24  C   UNL     1      22.855   7.943  23.685  0.00  0.00    +0.035 A 
ATOM     26  C   UNL     1      24.030   7.494  23.083  0.00  0.00    +0.023 A 
ATOM     27  C   UNL     1      22.838   8.244  25.046  0.00  0.00    +0.023 A 
ATOM     30  C   UNL     1      25.190   7.347  23.844  0.00  0.00    +0.005 A 
ATOM     31  C   UNL     1      23.999   8.096  25.807  0.00  0.00    +0.005 A 
ATOM     32  C   UNL     1      25.175   7.648  25.206  0.00  0.00    -0.050 A 
ATOM     33  C   UNL     1      26.416   7.490  26.018  0.00  0.00    +0.044 C 
ENDBRANCH  10  24
ENDBRANCH  13   8
BRANCH  12  18
ATOM      5  O   UNL     1      14.930   9.156  21.390  0.00  0.00    -0.273 OA
ATOM      9  N   UNL     1      13.704   7.379  20.519  0.00  0.00    -0.301 N 
ATOM     18  C   UNL     1      14.852   8.001  20.981  0.00  0.00    +0.246 C 
ATOM     38  H   UNL     1      13.725   6.395  20.271  0.00  0.00    +0.150 HD
BRANCH   9  19
ATOM     19  C   UNL     1      12.418   8.038  20.460  0.00  0.00    +0.163 C 
BRANCH  19  22
ATOM      7  O   UNL     1      10.814   7.651  22.243  0.00  0.00    -0.274 OA
ATOM     11  N   UNL     1      11.328   5.913  20.831  0.00  0.00    -0.328 N 
ATOM     22  C   UNL     1      11.452   7.207  21.292  0.00  0.00    +0.231 C 
ATOM     40  H   UNL     1      10.703   5.257  21.287  0.00  0.00    +0.145 HD
ATOM     41  H   UNL     1      11.859   5.560  20.042  0.00  0.00    +0.145 HD
ENDBRANCH  19  22
BRANCH  19  21
ATOM     21  C   UNL     1      11.903   8.177  19.022  0.00  0.00    +0.074 C 
BRANCH  21  23
ATOM      1  S   UNL     1      13.259  10.558  18.524  0.00  0.00    -0.102 S 
ATOM     23  C   UNL     1      12.863   8.938  18.138  0.00  0.00    -0.008 A 
ATOM     25  C   UNL     1      13.506   8.506  17.000  0.00  0.00    +0.011 A 
ATOM     28  C   UNL     1      14.336   9.517  16.437  0.00  0.00    +0.008 A 
ATOM     29  C   UNL     1      14.295  10.685  17.166  0.00  0.00    +0.045 A 
ENDBRANCH  21  23
ENDBRANCH  19  21
ENDBRANCH   9  19
ENDBRANCH  12  18
BRANCH  12   2
ATOM      2  O   UNL     1      15.688   6.005  21.819  0.00  0.00    -0.379 OA
ATOM     35  H   UNL     1      16.099   5.193  21.476  0.00  0.00    +0.211 HD
ENDBRANCH  12   2
BRANCH  15   3
ATOM      3  O   UNL     1      19.810   5.393  20.049  0.00  0.00    -0.387 OA
ATOM     36  H   UNL     1      19.528   4.663  20.626  0.00  0.00    +0.210 HD
ENDBRANCH  15   3
BRANCH  17   4
ATOM      4  O   UNL     1      17.738   5.315  18.098  0.00  0.00    -0.389 OA
ATOM     37  H   UNL     1      17.579   4.360  18.004  0.00  0.00    +0.210 HD
ENDBRANCH  17   4
TORSDOF 10
ENDMDL
MODEL 4
REMARK VINA RESULT:      -7.2      2.093      2.847
REMARK  Name = 11882557
REMARK  11 active torsions:
REMARK  status: ('A' for Active; 'I' for Inactive)
REMARK    1  A    between atoms: O_2  and  C_12
REMARK    2  A    between atoms: O_3  and  C_15
REMARK    3  A    between atoms: O_4  and  C_17
REMARK    4  A    between atoms: N_8  and  C_13
REMARK    5  A    between atoms: N_9  and  C_19
REMARK    6  A    between atoms: N_10  and  C_24
REMARK    7  A    between atoms: C_12  and  C_18
REMARK    8  A    between atoms: C_19  and  C_21
REMARK    9  A    between atoms: C_19  and  C_22
REMARK   10  A    between atoms: C_21  and  C_23
REMARK   11  A    between atoms: C_32  and  C_33
REMARK                            x       y       z     vdW  Elec       q    Type
REMARK                         _______ _______ _______ _____ _____    ______ ____
ROOT
ATOM     12  C   UNL     1      -4.154 -11.240  16.480  0.00  0.00    +0.146 C 
ATOM     13  C   UNL     1      -6.271 -10.655  17.758  0.00  0.00    +0.109 C 
ATOM     14  C   UNL     1      -5.280 -10.223  16.671  0.00  0.00    +0.069 C 
ATOM     15  C   UNL     1      -5.563 -10.979  19.080  0.00  0.00    +0.163 C 
ATOM     16  C   UNL     1      -3.445 -11.539  17.798  0.00  0.00    +0.078 C 
ATOM     17  C   UNL     1      -4.422 -11.981  18.890  0.00  0.00    +0.148 C 
ENDROOT
BRANCH  13   8
ATOM      6  O   UNL     1      -8.690 -10.305  16.265  0.00  0.00    -0.252 OA
ATOM      8  N   UNL     1      -7.265  -9.622  17.952  0.00  0.00    -0.294 N 
ATOM     10  N   UNL     1      -9.191  -8.432  17.590  0.00  0.00    -0.269 N 
ATOM     20  C   UNL     1      -8.422  -9.523  17.175  0.00  0.00    +0.304 C 
ATOM     34  H   UNL     1      -7.076  -8.892  18.633  0.00  0.00    +0.151 HD
ATOM     39  H   UNL     1      -8.824  -7.883  18.363  0.00  0.00    +0.156 HD
BRANCH  10  24
ATOM     24  C   UNL     1     -10.427  -7.991  17.064  0.00  0.00    +0.035 A 
ATOM     26  C   UNL     1     -11.587  -8.730  17.298  0.00  0.00    +0.023 A 
ATOM     27  C   UNL     1     -10.486  -6.820  16.310  0.00  0.00    +0.023 A 
ATOM     30  C   UNL     1     -12.807  -8.295  16.778  0.00  0.00    +0.005 A 
ATOM     31  C   UNL     1     -11.706  -6.386  15.791  0.00  0.00    +0.005 A 
ATOM     32  C   UNL     1     -12.867  -7.124  16.025  0.00  0.00    -0.050 A 
ATOM     33  C   UNL     1     -14.171  -6.661  15.470  0.00  0.00    +0.044 C 
ENDBRANCH  10  24
ENDBRANCH  13   8
BRANCH  12  18
ATOM      5  O   UNL     1      -2.083 -10.273  15.784  0.00  0.00    -0.273 OA
ATOM      9  N   UNL     1      -3.640 -10.886  14.166  0.00  0.00    -0.301 N 
ATOM     18  C   UNL     1      -3.167 -10.751  15.460  0.00  0.00    +0.246 C 
ATOM     38  H   UNL     1      -4.583 -11.226  14.004  0.00  0.00    +0.150 HD
BRANCH   9  19
ATOM     19  C   UNL     1      -2.891 -10.468  13.003  0.00  0.00    +0.163 C 
BRANCH  19  22
ATOM      7  O   UNL     1      -5.116 -10.086  12.103  0.00  0.00    -0.274 OA
ATOM     11  N   UNL     1      -3.308  -9.844  10.706  0.00  0.00    -0.328 N 
ATOM     22  C   UNL     1      -3.903 -10.136  11.916  0.00  0.00    +0.231 C 
ATOM     40  H   UNL     1      -3.869  -9.590   9.900  0.00  0.00    +0.145 HD
ATOM     41  H   UNL     1      -2.304  -9.885  10.565  0.00  0.00    +0.145 HD
ENDBRANCH  19  22
BRANCH  19  21
ATOM     21  C   UNL     1      -1.920 -11.550  12.517  0.00  0.00    +0.074 C 
BRANCH  21  23
ATOM      1  S   UNL     1      -2.045 -14.024  13.792  0.00  0.00    -0.102 S 
ATOM     23  C   UNL     1      -2.528 -12.932  12.565  0.00  0.00    -0.008 A 
ATOM     25  C   UNL     1      -3.468 -13.485  11.723  0.00  0.00    +0.011 A 
ATOM     28  C   UNL     1      -3.796 -14.821  12.089  0.00  0.00    +0.008 A 
ATOM     29  C   UNL     1      -3.094 -15.241  13.199  0.00  0.00    +0.045 A 
ENDBRANCH  21  23
ENDBRANCH  19  21
ENDBRANCH   9  19
ENDBRANCH  12  18
BRANCH  12   2
ATOM      2  O   UNL     1      -4.667 -12.454  15.942  0.00  0.00    -0.379 OA
ATOM     35  H   UNL     1      -5.441 -12.720  16.467  0.00  0.00    +0.211 HD
ENDBRANCH  12   2
BRANCH  15   3
ATOM      3  O   UNL     1      -6.505 -11.563  19.983  0.00  0.00    -0.387 OA
ATOM     36  H   UNL     1      -6.868 -12.363  19.565  0.00  0.00    +0.210 HD
ENDBRANCH  15   3
BRANCH  17   4
ATOM      4  O   UNL     1      -3.712 -12.098  20.123  0.00  0.00    -0.389 OA
ATOM     37  H   UNL     1      -3.753 -13.030  20.398  0.00  0.00    +0.210 HD
ENDBRANCH  17   4
TORSDOF 10
ENDMDL
MODEL 5
REMARK VINA RESULT:      -7.1     24.344     27.766
REMARK  Name = 11882557
REMARK  11 active torsions:
REMARK  status: ('A' for Active; 'I' for Inactive)
REMARK    1  A    between atoms: O_2  and  C_12
REMARK    2  A    between atoms: O_3  and  C_15
REMARK    3  A    between atoms: O_4  and  C_17
REMARK    4  A    between atoms: N_8  and  C_13
REMARK    5  A    between atoms: N_9  and  C_19
REMARK    6  A    between atoms: N_10  and  C_24
REMARK    7  A    between atoms: C_12  and  C_18
REMARK    8  A    between atoms: C_19  and  C_21
REMARK    9  A    between atoms: C_19  and  C_22
REMARK   10  A    between atoms: C_21  and  C_23
REMARK   11  A    between atoms: C_32  and  C_33
REMARK                            x       y       z     vdW  Elec       q    Type
REMARK                         _______ _______ _______ _____ _____    ______ ____
ROOT
ATOM     12  C   UNL     1       9.608   7.932   6.990  0.00  0.00    +0.146 C 
ATOM     13  C   UNL     1      10.411   5.642   6.237  0.00  0.00    +0.109 C 
ATOM     14  C   UNL     1       9.743   6.957   5.820  0.00  0.00    +0.069 C 
ATOM     15  C   UNL     1       9.704   4.998   7.436  0.00  0.00    +0.163 C 
ATOM     16  C   UNL     1       8.885   7.286   8.170  0.00  0.00    +0.078 C 
ATOM     17  C   UNL     1       9.548   5.976   8.603  0.00  0.00    +0.148 C 
ENDROOT
BRANCH  13   8
ATOM      6  O   UNL     1      11.736   6.054   3.731  0.00  0.00    -0.252 OA
ATOM      8  N   UNL     1      10.440   4.730   5.114  0.00  0.00    -0.294 N 
ATOM     10  N   UNL     1      10.967   3.951   3.023  0.00  0.00    -0.269 N 
ATOM     20  C   UNL     1      11.114   5.011   3.922  0.00  0.00    +0.304 C 
ATOM     34  H   UNL     1       9.884   3.882   5.165  0.00  0.00    +0.151 HD
ATOM     39  H   UNL     1      10.417   3.157   3.339  0.00  0.00    +0.156 HD
BRANCH  10  24
ATOM     24  C   UNL     1      11.492   3.845   1.714  0.00  0.00    +0.035 A 
ATOM     26  C   UNL     1      10.720   4.234   0.619  0.00  0.00    +0.023 A 
ATOM     27  C   UNL     1      12.781   3.349   1.518  0.00  0.00    +0.023 A 
ATOM     30  C   UNL     1      11.238   4.127  -0.672  0.00  0.00    +0.005 A 
ATOM     31  C   UNL     1      13.298   3.243   0.227  0.00  0.00    +0.005 A 
ATOM     32  C   UNL     1      12.526   3.632  -0.869  0.00  0.00    -0.050 A 
ATOM     33  C   UNL     1      13.078   3.519  -2.249  0.00  0.00    +0.044 C 
ENDBRANCH  10  24
ENDBRANCH  13   8
BRANCH  12  18
ATOM      5  O   UNL     1       7.853   9.133   5.901  0.00  0.00    -0.273 OA
ATOM      9  N   UNL     1       9.539  10.327   6.973  0.00  0.00    -0.301 N 
ATOM     18  C   UNL     1       8.887   9.177   6.561  0.00  0.00    +0.246 C 
ATOM     38  H   UNL     1      10.431  10.260   7.453  0.00  0.00    +0.150 HD
BRANCH   9  19
ATOM     19  C   UNL     1       9.063  11.657   6.668  0.00  0.00    +0.163 C 
BRANCH  19  22
ATOM      7  O   UNL     1      10.547  12.117   4.800  0.00  0.00    -0.274 OA
ATOM     11  N   UNL     1       8.297  11.894   4.388  0.00  0.00    -0.328 N 
ATOM     22  C   UNL     1       9.404  11.930   5.211  0.00  0.00    +0.231 C 
ATOM     40  H   UNL     1       8.388  12.045   3.389  0.00  0.00    +0.145 HD
ATOM     41  H   UNL     1       7.359  11.736   4.740  0.00  0.00    +0.145 HD
ENDBRANCH  19  22
BRANCH  19  21
ATOM     21  C   UNL     1       9.694  12.722   7.574  0.00  0.00    +0.074 C 
BRANCH  21  23
ATOM      1  S   UNL     1      10.934  12.006   9.963  0.00  0.00    -0.102 S 
ATOM     23  C   UNL     1       9.544  12.392   9.040  0.00  0.00    -0.008 A 
ATOM     25  C   UNL     1       8.394  12.348   9.796  0.00  0.00    +0.011 A 
ATOM     28  C   UNL     1       8.655  11.994  11.150  0.00  0.00    +0.008 A 
ATOM     29  C   UNL     1       9.997  11.781  11.379  0.00  0.00    +0.045 A 
ENDBRANCH  21  23
ENDBRANCH  19  21
ENDBRANCH   9  19
ENDBRANCH  12  18
BRANCH  12   2
ATOM      2  O   UNL     1      10.890   8.378   7.417  0.00  0.00    -0.379 OA
ATOM     35  H   UNL     1      11.365   7.622   7.804  0.00  0.00    +0.211 HD
ENDBRANCH  12   2
BRANCH  15   3
ATOM      3  O   UNL     1      10.485   3.894   7.901  0.00  0.00    -0.387 OA
ATOM     36  H   UNL     1      10.266   3.741   8.836  0.00  0.00    +0.210 HD
ENDBRANCH  15   3
BRANCH  17   4
ATOM      4  O   UNL     1       8.738   5.360   9.605  0.00  0.00    -0.389 OA
ATOM     37  H   UNL     1       9.250   4.627   9.986  0.00  0.00    +0.210 HD
ENDBRANCH  17   4
TORSDOF 10
ENDMDL
MODEL 6
REMARK VINA RESULT:      -7.1      1.833      3.091
REMARK  Name = 11882557
REMARK  11 active torsions:
REMARK  status: ('A' for Active; 'I' for Inactive)
REMARK    1  A    between atoms: O_2  and  C_12
REMARK    2  A    between atoms: O_3  and  C_15
REMARK    3  A    between atoms: O_4  and  C_17
REMARK    4  A    between atoms: N_8  and  C_13
REMARK    5  A    between atoms: N_9  and  C_19
REMARK    6  A    between atoms: N_10  and  C_24
REMARK    7  A    between atoms: C_12  and  C_18
REMARK    8  A    between atoms: C_19  and  C_21
REMARK    9  A    between atoms: C_19  and  C_22
REMARK   10  A    between atoms: C_21  and  C_23
REMARK   11  A    between atoms: C_32  and  C_33
REMARK                            x       y       z     vdW  Elec       q    Type
REMARK                         _______ _______ _______ _____ _____    ______ ____
ROOT
ATOM     12  C   UNL     1      -5.217 -11.393  17.192  0.00  0.00    +0.146 C 
ATOM     13  C   UNL     1      -7.342 -10.166  17.851  0.00  0.00    +0.109 C 
ATOM     14  C   UNL     1      -6.097 -10.164  16.957  0.00  0.00    +0.069 C 
ATOM     15  C   UNL     1      -6.982 -10.335  19.332  0.00  0.00    +0.163 C 
ATOM     16  C   UNL     1      -4.849 -11.539  18.666  0.00  0.00    +0.078 C 
ATOM     17  C   UNL     1      -6.084 -11.552  19.570  0.00  0.00    +0.148 C 
ENDROOT
BRANCH  13   8
ATOM      6  O   UNL     1      -9.745  -9.872  16.319  0.00  0.00    -0.252 OA
ATOM      8  N   UNL     1      -8.093  -8.946  17.645  0.00  0.00    -0.294 N 
ATOM     10  N   UNL     1      -9.764  -7.587  16.860  0.00  0.00    -0.269 N 
ATOM     20  C   UNL     1      -9.261  -8.891  16.880  0.00  0.00    +0.304 C 
ATOM     34  H   UNL     1      -7.714  -8.078  18.012  0.00  0.00    +0.151 HD
ATOM     39  H   UNL     1      -9.240  -6.888  17.379  0.00  0.00    +0.156 HD
BRANCH  10  24
ATOM     24  C   UNL     1     -10.922  -7.113  16.201  0.00  0.00    +0.035 A 
ATOM     26  C   UNL     1     -12.165  -7.681  16.482  0.00  0.00    +0.023 A 
ATOM     27  C   UNL     1     -10.821  -6.081  15.269  0.00  0.00    +0.023 A 
ATOM     30  C   UNL     1     -13.307  -7.214  15.831  0.00  0.00    +0.005 A 
ATOM     31  C   UNL     1     -11.963  -5.615  14.618  0.00  0.00    +0.005 A 
ATOM     32  C   UNL     1     -13.207  -6.181  14.899  0.00  0.00    -0.050 A 
ATOM     33  C   UNL     1     -14.429  -5.684  14.205  0.00  0.00    +0.044 C 
ENDBRANCH  10  24
ENDBRANCH  13   8
BRANCH  12  18
ATOM      5  O   UNL     1      -2.986 -10.687  16.710  0.00  0.00    -0.273 OA
ATOM      9  N   UNL     1      -4.105 -12.020  15.164  0.00  0.00    -0.301 N 
ATOM     18  C   UNL     1      -3.975 -11.322  16.352  0.00  0.00    +0.246 C 
ATOM     38  H   UNL     1      -4.992 -12.454  14.926  0.00  0.00    +0.150 HD
BRANCH   9  19
ATOM     19  C   UNL     1      -3.059 -12.088  14.169  0.00  0.00    +0.163 C 
BRANCH  19  22
ATOM      7  O   UNL     1      -4.190 -10.284  12.998  0.00  0.00    -0.274 OA
ATOM     11  N   UNL     1      -1.894 -10.265  13.092  0.00  0.00    -0.328 N 
ATOM     22  C   UNL     1      -3.136 -10.807  13.351  0.00  0.00    +0.231 C 
ATOM     40  H   UNL     1      -1.804  -9.401  12.568  0.00  0.00    +0.145 HD
ATOM     41  H   UNL     1      -1.031 -10.706  13.392  0.00  0.00    +0.145 HD
ENDBRANCH  19  22
BRANCH  19  21
ATOM     21  C   UNL     1      -3.203 -13.314  13.258  0.00  0.00    +0.074 C 
BRANCH  21  23
ATOM      1  S   UNL     1      -1.068 -15.096  13.412  0.00  0.00    -0.102 S 
ATOM     23  C   UNL     1      -2.626 -14.564  13.880  0.00  0.00    -0.008 A 
ATOM     25  C   UNL     1      -3.195 -15.393  14.822  0.00  0.00    +0.011 A 
ATOM     28  C   UNL     1      -2.340 -16.480  15.164  0.00  0.00    +0.008 A 
ATOM     29  C   UNL     1      -1.150 -16.440  14.470  0.00  0.00    +0.045 A 
ENDBRANCH  21  23
ENDBRANCH  19  21
ENDBRANCH   9  19
ENDBRANCH  12  18
BRANCH  12   2
ATOM      2  O   UNL     1      -5.886 -12.573  16.760  0.00  0.00    -0.379 OA
ATOM     35  H   UNL     1      -6.050 -13.135  17.537  0.00  0.00    +0.211 HD
ENDBRANCH  12   2
BRANCH  15   3
ATOM      3  O   UNL     1      -8.182 -10.531  20.085  0.00  0.00    -0.387 OA
ATOM     36  H   UNL     1      -8.263  -9.798  20.720  0.00  0.00    +0.210 HD
ENDBRANCH  15   3
BRANCH  17   4
ATOM      4  O   UNL     1      -5.658 -11.542  20.932  0.00  0.00    -0.389 OA
ATOM     37  H   UNL     1      -5.581 -10.613  21.208  0.00  0.00    +0.210 HD
ENDBRANCH  17   4
TORSDOF 10
ENDMDL
MODEL 7
REMARK VINA RESULT:      -7.0     24.968     29.083
REMARK  Name = 11882557
REMARK  11 active torsions:
REMARK  status: ('A' for Active; 'I' for Inactive)
REMARK    1  A    between atoms: O_2  and  C_12
REMARK    2  A    between atoms: O_3  and  C_15
REMARK    3  A    between atoms: O_4  and  C_17
REMARK    4  A    between atoms: N_8  and  C_13
REMARK    5  A    between atoms: N_9  and  C_19
REMARK    6  A    between atoms: N_10  and  C_24
REMARK    7  A    between atoms: C_12  and  C_18
REMARK    8  A    between atoms: C_19  and  C_21
REMARK    9  A    between atoms: C_19  and  C_22
REMARK   10  A    between atoms: C_21  and  C_23
REMARK   11  A    between atoms: C_32  and  C_33
REMARK                            x       y       z     vdW  Elec       q    Type
REMARK                         _______ _______ _______ _____ _____    ______ ____
ROOT
ATOM     12  C   UNL     1      13.187   8.530   5.448  0.00  0.00    +0.146 C 
ATOM     13  C   UNL     1      14.533   7.305   3.674  0.00  0.00    +0.109 C 
ATOM     14  C   UNL     1      13.245   7.328   4.504  0.00  0.00    +0.069 C 
ATOM     15  C   UNL     1      15.783   7.396   4.558  0.00  0.00    +0.163 C 
ATOM     16  C   UNL     1      14.427   8.598   6.336  0.00  0.00    +0.078 C 
ATOM     17  C   UNL     1      15.722   8.585   5.520  0.00  0.00    +0.148 C 
ENDROOT
BRANCH  13   8
ATOM      6  O   UNL     1      13.428   6.983   1.051  0.00  0.00    -0.252 OA
ATOM      8  N   UNL     1      14.570   6.109   2.861  0.00  0.00    -0.294 N 
ATOM     10  N   UNL     1      14.193   4.763   1.044  0.00  0.00    -0.269 N 
ATOM     20  C   UNL     1      14.003   6.037   1.586  0.00  0.00    +0.304 C 
ATOM     34  H   UNL     1      14.958   5.262   3.265  0.00  0.00    +0.151 HD
ATOM     39  H   UNL     1      14.693   4.092   1.621  0.00  0.00    +0.156 HD
BRANCH  10  24
ATOM     24  C   UNL     1      13.772   4.285  -0.219  0.00  0.00    +0.035 A 
ATOM     26  C   UNL     1      12.650   3.463  -0.314  0.00  0.00    +0.023 A 
ATOM     27  C   UNL     1      14.480   4.635  -1.368  0.00  0.00    +0.023 A 
ATOM     30  C   UNL     1      12.235   2.991  -1.560  0.00  0.00    +0.005 A 
ATOM     31  C   UNL     1      14.065   4.163  -2.613  0.00  0.00    +0.005 A 
ATOM     32  C   UNL     1      12.942   3.340  -2.709  0.00  0.00    -0.050 A 
ATOM     33  C   UNL     1      12.498   2.835  -4.040  0.00  0.00    +0.044 C 
ENDBRANCH  10  24
ENDBRANCH  13   8
BRANCH  12  18
ATOM      5  O   UNL     1      11.588   9.437   6.973  0.00  0.00    -0.273 OA
ATOM      9  N   UNL     1      11.313   7.252   6.219  0.00  0.00    -0.301 N 
ATOM     18  C   UNL     1      11.948   8.480   6.293  0.00  0.00    +0.246 C 
ATOM     38  H   UNL     1      11.730   6.497   5.684  0.00  0.00    +0.150 HD
BRANCH   9  19
ATOM     19  C   UNL     1      10.110   6.939   6.956  0.00  0.00    +0.163 C 
BRANCH  19  22
ATOM      7  O   UNL     1       9.755   5.680   9.004  0.00  0.00    -0.274 OA
ATOM     11  N   UNL     1      11.807   5.555   7.979  0.00  0.00    -0.328 N 
ATOM     22  C   UNL     1      10.513   6.017   8.098  0.00  0.00    +0.231 C 
ATOM     40  H   UNL     1      12.196   4.919   8.666  0.00  0.00    +0.145 HD
ATOM     41  H   UNL     1      12.422   5.839   7.223  0.00  0.00    +0.145 HD
ENDBRANCH  19  22
BRANCH  19  21
ATOM     21  C   UNL     1       9.047   6.268   6.077  0.00  0.00    +0.074 C 
BRANCH  21  23
ATOM      1  S   UNL     1       9.430   6.885   3.388  0.00  0.00    -0.102 S 
ATOM     23  C   UNL     1       9.596   5.842   4.736  0.00  0.00    -0.008 A 
ATOM     25  C   UNL     1      10.246   4.674   4.408  0.00  0.00    +0.011 A 
ATOM     28  C   UNL     1      10.615   4.633   3.033  0.00  0.00    +0.008 A 
ATOM     29  C   UNL     1      10.231   5.773   2.361  0.00  0.00    +0.045 A 
ENDBRANCH  21  23
ENDBRANCH  19  21
ENDBRANCH   9  19
ENDBRANCH  12  18
BRANCH  12   2
ATOM      2  O   UNL     1      13.079   9.740   4.707  0.00  0.00    -0.379 OA
ATOM     35  H   UNL     1      13.817   9.780   4.074  0.00  0.00    +0.211 HD
ENDBRANCH  12   2
BRANCH  15   3
ATOM      3  O   UNL     1      16.932   7.573   3.725  0.00  0.00    -0.387 OA
ATOM     36  H   UNL     1      17.296   8.458   3.897  0.00  0.00    +0.210 HD
ENDBRANCH  15   3
BRANCH  17   4
ATOM      4  O   UNL     1      16.830   8.502   6.415  0.00  0.00    -0.389 OA
ATOM     37  H   UNL     1      16.480   8.285   7.296  0.00  0.00    +0.210 HD
ENDBRANCH  17   4
TORSDOF 10
ENDMDL
MODEL 8
REMARK VINA RESULT:      -6.9      1.658      1.972
REMARK  Name = 11882557
REMARK  11 active torsions:
REMARK  status: ('A' for Active; 'I' for Inactive)
REMARK    1  A    between atoms: O_2  and  C_12
REMARK    2  A    between atoms: O_3  and  C_15
REMARK    3  A    between atoms: O_4  and  C_17
REMARK    4  A    between atoms: N_8  and  C_13
REMARK    5  A    between atoms: N_9  and  C_19
REMARK    6  A    between atoms: N_10  and  C_24
REMARK    7  A    between atoms: C_12  and  C_18
REMARK    8  A    between atoms: C_19  and  C_21
REMARK    9  A    between atoms: C_19  and  C_22
REMARK   10  A    between atoms: C_21  and  C_23
REMARK   11  A    between atoms: C_32  and  C_33
REMARK                            x       y       z     vdW  Elec       q    Type
REMARK                         _______ _______ _______ _____ _____    ______ ____
ROOT
ATOM     12  C   UNL     1      -5.616 -12.192  17.014  0.00  0.00    +0.146 C 
ATOM     13  C   UNL     1      -7.528 -10.575  17.451  0.00  0.00    +0.109 C 
ATOM     14  C   UNL     1      -6.364 -10.950  16.527  0.00  0.00    +0.069 C 
ATOM     15  C   UNL     1      -7.076 -10.433  18.910  0.00  0.00    +0.163 C 
ATOM     16  C   UNL     1      -5.154 -12.030  18.461  0.00  0.00    +0.078 C 
ATOM     17  C   UNL     1      -6.309 -11.665  19.396  0.00  0.00    +0.148 C 
ENDROOT
BRANCH  13   8
ATOM      6  O   UNL     1     -10.173 -10.289  16.390  0.00  0.00    -0.252 OA
ATOM      8  N   UNL     1      -8.146  -9.352  16.987  0.00  0.00    -0.294 N 
ATOM     10  N   UNL     1      -9.772  -7.992  16.115  0.00  0.00    -0.269 N 
ATOM     20  C   UNL     1      -9.448  -9.301  16.482  0.00  0.00    +0.304 C 
ATOM     34  H   UNL     1      -7.583  -8.507  16.958  0.00  0.00    +0.151 HD
ATOM     39  H   UNL     1      -9.054  -7.287  16.257  0.00  0.00    +0.156 HD
BRANCH  10  24
ATOM     24  C   UNL     1     -10.987  -7.521  15.563  0.00  0.00    +0.035 A 
ATOM     26  C   UNL     1     -11.332  -7.852  14.253  0.00  0.00    +0.023 A 
ATOM     27  C   UNL     1     -11.837  -6.724  16.329  0.00  0.00    +0.023 A 
ATOM     30  C   UNL     1     -12.529  -7.386  13.709  0.00  0.00    +0.005 A 
ATOM     31  C   UNL     1     -13.033  -6.258  15.785  0.00  0.00    +0.005 A 
ATOM     32  C   UNL     1     -13.380  -6.590  14.474  0.00  0.00    -0.050 A 
ATOM     33  C   UNL     1     -14.660  -6.093  13.892  0.00  0.00    +0.044 C 
ENDBRANCH  10  24
ENDBRANCH  13   8
BRANCH  12  18
ATOM      5  O   UNL     1      -4.117 -13.635  15.841  0.00  0.00    -0.273 OA
ATOM      9  N   UNL     1      -3.796 -11.333  15.715  0.00  0.00    -0.301 N 
ATOM     18  C   UNL     1      -4.442 -12.486  16.126  0.00  0.00    +0.246 C 
ATOM     38  H   UNL     1      -4.098 -10.429  16.065  0.00  0.00    +0.150 HD
BRANCH   9  19
ATOM     19  C   UNL     1      -2.622 -11.343  14.872  0.00  0.00    +0.163 C 
BRANCH  19  22
ATOM      7  O   UNL     1      -0.784  -9.779  15.153  0.00  0.00    -0.274 OA
ATOM     11  N   UNL     1      -1.448 -11.030  16.962  0.00  0.00    -0.328 N 
ATOM     22  C   UNL     1      -1.513 -10.638  15.640  0.00  0.00    +0.231 C 
ATOM     40  H   UNL     1      -0.763 -10.624  17.590  0.00  0.00    +0.145 HD
ATOM     41  H   UNL     1      -2.059 -11.739  17.353  0.00  0.00    +0.145 HD
ENDBRANCH  19  22
BRANCH  19  21
ATOM     21  C   UNL     1      -2.866 -10.648  13.527  0.00  0.00    +0.074 C 
BRANCH  21  23
ATOM      1  S   UNL     1      -2.797 -13.277  12.611  0.00  0.00    -0.102 S 
ATOM     23  C   UNL     1      -3.208 -11.625  12.428  0.00  0.00    -0.008 A 
ATOM     25  C   UNL     1      -3.836 -11.379  11.227  0.00  0.00    +0.011 A 
ATOM     28  C   UNL     1      -3.982 -12.561  10.447  0.00  0.00    +0.008 A 
ATOM     29  C   UNL     1      -3.460 -13.668  11.081  0.00  0.00    +0.045 A 
ENDBRANCH  21  23
ENDBRANCH  19  21
ENDBRANCH   9  19
ENDBRANCH  12  18
BRANCH  12   2
ATOM      2  O   UNL     1      -6.448 -13.343  16.918  0.00  0.00    -0.379 OA
ATOM     35  H   UNL     1      -7.158 -13.265  17.578  0.00  0.00    +0.211 HD
ENDBRANCH  12   2
BRANCH  15   3
ATOM      3  O   UNL     1      -8.229 -10.285  19.743  0.00  0.00    -0.387 OA
ATOM     36  H   UNL     1      -8.326  -9.341  19.958  0.00  0.00    +0.210 HD
ENDBRANCH  15   3
BRANCH  17   4
ATOM      4  O   UNL     1      -5.781 -11.387  20.693  0.00  0.00    -0.389 OA
ATOM     37  H   UNL     1      -5.004 -11.957  20.822  0.00  0.00    +0.210 HD
ENDBRANCH  17   4
TORSDOF 10
ENDMDL
MODEL 9
REMARK VINA RESULT:      -6.9     24.292     27.484
REMARK  Name = 11882557
REMARK  11 active torsions:
REMARK  status: ('A' for Active; 'I' for Inactive)
REMARK    1  A    between atoms: O_2  and  C_12
REMARK    2  A    between atoms: O_3  and  C_15
REMARK    3  A    between atoms: O_4  and  C_17
REMARK    4  A    between atoms: N_8  and  C_13
REMARK    5  A    between atoms: N_9  and  C_19
REMARK    6  A    between atoms: N_10  and  C_24
REMARK    7  A    between atoms: C_12  and  C_18
REMARK    8  A    between atoms: C_19  and  C_21
REMARK    9  A    between atoms: C_19  and  C_22
REMARK   10  A    between atoms: C_21  and  C_23
REMARK   11  A    between atoms: C_32  and  C_33
REMARK                            x       y       z     vdW  Elec       q    Type
REMARK                         _______ _______ _______ _____ _____    ______ ____
ROOT
ATOM     12  C   UNL     1       9.775   7.885   7.215  0.00  0.00    +0.146 C 
ATOM     13  C   UNL     1      10.403   5.595   6.309  0.00  0.00    +0.109 C 
ATOM     14  C   UNL     1       9.814   6.973   5.988  0.00  0.00    +0.069 C 
ATOM     15  C   UNL     1       9.687   4.930   7.491  0.00  0.00    +0.163 C 
ATOM     16  C   UNL     1       9.043   7.220   8.378  0.00  0.00    +0.078 C 
ATOM     17  C   UNL     1       9.627   5.846   8.716  0.00  0.00    +0.148 C 
ENDROOT
BRANCH  13   8
ATOM      6  O   UNL     1      11.858   5.949   3.867  0.00  0.00    -0.252 OA
ATOM      8  N   UNL     1      10.341   4.751   5.136  0.00  0.00    -0.294 N 
ATOM     10  N   UNL     1      10.824   4.019   3.018  0.00  0.00    -0.269 N 
ATOM     20  C   UNL     1      11.088   4.997   3.981  0.00  0.00    +0.304 C 
ATOM     34  H   UNL     1       9.669   3.990   5.123  0.00  0.00    +0.151 HD
ATOM     39  H   UNL     1      10.156   3.296   3.273  0.00  0.00    +0.156 HD
BRANCH  10  24
ATOM     24  C   UNL     1      11.373   3.909   1.719  0.00  0.00    +0.035 A 
ATOM     26  C   UNL     1      12.626   3.323   1.540  0.00  0.00    +0.023 A 
ATOM     27  C   UNL     1      10.662   4.388   0.619  0.00  0.00    +0.023 A 
ATOM     30  C   UNL     1      13.168   3.216   0.258  0.00  0.00    +0.005 A 
ATOM     31  C   UNL     1      11.205   4.281  -0.662  0.00  0.00    +0.005 A 
ATOM     32  C   UNL     1      12.458   3.694  -0.842  0.00  0.00    -0.050 A 
ATOM     33  C   UNL     1      13.038   3.578  -2.211  0.00  0.00    +0.044 C 
ENDBRANCH  10  24
ENDBRANCH  13   8
BRANCH  12  18
ATOM      5  O   UNL     1       9.043  10.107   7.699  0.00  0.00    -0.273 OA
ATOM      9  N   UNL     1       8.644   9.225   5.582  0.00  0.00    -0.301 N 
ATOM     18  C   UNL     1       9.129   9.197   6.879  0.00  0.00    +0.246 C 
ATOM     38  H   UNL     1       8.699   8.394   5.003  0.00  0.00    +0.150 HD
BRANCH   9  19
ATOM     19  C   UNL     1       7.958  10.366   5.020  0.00  0.00    +0.163 C 
BRANCH  19  22
ATOM      7  O   UNL     1       7.122   8.998   3.194  0.00  0.00    -0.274 OA
ATOM     11  N   UNL     1       5.639  10.328   4.339  0.00  0.00    -0.328 N 
ATOM     22  C   UNL     1       6.896   9.826   4.072  0.00  0.00    +0.231 C 
ATOM     40  H   UNL     1       4.837  10.037   3.790  0.00  0.00    +0.145 HD
ATOM     41  H   UNL     1       5.466  11.010   5.070  0.00  0.00    +0.145 HD
ENDBRANCH  19  22
BRANCH  19  21
ATOM     21  C   UNL     1       8.911  11.308   4.274  0.00  0.00    +0.074 C 
BRANCH  21  23
ATOM      1  S   UNL     1      11.621  10.990   4.834  0.00  0.00    -0.102 S 
ATOM     23  C   UNL     1      10.218  10.640   3.917  0.00  0.00    -0.008 A 
ATOM     25  C   UNL     1      10.472   9.739   2.907  0.00  0.00    +0.011 A 
ATOM     28  C   UNL     1      11.836   9.330   2.884  0.00  0.00    +0.008 A 
ATOM     29  C   UNL     1      12.574   9.934   3.879  0.00  0.00    +0.045 A 
ENDBRANCH  21  23
ENDBRANCH  19  21
ENDBRANCH   9  19
ENDBRANCH  12  18
BRANCH  12   2
ATOM      2  O   UNL     1      11.096   8.220   7.627  0.00  0.00    -0.379 OA
ATOM     35  H   UNL     1      11.585   8.549   6.854  0.00  0.00    +0.211 HD
ENDBRANCH  12   2
BRANCH  15   3
ATOM      3  O   UNL     1      10.404   3.752   7.868  0.00  0.00    -0.387 OA
ATOM     36  H   UNL     1      10.933   3.463   7.105  0.00  0.00    +0.210 HD
ENDBRANCH  15   3
BRANCH  17   4
ATOM      4  O   UNL     1       8.805   5.227   9.705  0.00  0.00    -0.389 OA
ATOM     37  H   UNL     1       9.362   5.056  10.484  0.00  0.00    +0.210 HD
ENDBRANCH  17   4
TORSDOF 10
ENDMDL
MODEL 10
REMARK VINA RESULT:      -6.9      3.406      5.424
REMARK  Name = 11882557
REMARK  11 active torsions:
REMARK  status: ('A' for Active; 'I' for Inactive)
REMARK    1  A    between atoms: O_2  and  C_12
REMARK    2  A    between atoms: O_3  and  C_15
REMARK    3  A    between atoms: O_4  and  C_17
REMARK    4  A    between atoms: N_8  and  C_13
REMARK    5  A    between atoms: N_9  and  C_19
REMARK    6  A    between atoms: N_10  and  C_24
REMARK    7  A    between atoms: C_12  and  C_18
REMARK    8  A    between atoms: C_19  and  C_21
REMARK    9  A    between atoms: C_19  and  C_22
REMARK   10  A    between atoms: C_21  and  C_23
REMARK   11  A    between atoms: C_32  and  C_33
REMARK                            x       y       z     vdW  Elec       q    Type
REMARK                         _______ _______ _______ _____ _____    ______ ____
ROOT
ATOM     12  C   UNL     1      -3.235 -11.185  12.884  0.00  0.00    +0.146 C 
ATOM     13  C   UNL     1      -4.347 -10.775  15.132  0.00  0.00    +0.109 C 
ATOM     14  C   UNL     1      -4.292 -10.388  13.650  0.00  0.00    +0.069 C 
ATOM     15  C   UNL     1      -2.968 -10.681  15.798  0.00  0.00    +0.163 C 
ATOM     16  C   UNL     1      -1.864 -11.067  13.545  0.00  0.00    +0.078 C 
ATOM     17  C   UNL     1      -1.902 -11.460  15.024  0.00  0.00    +0.148 C 
ENDROOT
BRANCH  13   8
ATOM      6  O   UNL     1      -6.966 -11.532  16.011  0.00  0.00    -0.252 OA
ATOM      8  N   UNL     1      -5.303  -9.937  15.822  0.00  0.00    -0.294 N 
ATOM     10  N   UNL     1      -7.266  -9.363  16.858  0.00  0.00    -0.269 N 
ATOM     20  C   UNL     1      -6.566 -10.388  16.216  0.00  0.00    +0.304 C 
ATOM     34  H   UNL     1      -5.077  -8.956  15.958  0.00  0.00    +0.151 HD
ATOM     39  H   UNL     1      -6.788  -8.470  16.947  0.00  0.00    +0.156 HD
BRANCH  10  24
ATOM     24  C   UNL     1      -8.571  -9.411  17.403  0.00  0.00    +0.035 A 
ATOM     26  C   UNL     1      -9.527  -8.477  17.005  0.00  0.00    +0.023 A 
ATOM     27  C   UNL     1      -8.899 -10.392  18.338  0.00  0.00    +0.023 A 
ATOM     30  C   UNL     1     -10.813  -8.524  17.543  0.00  0.00    +0.005 A 
ATOM     31  C   UNL     1     -10.185 -10.438  18.876  0.00  0.00    +0.005 A 
ATOM     32  C   UNL     1     -11.143  -9.505  18.479  0.00  0.00    -0.050 A 
ATOM     33  C   UNL     1     -12.518  -9.554  19.053  0.00  0.00    +0.044 C 
ENDBRANCH  10  24
ENDBRANCH  13   8
BRANCH  12  18
ATOM      5  O   UNL     1      -2.303  -9.942  11.069  0.00  0.00    -0.273 OA
ATOM      9  N   UNL     1      -4.168 -11.279  10.679  0.00  0.00    -0.301 N 
ATOM     18  C   UNL     1      -3.162 -10.729  11.456  0.00  0.00    +0.246 C 
ATOM     38  H   UNL     1      -4.877 -11.865  11.109  0.00  0.00    +0.150 HD
BRANCH   9  19
ATOM     19  C   UNL     1      -4.333 -10.982   9.274  0.00  0.00    +0.163 C 
BRANCH  19  22
ATOM      7  O   UNL     1      -6.272  -9.533   9.488  0.00  0.00    -0.274 OA
ATOM     11  N   UNL     1      -4.292  -8.620   8.765  0.00  0.00    -0.328 N 
ATOM     22  C   UNL     1      -5.090  -9.665   9.181  0.00  0.00    +0.231 C 
ATOM     40  H   UNL     1      -4.668  -7.682   8.676  0.00  0.00    +0.145 HD
ATOM     41  H   UNL     1      -3.315  -8.742   8.519  0.00  0.00    +0.145 HD
ENDBRANCH  19  22
BRANCH  19  21
ATOM     21  C   UNL     1      -5.093 -12.088   8.532  0.00  0.00    +0.074 C 
BRANCH  21  23
ATOM      1  S   UNL     1      -3.644 -13.706   6.787  0.00  0.00    -0.102 S 
ATOM     23  C   UNL     1      -4.569 -12.306   7.132  0.00  0.00    -0.008 A 
ATOM     25  C   UNL     1      -4.727 -11.505   6.023  0.00  0.00    +0.011 A 
ATOM     28  C   UNL     1      -4.082 -12.046   4.875  0.00  0.00    +0.008 A 
ATOM     29  C   UNL     1      -3.454 -13.242   5.149  0.00  0.00    +0.045 A 
ENDBRANCH  21  23
ENDBRANCH  19  21
ENDBRANCH   9  19
ENDBRANCH  12  18
BRANCH  12   2
ATOM      2  O   UNL     1      -3.602 -12.558  12.814  0.00  0.00    -0.379 OA
ATOM     35  H   UNL     1      -3.379 -12.891  11.928  0.00  0.00    +0.211 HD
ENDBRANCH  12   2
BRANCH  15   3
ATOM      3  O   UNL     1      -3.045 -11.243  17.111  0.00  0.00    -0.387 OA
ATOM     36  H   UNL     1      -3.866 -10.928  17.527  0.00  0.00    +0.210 HD
ENDBRANCH  15   3
BRANCH  17   4
ATOM      4  O   UNL     1      -0.628 -11.186  15.606  0.00  0.00    -0.389 OA
ATOM     37  H   UNL     1      -0.043 -10.871  14.897  0.00  0.00    +0.210 HD
ENDBRANCH  17   4
TORSDOF 10
ENDMDL
