MODEL 1
REMARK VINA RESULT:      -8.1      0.000      0.000
REMARK  Name = 45783515
REMARK  6 active torsions:
REMARK  status: ('A' for Active; 'I' for Inactive)
REMARK    1  A    between atoms: O_2  and  C_16
REMARK    2  A    between atoms: O_2  and  C_31
REMARK    3  A    between atoms: N_4  and  C_13
REMARK    4  A    between atoms: C_9  and  C_14
REMARK    5  A    between atoms: C_13  and  C_15
REMARK    6  A    between atoms: C_17  and  C_21
REMARK                            x       y       z     vdW  Elec       q    Type
REMARK                         _______ _______ _______ _____ _____    ______ ____
ROOT
ATOM      1  O   UNL     1      13.952   6.750  19.920  0.00  0.00    -0.336 OA
ATOM      5  N   UNL     1      15.779   7.216  18.710  0.00  0.00    -0.190 NA
ATOM      7  N   UNL     1      15.048   6.409  20.722  0.00  0.00    -0.056 NA
ATOM     14  C   UNL     1      14.470   7.216  18.753  0.00  0.00    +0.245 A 
ATOM     17  C   UNL     1      16.088   6.712  19.940  0.00  0.00    +0.204 A 
ENDROOT
BRANCH  17  21
ATOM      3  O   UNL     1      23.994   5.240  22.239  0.00  0.00    -0.377 OA
ATOM      6  N   UNL     1      21.368   5.906  21.492  0.00  0.00    -0.311 N 
ATOM      8  N   UNL     1      19.536   5.329  20.108  0.00  0.00    -0.240 NA
ATOM     19  C   UNL     1      22.326   5.425  20.487  0.00  0.00    +0.134 C 
ATOM     20  C   UNL     1      21.670   5.527  22.876  0.00  0.00    +0.134 C 
ATOM     21  C   UNL     1      17.447   6.522  20.356  0.00  0.00    +0.041 A 
ATOM     23  C   UNL     1      20.040   6.102  21.096  0.00  0.00    +0.121 A 
ATOM     24  C   UNL     1      23.746   5.756  20.931  0.00  0.00    +0.178 C 
ATOM     25  C   UNL     1      23.126   5.852  23.193  0.00  0.00    +0.178 C 
ATOM     28  C   UNL     1      18.001   7.297  21.369  0.00  0.00    +0.016 A 
ATOM     29  C   UNL     1      19.322   7.089  21.753  0.00  0.00    +0.044 A 
ATOM     30  C   UNL     1      18.250   5.560  19.763  0.00  0.00    +0.124 A 
ENDBRANCH  17  21
BRANCH  14   9
ATOM      4  N   UNL     1      12.665   8.813  18.136  0.00  0.00    -0.287 NA
ATOM      9  C   UNL     1      13.475   7.658  17.701  0.00  0.00    +0.146 C 
ATOM     10  C   UNL     1      14.153   8.124  16.400  0.00  0.00    +0.030 C 
ATOM     11  C   UNL     1      13.617   9.527  16.153  0.00  0.00    +0.017 C 
ATOM     12  C   UNL     1      12.313   9.552  16.923  0.00  0.00    +0.085 C 
BRANCH   4  13
ATOM     13  C   UNL     1      11.487   8.432  18.907  0.00  0.00    +0.124 C 
BRANCH  13  15
ATOM     15  C   UNL     1      11.489   9.056  20.277  0.00  0.00    +0.008 A 
ATOM     16  C   UNL     1      10.943   8.382  21.369  0.00  0.00    +0.124 A 
ATOM     18  C   UNL     1      12.048  10.323  20.448  0.00  0.00    +0.008 A 
ATOM     22  C   UNL     1      10.953   8.974  22.632  0.00  0.00    +0.046 A 
ATOM     26  C   UNL     1      12.058  10.916  21.711  0.00  0.00    +0.001 A 
ATOM     27  C   UNL     1      11.511  10.241  22.803  0.00  0.00    +0.004 A 
BRANCH  16   2
ATOM      2  O   UNL     1      10.394   7.143  21.219  0.00  0.00    -0.495 OA
ATOM     31  C   UNL     1      11.163   6.034  21.682  0.00  0.00    +0.277 C 
ENDBRANCH  16   2
ENDBRANCH  13  15
ENDBRANCH   4  13
ENDBRANCH  14   9
TORSDOF 5
ENDMDL
MODEL 2
REMARK VINA RESULT:      -7.7      5.609      7.343
REMARK  Name = 45783515
REMARK  6 active torsions:
REMARK  status: ('A' for Active; 'I' for Inactive)
REMARK    1  A    between atoms: O_2  and  C_16
REMARK    2  A    between atoms: O_2  and  C_31
REMARK    3  A    between atoms: N_4  and  C_13
REMARK    4  A    between atoms: C_9  and  C_14
REMARK    5  A    between atoms: C_13  and  C_15
REMARK    6  A    between atoms: C_17  and  C_21
REMARK                            x       y       z     vdW  Elec       q    Type
REMARK                         _______ _______ _______ _____ _____    ______ ____
ROOT
ATOM      1  O   UNL     1      12.393   7.037  18.656  0.00  0.00    -0.336 OA
ATOM      5  N   UNL     1      13.517   8.926  19.089  0.00  0.00    -0.190 NA
ATOM      7  N   UNL     1      12.868   7.499  17.423  0.00  0.00    -0.056 NA
ATOM     14  C   UNL     1      12.819   7.935  19.584  0.00  0.00    +0.245 A 
ATOM     17  C   UNL     1      13.520   8.616  17.760  0.00  0.00    +0.204 A 
ENDROOT
BRANCH  17  21
ATOM      3  O   UNL     1      17.470  13.128  11.930  0.00  0.00    -0.377 OA
ATOM      6  N   UNL     1      16.076  11.762  13.951  0.00  0.00    -0.311 N 
ATOM      8  N   UNL     1      14.952   9.759  14.524  0.00  0.00    -0.240 NA
ATOM     19  C   UNL     1      15.657  11.640  12.549  0.00  0.00    +0.134 C 
ATOM     20  C   UNL     1      17.473  12.160  14.155  0.00  0.00    +0.134 C 
ATOM     21  C   UNL     1      14.182   9.444  16.795  0.00  0.00    +0.041 A 
ATOM     23  C   UNL     1      15.432  10.964  14.904  0.00  0.00    +0.121 A 
ATOM     24  C   UNL     1      16.071  12.888  11.778  0.00  0.00    +0.178 C 
ATOM     25  C   UNL     1      17.790  13.380  13.297  0.00  0.00    +0.178 C 
ATOM     28  C   UNL     1      14.690  10.690  17.147  0.00  0.00    +0.016 A 
ATOM     29  C   UNL     1      15.328  11.471  16.190  0.00  0.00    +0.044 A 
ATOM     30  C   UNL     1      14.338   9.029  15.481  0.00  0.00    +0.124 A 
ENDBRANCH  17  21
BRANCH  14   9
ATOM      4  N   UNL     1      11.694   8.778  21.636  0.00  0.00    -0.287 NA
ATOM      9  C   UNL     1      12.431   7.657  21.021  0.00  0.00    +0.146 C 
ATOM     10  C   UNL     1      11.489   6.447  21.159  0.00  0.00    +0.030 C 
ATOM     11  C   UNL     1      10.278   6.970  21.916  0.00  0.00    +0.017 C 
ATOM     12  C   UNL     1      10.810   8.189  22.642  0.00  0.00    +0.085 C 
BRANCH   4  13
ATOM     13  C   UNL     1      12.567   9.799  22.203  0.00  0.00    +0.124 C 
BRANCH  13  15
ATOM     15  C   UNL     1      12.101  11.188  21.859  0.00  0.00    +0.008 A 
ATOM     16  C   UNL     1      11.213  11.870  22.691  0.00  0.00    +0.124 A 
ATOM     18  C   UNL     1      12.569  11.795  20.692  0.00  0.00    +0.008 A 
ATOM     22  C   UNL     1      10.792  13.157  22.358  0.00  0.00    +0.046 A 
ATOM     26  C   UNL     1      12.147  13.082  20.358  0.00  0.00    +0.001 A 
ATOM     27  C   UNL     1      11.259  13.763  21.191  0.00  0.00    +0.004 A 
BRANCH  16   2
ATOM      2  O   UNL     1      10.747  11.292  23.834  0.00  0.00    -0.495 OA
ATOM     31  C   UNL     1      10.955  12.006  25.051  0.00  0.00    +0.277 C 
ENDBRANCH  16   2
ENDBRANCH  13  15
ENDBRANCH   4  13
ENDBRANCH  14   9
TORSDOF 5
ENDMDL
MODEL 3
REMARK VINA RESULT:      -7.4      1.582      3.679
REMARK  Name = 45783515
REMARK  6 active torsions:
REMARK  status: ('A' for Active; 'I' for Inactive)
REMARK    1  A    between atoms: O_2  and  C_16
REMARK    2  A    between atoms: O_2  and  C_31
REMARK    3  A    between atoms: N_4  and  C_13
REMARK    4  A    between atoms: C_9  and  C_14
REMARK    5  A    between atoms: C_13  and  C_15
REMARK    6  A    between atoms: C_17  and  C_21
REMARK                            x       y       z     vdW  Elec       q    Type
REMARK                         _______ _______ _______ _____ _____    ______ ____
ROOT
ATOM      1  O   UNL     1      14.443   6.916  19.501  0.00  0.00    -0.336 OA
ATOM      5  N   UNL     1      15.574   7.425  21.367  0.00  0.00    -0.190 NA
ATOM      7  N   UNL     1      15.744   6.435  19.311  0.00  0.00    -0.056 NA
ATOM     14  C   UNL     1      14.428   7.484  20.736  0.00  0.00    +0.245 A 
ATOM     17  C   UNL     1      16.351   6.773  20.453  0.00  0.00    +0.204 A 
ENDROOT
BRANCH  17  21
ATOM      3  O   UNL     1      24.337   4.694  21.808  0.00  0.00    -0.377 OA
ATOM      6  N   UNL     1      21.697   5.559  21.389  0.00  0.00    -0.311 N 
ATOM      8  N   UNL     1      19.709   5.205  20.154  0.00  0.00    -0.240 NA
ATOM     19  C   UNL     1      22.523   5.122  20.256  0.00  0.00    +0.134 C 
ATOM     20  C   UNL     1      22.108   5.043  22.699  0.00  0.00    +0.134 C 
ATOM     21  C   UNL     1      17.729   6.477  20.712  0.00  0.00    +0.041 A 
ATOM     23  C   UNL     1      20.351   5.858  21.147  0.00  0.00    +0.121 A 
ATOM     24  C   UNL     1      23.997   5.338  20.580  0.00  0.00    +0.178 C 
ATOM     25  C   UNL     1      23.604   5.262  22.892  0.00  0.00    +0.178 C 
ATOM     28  C   UNL     1      18.424   7.127  21.725  0.00  0.00    +0.016 A 
ATOM     29  C   UNL     1      19.761   6.818  21.954  0.00  0.00    +0.044 A 
ATOM     30  C   UNL     1      18.411   5.532  19.961  0.00  0.00    +0.124 A 
ENDBRANCH  17  21
BRANCH  14   9
ATOM      4  N   UNL     1      12.295   8.571  20.056  0.00  0.00    -0.287 NA
ATOM      9  C   UNL     1      13.114   8.086  21.186  0.00  0.00    +0.146 C 
ATOM     10  C   UNL     1      12.213   7.072  21.914  0.00  0.00    +0.030 C 
ATOM     11  C   UNL     1      10.892   7.100  21.160  0.00  0.00    +0.017 C 
ATOM     12  C   UNL     1      10.899   8.452  20.477  0.00  0.00    +0.085 C 
BRANCH   4  13
ATOM     13  C   UNL     1      12.630   9.929  19.644  0.00  0.00    +0.124 C 
BRANCH  13  15
ATOM     15  C   UNL     1      13.214   9.964  18.257  0.00  0.00    +0.008 A 
ATOM     16  C   UNL     1      14.359  10.712  17.984  0.00  0.00    +0.124 A 
ATOM     18  C   UNL     1      12.597   9.237  17.238  0.00  0.00    +0.008 A 
ATOM     22  C   UNL     1      14.888  10.734  16.693  0.00  0.00    +0.046 A 
ATOM     26  C   UNL     1      13.125   9.259  15.947  0.00  0.00    +0.001 A 
ATOM     27  C   UNL     1      14.270  10.008  15.675  0.00  0.00    +0.004 A 
BRANCH  16   2
ATOM      2  O   UNL     1      14.974  11.428  18.967  0.00  0.00    -0.495 OA
ATOM     31  C   UNL     1      15.987  10.760  19.717  0.00  0.00    +0.277 C 
ENDBRANCH  16   2
ENDBRANCH  13  15
ENDBRANCH   4  13
ENDBRANCH  14   9
TORSDOF 5
ENDMDL
MODEL 4
REMARK VINA RESULT:      -7.3     26.153     30.429
REMARK  Name = 45783515
REMARK  6 active torsions:
REMARK  status: ('A' for Active; 'I' for Inactive)
REMARK    1  A    between atoms: O_2  and  C_16
REMARK    2  A    between atoms: O_2  and  C_31
REMARK    3  A    between atoms: N_4  and  C_13
REMARK    4  A    between atoms: C_9  and  C_14
REMARK    5  A    between atoms: C_13  and  C_15
REMARK    6  A    between atoms: C_17  and  C_21
REMARK                            x       y       z     vdW  Elec       q    Type
REMARK                         _______ _______ _______ _____ _____    ______ ____
ROOT
ATOM      1  O   UNL     1      -4.970  -9.830  16.032  0.00  0.00    -0.336 OA
ATOM      5  N   UNL     1      -5.089 -11.854  16.984  0.00  0.00    -0.190 NA
ATOM      7  N   UNL     1      -6.166  -9.849  16.759  0.00  0.00    -0.056 NA
ATOM     14  C   UNL     1      -4.397 -11.049  16.218  0.00  0.00    +0.245 A 
ATOM     17  C   UNL     1      -6.166 -11.074  17.292  0.00  0.00    +0.204 A 
ENDROOT
BRANCH  17  21
ATOM      3  O   UNL     1     -12.336 -14.184  22.004  0.00  0.00    -0.377 OA
ATOM      6  N   UNL     1     -10.246 -13.009  20.538  0.00  0.00    -0.311 N 
ATOM      8  N   UNL     1      -8.396 -13.421  19.120  0.00  0.00    -0.240 NA
ATOM     19  C   UNL     1     -10.033 -14.278  21.247  0.00  0.00    +0.134 C 
ATOM     20  C   UNL     1     -11.643 -12.700  20.213  0.00  0.00    +0.134 C 
ATOM     21  C   UNL     1      -7.224 -11.550  18.134  0.00  0.00    +0.041 A 
ATOM     23  C   UNL     1      -9.217 -12.530  19.719  0.00  0.00    +0.121 A 
ATOM     24  C   UNL     1     -10.987 -14.371  22.433  0.00  0.00    +0.178 C 
ATOM     25  C   UNL     1     -12.511 -12.878  21.454  0.00  0.00    +0.178 C 
ATOM     28  C   UNL     1      -8.090 -10.665  18.767  0.00  0.00    +0.016 A 
ATOM     29  C   UNL     1      -9.108 -11.156  19.576  0.00  0.00    +0.044 A 
ATOM     30  C   UNL     1      -7.418 -12.907  18.342  0.00  0.00    +0.124 A 
ENDBRANCH  17  21
BRANCH  14   9
ATOM      4  N   UNL     1      -2.958 -10.545  14.252  0.00  0.00    -0.287 NA
ATOM      9  C   UNL     1      -3.072 -11.285  15.525  0.00  0.00    +0.146 C 
ATOM     10  C   UNL     1      -1.870 -10.810  16.362  0.00  0.00    +0.030 C 
ATOM     11  C   UNL     1      -1.107  -9.855  15.457  0.00  0.00    +0.017 C 
ATOM     12  C   UNL     1      -1.534 -10.266  14.063  0.00  0.00    +0.085 C 
BRANCH   4  13
ATOM     13  C   UNL     1      -3.532 -11.258  13.118  0.00  0.00    +0.124 C 
BRANCH  13  15
ATOM     15  C   UNL     1      -3.941 -10.319  12.015  0.00  0.00    +0.008 A 
ATOM     16  C   UNL     1      -5.204  -9.729  12.011  0.00  0.00    +0.124 A 
ATOM     18  C   UNL     1      -3.038 -10.039  10.989  0.00  0.00    +0.008 A 
ATOM     22  C   UNL     1      -5.567  -8.860  10.982  0.00  0.00    +0.046 A 
ATOM     26  C   UNL     1      -3.400  -9.170   9.958  0.00  0.00    +0.001 A 
ATOM     27  C   UNL     1      -4.664  -8.581   9.956  0.00  0.00    +0.004 A 
BRANCH  16   2
ATOM      2  O   UNL     1      -6.098  -9.991  13.007  0.00  0.00    -0.495 OA
ATOM     31  C   UNL     1      -7.426  -9.501  12.830  0.00  0.00    +0.277 C 
ENDBRANCH  16   2
ENDBRANCH  13  15
ENDBRANCH   4  13
ENDBRANCH  14   9
TORSDOF 5
ENDMDL
MODEL 5
REMARK VINA RESULT:      -7.3      1.864      2.853
REMARK  Name = 45783515
REMARK  6 active torsions:
REMARK  status: ('A' for Active; 'I' for Inactive)
REMARK    1  A    between atoms: O_2  and  C_16
REMARK    2  A    between atoms: O_2  and  C_31
REMARK    3  A    between atoms: N_4  and  C_13
REMARK    4  A    between atoms: C_9  and  C_14
REMARK    5  A    between atoms: C_13  and  C_15
REMARK    6  A    between atoms: C_17  and  C_21
REMARK                            x       y       z     vdW  Elec       q    Type
REMARK                         _______ _______ _______ _____ _____    ______ ____
ROOT
ATOM      1  O   UNL     1      15.764   6.215  18.881  0.00  0.00    -0.336 OA
ATOM      5  N   UNL     1      17.038   7.511  20.192  0.00  0.00    -0.190 NA
ATOM      7  N   UNL     1      16.980   5.538  19.034  0.00  0.00    -0.056 NA
ATOM     14  C   UNL     1      15.882   7.367  19.595  0.00  0.00    +0.245 A 
ATOM     17  C   UNL     1      17.678   6.364  19.819  0.00  0.00    +0.204 A 
ENDROOT
BRANCH  17  21
ATOM      3  O   UNL     1      25.562   5.055  22.284  0.00  0.00    -0.377 OA
ATOM      6  N   UNL     1      22.875   5.332  21.508  0.00  0.00    -0.311 N 
ATOM      8  N   UNL     1      21.061   6.836  21.290  0.00  0.00    -0.240 NA
ATOM     19  C   UNL     1      23.390   6.063  22.673  0.00  0.00    +0.134 C 
ATOM     20  C   UNL     1      23.889   4.916  20.532  0.00  0.00    +0.134 C 
ATOM     21  C   UNL     1      19.016   6.076  20.247  0.00  0.00    +0.041 A 
ATOM     23  C   UNL     1      21.569   5.600  21.085  0.00  0.00    +0.121 A 
ATOM     24  C   UNL     1      24.568   5.306  23.277  0.00  0.00    +0.178 C 
ATOM     25  C   UNL     1      25.040   4.221  21.250  0.00  0.00    +0.178 C 
ATOM     28  C   UNL     1      19.574   4.817  20.054  0.00  0.00    +0.016 A 
ATOM     29  C   UNL     1      20.874   4.565  20.478  0.00  0.00    +0.044 A 
ATOM     30  C   UNL     1      19.794   7.042  20.865  0.00  0.00    +0.124 A 
ENDBRANCH  17  21
BRANCH  14   9
ATOM      4  N   UNL     1      14.812   9.394  20.562  0.00  0.00    -0.287 NA
ATOM      9  C   UNL     1      14.681   8.290  19.591  0.00  0.00    +0.146 C 
ATOM     10  C   UNL     1      14.471   8.985  18.234  0.00  0.00    +0.030 C 
ATOM     11  C   UNL     1      14.436  10.473  18.551  0.00  0.00    +0.017 C 
ATOM     12  C   UNL     1      14.050  10.518  20.015  0.00  0.00    +0.085 C 
BRANCH   4  13
ATOM     13  C   UNL     1      14.371   9.035  21.904  0.00  0.00    +0.124 C 
BRANCH  13  15
ATOM     15  C   UNL     1      12.974   8.475  21.903  0.00  0.00    +0.008 A 
ATOM     16  C   UNL     1      11.892   9.254  22.313  0.00  0.00    +0.124 A 
ATOM     18  C   UNL     1      12.766   7.160  21.484  0.00  0.00    +0.008 A 
ATOM     22  C   UNL     1      10.603   8.720  22.306  0.00  0.00    +0.046 A 
ATOM     26  C   UNL     1      11.478   6.625  21.476  0.00  0.00    +0.001 A 
ATOM     27  C   UNL     1      10.397   7.405  21.887  0.00  0.00    +0.004 A 
BRANCH  16   2
ATOM      2  O   UNL     1      12.077  10.540  22.726  0.00  0.00    -0.495 OA
ATOM     31  C   UNL     1      11.195  11.525  22.190  0.00  0.00    +0.277 C 
ENDBRANCH  16   2
ENDBRANCH  13  15
ENDBRANCH   4  13
ENDBRANCH  14   9
TORSDOF 5
ENDMDL
MODEL 6
REMARK VINA RESULT:      -7.2      2.551     10.779
REMARK  Name = 45783515
REMARK  6 active torsions:
REMARK  status: ('A' for Active; 'I' for Inactive)
REMARK    1  A    between atoms: O_2  and  C_16
REMARK    2  A    between atoms: O_2  and  C_31
REMARK    3  A    between atoms: N_4  and  C_13
REMARK    4  A    between atoms: C_9  and  C_14
REMARK    5  A    between atoms: C_13  and  C_15
REMARK    6  A    between atoms: C_17  and  C_21
REMARK                            x       y       z     vdW  Elec       q    Type
REMARK                         _______ _______ _______ _____ _____    ______ ____
ROOT
ATOM      1  O   UNL     1      22.181   6.801  22.059  0.00  0.00    -0.336 OA
ATOM      5  N   UNL     1      20.196   6.444  23.034  0.00  0.00    -0.190 NA
ATOM      7  N   UNL     1      21.212   7.159  21.113  0.00  0.00    -0.056 NA
ATOM     14  C   UNL     1      21.498   6.391  23.161  0.00  0.00    +0.245 A 
ATOM     17  C   UNL     1      20.068   6.921  21.762  0.00  0.00    +0.204 A 
ENDROOT
BRANCH  17  21
ATOM      3  O   UNL     1      12.491   8.479  18.583  0.00  0.00    -0.377 OA
ATOM      6  N   UNL     1      15.079   7.878  19.499  0.00  0.00    -0.311 N 
ATOM      8  N   UNL     1      16.869   8.593  20.873  0.00  0.00    -0.240 NA
ATOM     19  C   UNL     1      14.699   9.267  19.207  0.00  0.00    +0.134 C 
ATOM     20  C   UNL     1      13.963   6.971  19.786  0.00  0.00    +0.134 C 
ATOM     21  C   UNL     1      18.783   7.146  21.167  0.00  0.00    +0.041 A 
ATOM     23  C   UNL     1      16.334   7.645  20.073  0.00  0.00    +0.121 A 
ATOM     24  C   UNL     1      13.589   9.288  18.162  0.00  0.00    +0.178 C 
ATOM     25  C   UNL     1      12.893   7.115  18.710  0.00  0.00    +0.178 C 
ATOM     28  C   UNL     1      18.200   6.195  20.338  0.00  0.00    +0.016 A 
ATOM     29  C   UNL     1      16.952   6.440  19.776  0.00  0.00    +0.044 A 
ATOM     30  C   UNL     1      18.083   8.319  21.400  0.00  0.00    +0.124 A 
ENDBRANCH  17  21
BRANCH  14   9
ATOM      4  N   UNL     1      23.294   4.883  23.992  0.00  0.00    -0.287 NA
ATOM      9  C   UNL     1      22.331   5.945  24.344  0.00  0.00    +0.146 C 
ATOM     10  C   UNL     1      23.196   7.080  24.924  0.00  0.00    +0.030 C 
ATOM     11  C   UNL     1      24.618   6.540  24.914  0.00  0.00    +0.017 C 
ATOM     12  C   UNL     1      24.430   5.037  24.901  0.00  0.00    +0.085 C 
BRANCH   4  13
ATOM     13  C   UNL     1      22.720   3.543  24.053  0.00  0.00    +0.124 C 
BRANCH  13  15
ATOM     15  C   UNL     1      23.439   2.585  23.142  0.00  0.00    +0.008 A 
ATOM     16  C   UNL     1      23.332   2.701  21.757  0.00  0.00    +0.124 A 
ATOM     18  C   UNL     1      24.220   1.571  23.699  0.00  0.00    +0.008 A 
ATOM     22  C   UNL     1      24.004   1.805  20.926  0.00  0.00    +0.046 A 
ATOM     26  C   UNL     1      24.893   0.674  22.868  0.00  0.00    +0.001 A 
ATOM     27  C   UNL     1      24.785   0.791  21.482  0.00  0.00    +0.004 A 
BRANCH  16   2
ATOM      2  O   UNL     1      22.573   3.686  21.197  0.00  0.00    -0.495 OA
ATOM     31  C   UNL     1      21.206   3.376  20.929  0.00  0.00    +0.277 C 
ENDBRANCH  16   2
ENDBRANCH  13  15
ENDBRANCH   4  13
ENDBRANCH  14   9
TORSDOF 5
ENDMDL
MODEL 7
REMARK VINA RESULT:      -7.0     25.905     30.299
REMARK  Name = 45783515
REMARK  6 active torsions:
REMARK  status: ('A' for Active; 'I' for Inactive)
REMARK    1  A    between atoms: O_2  and  C_16
REMARK    2  A    between atoms: O_2  and  C_31
REMARK    3  A    between atoms: N_4  and  C_13
REMARK    4  A    between atoms: C_9  and  C_14
REMARK    5  A    between atoms: C_13  and  C_15
REMARK    6  A    between atoms: C_17  and  C_21
REMARK                            x       y       z     vdW  Elec       q    Type
REMARK                         _______ _______ _______ _____ _____    ______ ____
ROOT
ATOM      1  O   UNL     1      -4.788 -10.770  17.357  0.00  0.00    -0.336 OA
ATOM      5  N   UNL     1      -5.700 -10.246  15.379  0.00  0.00    -0.190 NA
ATOM      7  N   UNL     1      -6.084 -10.319  17.633  0.00  0.00    -0.056 NA
ATOM     14  C   UNL     1      -4.643 -10.695  16.008  0.00  0.00    +0.245 A 
ATOM     17  C   UNL     1      -6.558 -10.028  16.418  0.00  0.00    +0.204 A 
ENDROOT
BRANCH  17  21
ATOM      3  O   UNL     1     -14.206  -7.047  14.813  0.00  0.00    -0.377 OA
ATOM      6  N   UNL     1     -11.690  -8.085  15.515  0.00  0.00    -0.311 N 
ATOM      8  N   UNL     1      -9.781  -9.247  14.736  0.00  0.00    -0.240 NA
ATOM     19  C   UNL     1     -12.561  -8.816  14.585  0.00  0.00    +0.134 C 
ATOM     20  C   UNL     1     -11.952  -6.645  15.616  0.00  0.00    +0.134 C 
ATOM     21  C   UNL     1      -7.882  -9.519  16.208  0.00  0.00    +0.041 A 
ATOM     23  C   UNL     1     -10.399  -8.577  15.734  0.00  0.00    +0.121 A 
ATOM     24  C   UNL     1     -14.019  -8.462  14.858  0.00  0.00    +0.178 C 
ATOM     25  C   UNL     1     -13.442  -6.407  15.834  0.00  0.00    +0.178 C 
ATOM     28  C   UNL     1      -8.550  -8.824  17.210  0.00  0.00    +0.016 A 
ATOM     29  C   UNL     1      -9.832  -8.340  16.977  0.00  0.00    +0.044 A 
ATOM     30  C   UNL     1      -8.536  -9.702  15.000  0.00  0.00    +0.124 A 
ENDBRANCH  17  21
BRANCH  14   9
ATOM      4  N   UNL     1      -3.016 -10.528  14.132  0.00  0.00    -0.287 NA
ATOM      9  C   UNL     1      -3.307 -11.135  15.447  0.00  0.00    +0.146 C 
ATOM     10  C   UNL     1      -2.122 -10.721  16.339  0.00  0.00    +0.030 C 
ATOM     11  C   UNL     1      -1.191  -9.939  15.425  0.00  0.00    +0.017 C 
ATOM     12  C   UNL     1      -1.560 -10.424  14.038  0.00  0.00    +0.085 C 
BRANCH   4  13
ATOM     13  C   UNL     1      -3.586 -11.273  13.016  0.00  0.00    +0.124 C 
BRANCH  13  15
ATOM     15  C   UNL     1      -3.903 -10.377  11.849  0.00  0.00    +0.008 A 
ATOM     16  C   UNL     1      -5.215  -9.983  11.588  0.00  0.00    +0.124 A 
ATOM     18  C   UNL     1      -2.866  -9.938  11.025  0.00  0.00    +0.008 A 
ATOM     22  C   UNL     1      -5.493  -9.151  10.502  0.00  0.00    +0.046 A 
ATOM     26  C   UNL     1      -3.143  -9.107   9.939  0.00  0.00    +0.001 A 
ATOM     27  C   UNL     1      -4.456  -8.714   9.678  0.00  0.00    +0.004 A 
BRANCH  16   2
ATOM      2  O   UNL     1      -6.240 -10.402  12.383  0.00  0.00    -0.495 OA
ATOM     31  C   UNL     1      -7.237 -11.221  11.776  0.00  0.00    +0.277 C 
ENDBRANCH  16   2
ENDBRANCH  13  15
ENDBRANCH   4  13
ENDBRANCH  14   9
TORSDOF 5
ENDMDL
MODEL 8
REMARK VINA RESULT:      -7.0      4.179      7.910
REMARK  Name = 45783515
REMARK  6 active torsions:
REMARK  status: ('A' for Active; 'I' for Inactive)
REMARK    1  A    between atoms: O_2  and  C_16
REMARK    2  A    between atoms: O_2  and  C_31
REMARK    3  A    between atoms: N_4  and  C_13
REMARK    4  A    between atoms: C_9  and  C_14
REMARK    5  A    between atoms: C_13  and  C_15
REMARK    6  A    between atoms: C_17  and  C_21
REMARK                            x       y       z     vdW  Elec       q    Type
REMARK                         _______ _______ _______ _____ _____    ______ ____
ROOT
ATOM      1  O   UNL     1      12.872  10.584  19.333  0.00  0.00    -0.336 OA
ATOM      5  N   UNL     1      13.694   9.299  17.692  0.00  0.00    -0.190 NA
ATOM      7  N   UNL     1      13.550  11.447  18.464  0.00  0.00    -0.056 NA
ATOM     14  C   UNL     1      13.005   9.338  18.805  0.00  0.00    +0.245 A 
ATOM     17  C   UNL     1      14.007  10.616  17.523  0.00  0.00    +0.204 A 
ENDROOT
BRANCH  17  21
ATOM      3  O   UNL     1      18.496  12.899  10.846  0.00  0.00    -0.377 OA
ATOM      6  N   UNL     1      16.968  12.302  13.127  0.00  0.00    -0.311 N 
ATOM      8  N   UNL     1      15.411  10.798  14.084  0.00  0.00    -0.240 NA
ATOM     19  C   UNL     1      16.415  12.079  11.784  0.00  0.00    +0.134 C 
ATOM     20  C   UNL     1      18.432  12.331  13.204  0.00  0.00    +0.134 C 
ATOM     21  C   UNL     1      14.780  11.069  16.403  0.00  0.00    +0.041 A 
ATOM     23  C   UNL     1      16.220  11.871  14.229  0.00  0.00    +0.121 A 
ATOM     24  C   UNL     1      17.076  13.029  10.792  0.00  0.00    +0.178 C 
ATOM     25  C   UNL     1      18.985  13.267  12.135  0.00  0.00    +0.178 C 
ATOM     28  C   UNL     1      15.623  12.168  16.512  0.00  0.00    +0.016 A 
ATOM     29  C   UNL     1      16.362  12.584  15.409  0.00  0.00    +0.044 A 
ATOM     30  C   UNL     1      14.709  10.424  15.178  0.00  0.00    +0.124 A 
ENDBRANCH  17  21
BRANCH  14   9
ATOM      4  N   UNL     1      13.000   7.949  20.869  0.00  0.00    -0.287 NA
ATOM      9  C   UNL     1      12.350   8.207  19.569  0.00  0.00    +0.146 C 
ATOM     10  C   UNL     1      10.879   8.501  19.920  0.00  0.00    +0.030 C 
ATOM     11  C   UNL     1      10.787   8.324  21.428  0.00  0.00    +0.017 C 
ATOM     12  C   UNL     1      11.961   7.423  21.755  0.00  0.00    +0.085 C 
BRANCH   4  13
ATOM     13  C   UNL     1      14.144   7.049  20.771  0.00  0.00    +0.124 C 
BRANCH  13  15
ATOM     15  C   UNL     1      15.444   7.770  21.005  0.00  0.00    +0.008 A 
ATOM     16  C   UNL     1      16.659   7.182  20.655  0.00  0.00    +0.124 A 
ATOM     18  C   UNL     1      15.426   9.042  21.578  0.00  0.00    +0.008 A 
ATOM     22  C   UNL     1      17.856   7.863  20.877  0.00  0.00    +0.046 A 
ATOM     26  C   UNL     1      16.622   9.724  21.801  0.00  0.00    +0.001 A 
ATOM     27  C   UNL     1      17.837   9.134  21.451  0.00  0.00    +0.004 A 
BRANCH  16   2
ATOM      2  O   UNL     1      16.695   5.939  20.094  0.00  0.00    -0.495 OA
ATOM     31  C   UNL     1      17.529   5.770  18.949  0.00  0.00    +0.277 C 
ENDBRANCH  16   2
ENDBRANCH  13  15
ENDBRANCH   4  13
ENDBRANCH  14   9
TORSDOF 5
ENDMDL
MODEL 9
REMARK VINA RESULT:      -7.0      2.754     10.749
REMARK  Name = 45783515
REMARK  6 active torsions:
REMARK  status: ('A' for Active; 'I' for Inactive)
REMARK    1  A    between atoms: O_2  and  C_16
REMARK    2  A    between atoms: O_2  and  C_31
REMARK    3  A    between atoms: N_4  and  C_13
REMARK    4  A    between atoms: C_9  and  C_14
REMARK    5  A    between atoms: C_13  and  C_15
REMARK    6  A    between atoms: C_17  and  C_21
REMARK                            x       y       z     vdW  Elec       q    Type
REMARK                         _______ _______ _______ _____ _____    ______ ____
ROOT
ATOM      1  O   UNL     1      21.077   6.033  23.266  0.00  0.00    -0.336 OA
ATOM      5  N   UNL     1      20.648   5.827  21.076  0.00  0.00    -0.190 NA
ATOM      7  N   UNL     1      19.793   6.557  23.069  0.00  0.00    -0.056 NA
ATOM     14  C   UNL     1      21.509   5.626  22.042  0.00  0.00    +0.245 A 
ATOM     17  C   UNL     1      19.612   6.401  21.754  0.00  0.00    +0.204 A 
ENDROOT
BRANCH  17  21
ATOM      3  O   UNL     1      12.501   8.974  18.182  0.00  0.00    -0.377 OA
ATOM      6  N   UNL     1      14.943   8.054  19.224  0.00  0.00    -0.311 N 
ATOM      8  N   UNL     1      16.622   8.419  20.852  0.00  0.00    -0.240 NA
ATOM     19  C   UNL     1      14.676   9.495  19.121  0.00  0.00    +0.134 C 
ATOM     20  C   UNL     1      13.752   7.198  19.262  0.00  0.00    +0.134 C 
ATOM     21  C   UNL     1      18.409   6.807  21.088  0.00  0.00    +0.041 A 
ATOM     23  C   UNL     1      16.117   7.644  19.866  0.00  0.00    +0.121 A 
ATOM     24  C   UNL     1      13.682   9.755  17.995  0.00  0.00    +0.178 C 
ATOM     25  C   UNL     1      12.807   7.581  18.129  0.00  0.00    +0.178 C 
ATOM     28  C   UNL     1      17.858   6.037  20.070  0.00  0.00    +0.016 A 
ATOM     29  C   UNL     1      16.690   6.456  19.442  0.00  0.00    +0.044 A 
ATOM     30  C   UNL     1      17.758   7.980  21.438  0.00  0.00    +0.124 A 
ENDBRANCH  17  21
BRANCH  14   9
ATOM      4  N   UNL     1      23.057   4.095  20.838  0.00  0.00    -0.287 NA
ATOM      9  C   UNL     1      22.891   5.012  21.984  0.00  0.00    +0.146 C 
ATOM     10  C   UNL     1      24.002   6.063  21.808  0.00  0.00    +0.030 C 
ATOM     11  C   UNL     1      24.776   5.621  20.575  0.00  0.00    +0.017 C 
ATOM     12  C   UNL     1      24.474   4.140  20.476  0.00  0.00    +0.085 C 
BRANCH   4  13
ATOM     13  C   UNL     1      22.605   2.738  21.118  0.00  0.00    +0.124 C 
BRANCH  13  15
ATOM     15  C   UNL     1      23.601   1.976  21.950  0.00  0.00    +0.008 A 
ATOM     16  C   UNL     1      23.482   1.929  23.339  0.00  0.00    +0.124 A 
ATOM     18  C   UNL     1      24.653   1.312  21.318  0.00  0.00    +0.008 A 
ATOM     22  C   UNL     1      24.414   1.218  24.097  0.00  0.00    +0.046 A 
ATOM     26  C   UNL     1      25.585   0.601  22.075  0.00  0.00    +0.001 A 
ATOM     27  C   UNL     1      25.465   0.555  23.464  0.00  0.00    +0.004 A 
BRANCH  16   2
ATOM      2  O   UNL     1      22.461   2.572  23.973  0.00  0.00    -0.495 OA
ATOM     31  C   UNL     1      22.753   3.159  25.240  0.00  0.00    +0.277 C 
ENDBRANCH  16   2
ENDBRANCH  13  15
ENDBRANCH   4  13
ENDBRANCH  14   9
TORSDOF 5
ENDMDL
MODEL 10
REMARK VINA RESULT:      -6.9      2.580     10.713
REMARK  Name = 45783515
REMARK  6 active torsions:
REMARK  status: ('A' for Active; 'I' for Inactive)
REMARK    1  A    between atoms: O_2  and  C_16
REMARK    2  A    between atoms: O_2  and  C_31
REMARK    3  A    between atoms: N_4  and  C_13
REMARK    4  A    between atoms: C_9  and  C_14
REMARK    5  A    between atoms: C_13  and  C_15
REMARK    6  A    between atoms: C_17  and  C_21
REMARK                            x       y       z     vdW  Elec       q    Type
REMARK                         _______ _______ _______ _____ _____    ______ ____
ROOT
ATOM      1  O   UNL     1      20.772   6.376  20.843  0.00  0.00    -0.336 OA
ATOM      5  N   UNL     1      19.274   6.874  22.433  0.00  0.00    -0.190 NA
ATOM      7  N   UNL     1      19.558   6.589  20.181  0.00  0.00    -0.056 NA
ATOM     14  C   UNL     1      20.518   6.563  22.166  0.00  0.00    +0.245 A 
ATOM     17  C   UNL     1      18.723   6.877  21.184  0.00  0.00    +0.204 A 
ENDROOT
BRANCH  17  21
ATOM      3  O   UNL     1      10.566   8.217  19.911  0.00  0.00    -0.377 OA
ATOM      6  N   UNL     1      13.320   7.933  20.395  0.00  0.00    -0.311 N 
ATOM      8  N   UNL     1      15.033   6.440  21.057  0.00  0.00    -0.240 NA
ATOM     19  C   UNL     1      12.342   7.251  21.252  0.00  0.00    +0.134 C 
ATOM     20  C   UNL     1      12.836   8.292  19.058  0.00  0.00    +0.134 C 
ATOM     21  C   UNL     1      17.336   7.172  20.973  0.00  0.00    +0.041 A 
ATOM     23  C   UNL     1      14.678   7.659  20.595  0.00  0.00    +0.121 A 
ATOM     24  C   UNL     1      11.027   8.023  21.249  0.00  0.00    +0.178 C 
ATOM     25  C   UNL     1      11.495   9.008  19.171  0.00  0.00    +0.178 C 
ATOM     28  C   UNL     1      16.931   8.415  20.499  0.00  0.00    +0.016 A 
ATOM     29  C   UNL     1      15.578   8.672  20.303  0.00  0.00    +0.044 A 
ATOM     30  C   UNL     1      16.356   6.227  21.235  0.00  0.00    +0.124 A 
ENDBRANCH  17  21
BRANCH  14   9
ATOM      4  N   UNL     1      22.599   5.306  22.691  0.00  0.00    -0.287 NA
ATOM      9  C   UNL     1      21.688   6.389  23.110  0.00  0.00    +0.146 C 
ATOM     10  C   UNL     1      22.580   7.642  23.189  0.00  0.00    +0.030 C 
ATOM     11  C   UNL     1      23.982   7.152  22.858  0.00  0.00    +0.017 C 
ATOM     12  C   UNL     1      23.929   5.672  23.178  0.00  0.00    +0.085 C 
BRANCH   4  13
ATOM     13  C   UNL     1      22.185   3.990  23.165  0.00  0.00    +0.124 C 
BRANCH  13  15
ATOM     15  C   UNL     1      23.059   2.896  22.613  0.00  0.00    +0.008 A 
ATOM     16  C   UNL     1      23.666   1.971  23.462  0.00  0.00    +0.124 A 
ATOM     18  C   UNL     1      23.259   2.813  21.234  0.00  0.00    +0.008 A 
ATOM     22  C   UNL     1      24.472   0.962  22.934  0.00  0.00    +0.046 A 
ATOM     26  C   UNL     1      24.066   1.805  20.706  0.00  0.00    +0.001 A 
ATOM     27  C   UNL     1      24.672   0.880  21.556  0.00  0.00    +0.004 A 
BRANCH  16   2
ATOM      2  O   UNL     1      23.481   2.038  24.811  0.00  0.00    -0.495 OA
ATOM     31  C   UNL     1      22.472   1.198  25.368  0.00  0.00    +0.277 C 
ENDBRANCH  16   2
ENDBRANCH  13  15
ENDBRANCH   4  13
ENDBRANCH  14   9
TORSDOF 5
ENDMDL
