MODEL 1
REMARK VINA RESULT:      -7.9      0.000      0.000
REMARK  Name = 45783583
REMARK  6 active torsions:
REMARK  status: ('A' for Active; 'I' for Inactive)
REMARK    1  A    between atoms: O_1  and  C_13
REMARK    2  A    between atoms: O_1  and  C_26
REMARK    3  A    between atoms: N_3  and  C_12
REMARK    4  A    between atoms: C_8  and  C_14
REMARK    5  A    between atoms: C_12  and  C_20
REMARK    6  A    between atoms: C_24  and  C_27
REMARK                            x       y       z     vdW  Elec       q    Type
REMARK                         _______ _______ _______ _____ _____    ______ ____
ROOT
ATOM      2  O   UNL     1     -17.133   2.506  22.353  0.00  0.00    -0.336 OA
ATOM      4  N   UNL     1     -17.427   4.044  23.956  0.00  0.00    -0.190 NA
ATOM      6  N   UNL     1     -16.755   1.894  23.554  0.00  0.00    -0.056 NA
ATOM     14  C   UNL     1     -17.515   3.769  22.678  0.00  0.00    +0.245 A 
ATOM     24  C   UNL     1     -16.956   2.863  24.452  0.00  0.00    +0.204 A 
ENDROOT
BRANCH  24  27
ATOM      7  N   UNL     1     -16.438   1.183  27.727  0.00  0.00    -0.221 NA
ATOM     26  C   UNL     1     -16.207   2.268  28.502  0.00  0.00    +0.215 A 
ATOM     27  C   UNL     1     -16.696   2.685  25.850  0.00  0.00    +0.041 A 
ATOM     30  C   UNL     1     -16.204   3.571  28.031  0.00  0.00    +0.068 A 
ATOM     31  C   UNL     1     -16.453   3.775  26.679  0.00  0.00    +0.018 A 
ATOM     33  C   UNL     1     -16.677   1.421  26.418  0.00  0.00    +0.126 A 
BRANCH  26   1
ATOM      1  O   UNL     1     -15.964   2.040  29.831  0.00  0.00    -0.473 OA
BRANCH   1  13
ATOM     13  C   UNL     1     -15.210   3.031  30.522  0.00  0.00    +0.175 C 
ATOM     15  C   UNL     1     -15.987   3.499  31.752  0.00  0.00    +0.044 C 
ATOM     16  C   UNL     1     -13.844   2.463  30.901  0.00  0.00    +0.044 C 
ATOM     17  C   UNL     1     -15.178   4.492  32.582  0.00  0.00    +0.004 C 
ATOM     18  C   UNL     1     -13.035   3.456  31.730  0.00  0.00    +0.004 C 
ATOM     19  C   UNL     1     -13.811   3.926  32.958  0.00  0.00    +0.000 C 
ENDBRANCH   1  13
ENDBRANCH  26   1
ENDBRANCH  24  27
BRANCH  14   8
ATOM      3  N   UNL     1     -16.859   5.108  20.686  0.00  0.00    -0.287 NA
ATOM      8  C   UNL     1     -17.976   4.650  21.537  0.00  0.00    +0.146 C 
ATOM      9  C   UNL     1     -18.931   3.924  20.572  0.00  0.00    +0.030 C 
ATOM     10  C   UNL     1     -17.413   5.297  19.344  0.00  0.00    +0.085 C 
ATOM     11  C   UNL     1     -18.299   4.077  19.195  0.00  0.00    +0.017 C 
BRANCH   3  12
ATOM     12  C   UNL     1     -16.212   6.313  21.187  0.00  0.00    +0.122 C 
BRANCH  12  20
ATOM      5  N   UNL     1     -12.739   5.324  21.892  0.00  0.00    -0.360 N 
ATOM     20  C   UNL     1     -14.722   6.138  21.317  0.00  0.00    -0.008 A 
ATOM     21  C   UNL     1     -13.718   6.968  20.745  0.00  0.00    +0.004 A 
ATOM     22  C   UNL     1     -14.090   5.136  22.016  0.00  0.00    +0.088 A 
ATOM     23  C   UNL     1     -12.482   6.435  21.121  0.00  0.00    +0.047 A 
ATOM     25  C   UNL     1     -13.740   8.125  19.941  0.00  0.00    +0.010 A 
ATOM     28  C   UNL     1     -11.264   7.004  20.733  0.00  0.00    +0.026 A 
ATOM     29  C   UNL     1     -12.530   8.705  19.546  0.00  0.00    +0.001 A 
ATOM     32  C   UNL     1     -11.312   8.151  19.936  0.00  0.00    +0.002 A 
ATOM     34  H   UNL     1     -12.032   4.731  22.305  0.00  0.00    +0.165 HD
ENDBRANCH  12  20
ENDBRANCH   3  12
ENDBRANCH  14   8
TORSDOF 6
ENDMDL
MODEL 2
REMARK VINA RESULT:      -7.5     16.820     19.406
REMARK  Name = 45783583
REMARK  6 active torsions:
REMARK  status: ('A' for Active; 'I' for Inactive)
REMARK    1  A    between atoms: O_1  and  C_13
REMARK    2  A    between atoms: O_1  and  C_26
REMARK    3  A    between atoms: N_3  and  C_12
REMARK    4  A    between atoms: C_8  and  C_14
REMARK    5  A    between atoms: C_12  and  C_20
REMARK    6  A    between atoms: C_24  and  C_27
REMARK                            x       y       z     vdW  Elec       q    Type
REMARK                         _______ _______ _______ _____ _____    ______ ____
ROOT
ATOM      2  O   UNL     1      -9.085 -11.325  16.684  0.00  0.00    -0.336 OA
ATOM      4  N   UNL     1      -8.342  -9.377  15.865  0.00  0.00    -0.190 NA
ATOM      6  N   UNL     1     -10.218 -10.521  16.503  0.00  0.00    -0.056 NA
ATOM     14  C   UNL     1      -8.024 -10.576  16.285  0.00  0.00    +0.245 A 
ATOM     24  C   UNL     1      -9.698  -9.389  16.017  0.00  0.00    +0.204 A 
ENDROOT
BRANCH  24  27
ATOM      7  N   UNL     1     -12.105  -7.233  14.181  0.00  0.00    -0.221 NA
ATOM     26  C   UNL     1     -12.067  -6.133  14.967  0.00  0.00    +0.215 A 
ATOM     27  C   UNL     1     -10.505  -8.255  15.677  0.00  0.00    +0.041 A 
ATOM     30  C   UNL     1     -11.286  -6.021  16.106  0.00  0.00    +0.068 A 
ATOM     31  C   UNL     1     -10.493  -7.107  16.461  0.00  0.00    +0.018 A 
ATOM     33  C   UNL     1     -11.321  -8.268  14.557  0.00  0.00    +0.126 A 
BRANCH  26   1
ATOM      1  O   UNL     1     -12.857  -5.078  14.596  0.00  0.00    -0.473 OA
BRANCH   1  13
ATOM     13  C   UNL     1     -13.148  -4.953  13.208  0.00  0.00    +0.175 C 
ATOM     15  C   UNL     1     -14.631  -4.634  13.023  0.00  0.00    +0.044 C 
ATOM     16  C   UNL     1     -12.259  -3.874  12.593  0.00  0.00    +0.044 C 
ATOM     17  C   UNL     1     -14.975  -4.394  11.555  0.00  0.00    +0.004 C 
ATOM     18  C   UNL     1     -12.602  -3.633  11.126  0.00  0.00    +0.004 C 
ATOM     19  C   UNL     1     -14.084  -3.317  10.940  0.00  0.00    +0.000 C 
ENDBRANCH   1  13
ENDBRANCH  26   1
ENDBRANCH  24  27
BRANCH  14   8
ATOM      3  N   UNL     1      -5.707 -10.703  15.386  0.00  0.00    -0.287 NA
ATOM      8  C   UNL     1      -6.662 -11.228  16.384  0.00  0.00    +0.146 C 
ATOM      9  C   UNL     1      -5.981 -10.983  17.743  0.00  0.00    +0.030 C 
ATOM     10  C   UNL     1      -4.376 -10.827  15.983  0.00  0.00    +0.085 C 
ATOM     11  C   UNL     1      -4.627 -10.374  17.407  0.00  0.00    +0.017 C 
BRANCH   3  12
ATOM     12  C   UNL     1      -5.795 -11.376  14.097  0.00  0.00    +0.122 C 
BRANCH  12  20
ATOM      5  N   UNL     1      -6.615  -8.889  11.513  0.00  0.00    -0.360 N 
ATOM     20  C   UNL     1      -5.859 -10.397  12.956  0.00  0.00    -0.008 A 
ATOM     21  C   UNL     1      -4.803 -10.070  12.060  0.00  0.00    +0.004 A 
ATOM     22  C   UNL     1      -6.960  -9.655  12.595  0.00  0.00    +0.088 A 
ATOM     23  C   UNL     1      -5.304  -9.121  11.165  0.00  0.00    +0.047 A 
ATOM     25  C   UNL     1      -3.465 -10.490  11.923  0.00  0.00    +0.010 A 
ATOM     28  C   UNL     1      -4.531  -8.571  10.136  0.00  0.00    +0.026 A 
ATOM     29  C   UNL     1      -2.681  -9.949  10.899  0.00  0.00    +0.001 A 
ATOM     32  C   UNL     1      -3.207  -9.003  10.021  0.00  0.00    +0.002 A 
ATOM     34  H   UNL     1      -7.233  -8.244  11.040  0.00  0.00    +0.165 HD
ENDBRANCH  12  20
ENDBRANCH   3  12
ENDBRANCH  14   8
TORSDOF 6
ENDMDL
MODEL 3
REMARK VINA RESULT:      -7.4     16.011     18.916
REMARK  Name = 45783583
REMARK  6 active torsions:
REMARK  status: ('A' for Active; 'I' for Inactive)
REMARK    1  A    between atoms: O_1  and  C_13
REMARK    2  A    between atoms: O_1  and  C_26
REMARK    3  A    between atoms: N_3  and  C_12
REMARK    4  A    between atoms: C_8  and  C_14
REMARK    5  A    between atoms: C_12  and  C_20
REMARK    6  A    between atoms: C_24  and  C_27
REMARK                            x       y       z     vdW  Elec       q    Type
REMARK                         _______ _______ _______ _____ _____    ______ ____
ROOT
ATOM      2  O   UNL     1     -10.508 -10.213  18.998  0.00  0.00    -0.336 OA
ATOM      4  N   UNL     1      -9.691  -9.540  17.024  0.00  0.00    -0.190 NA
ATOM      6  N   UNL     1     -11.364  -9.201  18.547  0.00  0.00    -0.056 NA
ATOM     14  C   UNL     1      -9.551 -10.350  18.043  0.00  0.00    +0.245 A 
ATOM     24  C   UNL     1     -10.816  -8.854  17.378  0.00  0.00    +0.204 A 
ENDROOT
BRANCH  24  27
ATOM      7  N   UNL     1     -11.016  -5.852  15.196  0.00  0.00    -0.221 NA
ATOM     26  C   UNL     1     -12.345  -5.844  14.945  0.00  0.00    +0.215 A 
ATOM     27  C   UNL     1     -11.367  -7.828  16.543  0.00  0.00    +0.041 A 
ATOM     30  C   UNL     1     -13.234  -6.780  15.448  0.00  0.00    +0.068 A 
ATOM     31  C   UNL     1     -12.728  -7.788  16.261  0.00  0.00    +0.018 A 
ATOM     33  C   UNL     1     -10.561  -6.846  15.991  0.00  0.00    +0.126 A 
BRANCH  26   1
ATOM      1  O   UNL     1     -12.819  -4.841  14.141  0.00  0.00    -0.473 OA
BRANCH   1  13
ATOM     13  C   UNL     1     -12.484  -4.916  12.759  0.00  0.00    +0.175 C 
ATOM     15  C   UNL     1     -13.616  -5.599  11.994  0.00  0.00    +0.044 C 
ATOM     16  C   UNL     1     -12.207  -3.513  12.223  0.00  0.00    +0.044 C 
ATOM     17  C   UNL     1     -13.348  -5.616  10.492  0.00  0.00    +0.004 C 
ATOM     18  C   UNL     1     -11.938  -3.530  10.721  0.00  0.00    +0.004 C 
ATOM     19  C   UNL     1     -13.069  -4.215   9.956  0.00  0.00    +0.000 C 
ENDBRANCH   1  13
ENDBRANCH  26   1
ENDBRANCH  24  27
BRANCH  14   8
ATOM      3  N   UNL     1      -7.788 -11.198  19.582  0.00  0.00    -0.287 NA
ATOM      8  C   UNL     1      -8.489 -11.399  18.297  0.00  0.00    +0.146 C 
ATOM      9  C   UNL     1      -9.068 -12.823  18.386  0.00  0.00    +0.030 C 
ATOM     10  C   UNL     1      -7.368 -12.524  20.034  0.00  0.00    +0.085 C 
ATOM     11  C   UNL     1      -8.591 -13.364  19.727  0.00  0.00    +0.017 C 
BRANCH   3  12
ATOM     12  C   UNL     1      -6.669 -10.270  19.486  0.00  0.00    +0.122 C 
BRANCH  12  20
ATOM      5  N   UNL     1      -3.694 -11.959  18.131  0.00  0.00    -0.360 N 
ATOM     20  C   UNL     1      -5.532 -10.844  18.683  0.00  0.00    -0.008 A 
ATOM     21  C   UNL     1      -5.298 -10.655  17.291  0.00  0.00    +0.004 A 
ATOM     22  C   UNL     1      -4.530 -11.649  19.171  0.00  0.00    +0.088 A 
ATOM     23  C   UNL     1      -4.139 -11.366  16.971  0.00  0.00    +0.047 A 
ATOM     25  C   UNL     1      -5.963  -9.948  16.271  0.00  0.00    +0.010 A 
ATOM     28  C   UNL     1      -3.609 -11.403  15.676  0.00  0.00    +0.026 A 
ATOM     29  C   UNL     1      -5.444  -9.976  14.971  0.00  0.00    +0.001 A 
ATOM     32  C   UNL     1      -4.286 -10.694  14.681  0.00  0.00    +0.002 A 
ATOM     34  H   UNL     1      -2.871 -12.541  18.204  0.00  0.00    +0.165 HD
ENDBRANCH  12  20
ENDBRANCH   3  12
ENDBRANCH  14   8
TORSDOF 6
ENDMDL
MODEL 4
REMARK VINA RESULT:      -7.3     17.055     19.720
REMARK  Name = 45783583
REMARK  6 active torsions:
REMARK  status: ('A' for Active; 'I' for Inactive)
REMARK    1  A    between atoms: O_1  and  C_13
REMARK    2  A    between atoms: O_1  and  C_26
REMARK    3  A    between atoms: N_3  and  C_12
REMARK    4  A    between atoms: C_8  and  C_14
REMARK    5  A    between atoms: C_12  and  C_20
REMARK    6  A    between atoms: C_24  and  C_27
REMARK                            x       y       z     vdW  Elec       q    Type
REMARK                         _______ _______ _______ _____ _____    ______ ____
ROOT
ATOM      2  O   UNL     1      -7.598 -10.774  15.199  0.00  0.00    -0.336 OA
ATOM      4  N   UNL     1      -8.704  -9.582  16.740  0.00  0.00    -0.190 NA
ATOM      6  N   UNL     1      -8.455  -9.921  14.491  0.00  0.00    -0.056 NA
ATOM     14  C   UNL     1      -7.808 -10.510  16.515  0.00  0.00    +0.245 A 
ATOM     24  C   UNL     1      -9.072  -9.250  15.469  0.00  0.00    +0.204 A 
ENDROOT
BRANCH  24  27
ATOM      7  N   UNL     1     -10.972  -6.065  15.713  0.00  0.00    -0.221 NA
ATOM     26  C   UNL     1     -11.913  -6.291  14.769  0.00  0.00    +0.215 A 
ATOM     27  C   UNL     1     -10.062  -8.247  15.209  0.00  0.00    +0.041 A 
ATOM     30  C   UNL     1     -11.992  -7.451  14.015  0.00  0.00    +0.068 A 
ATOM     31  C   UNL     1     -11.044  -8.443  14.244  0.00  0.00    +0.018 A 
ATOM     33  C   UNL     1     -10.069  -7.051  15.909  0.00  0.00    +0.126 A 
BRANCH  26   1
ATOM      1  O   UNL     1     -12.835  -5.300  14.560  0.00  0.00    -0.473 OA
BRANCH   1  13
ATOM     13  C   UNL     1     -13.187  -5.027  13.208  0.00  0.00    +0.175 C 
ATOM     15  C   UNL     1     -14.661  -4.629  13.133  0.00  0.00    +0.044 C 
ATOM     16  C   UNL     1     -12.279  -3.931  12.653  0.00  0.00    +0.044 C 
ATOM     17  C   UNL     1     -15.063  -4.231  11.715  0.00  0.00    +0.004 C 
ATOM     18  C   UNL     1     -12.681  -3.534  11.236  0.00  0.00    +0.004 C 
ATOM     19  C   UNL     1     -14.154  -3.139  11.160  0.00  0.00    +0.000 C 
ENDBRANCH   1  13
ENDBRANCH  26   1
ENDBRANCH  24  27
BRANCH  14   8
ATOM      3  N   UNL     1      -5.536 -11.112  17.334  0.00  0.00    -0.287 NA
ATOM      8  C   UNL     1      -6.990 -11.314  17.503  0.00  0.00    +0.146 C 
ATOM      9  C   UNL     1      -7.270 -10.923  18.966  0.00  0.00    +0.030 C 
ATOM     10  C   UNL     1      -4.936 -11.307  18.654  0.00  0.00    +0.085 C 
ATOM     11  C   UNL     1      -5.910 -10.575  19.554  0.00  0.00    +0.017 C 
BRANCH   3  12
ATOM     12  C   UNL     1      -4.949 -11.988  16.329  0.00  0.00    +0.122 C 
BRANCH  12  20
ATOM      5  N   UNL     1      -1.993 -10.161  15.121  0.00  0.00    -0.360 N 
ATOM     20  C   UNL     1      -3.837 -11.310  15.574  0.00  0.00    -0.008 A 
ATOM     21  C   UNL     1      -3.683 -11.255  14.160  0.00  0.00    +0.004 A 
ATOM     22  C   UNL     1      -2.783 -10.628  16.137  0.00  0.00    +0.088 A 
ATOM     23  C   UNL     1      -2.517 -10.528  13.903  0.00  0.00    +0.047 A 
ATOM     25  C   UNL     1      -4.423 -11.755  13.071  0.00  0.00    +0.010 A 
ATOM     28  C   UNL     1      -2.055 -10.275  12.606  0.00  0.00    +0.026 A 
ATOM     29  C   UNL     1      -3.974 -11.510  11.769  0.00  0.00    +0.001 A 
ATOM     32  C   UNL     1      -2.807 -10.782  11.543  0.00  0.00    +0.002 A 
ATOM     34  H   UNL     1      -1.145  -9.625  15.247  0.00  0.00    +0.165 HD
ENDBRANCH  12  20
ENDBRANCH   3  12
ENDBRANCH  14   8
TORSDOF 6
ENDMDL
MODEL 5
REMARK VINA RESULT:      -7.3     18.289     20.905
REMARK  Name = 45783583
REMARK  6 active torsions:
REMARK  status: ('A' for Active; 'I' for Inactive)
REMARK    1  A    between atoms: O_1  and  C_13
REMARK    2  A    between atoms: O_1  and  C_26
REMARK    3  A    between atoms: N_3  and  C_12
REMARK    4  A    between atoms: C_8  and  C_14
REMARK    5  A    between atoms: C_12  and  C_20
REMARK    6  A    between atoms: C_24  and  C_27
REMARK                            x       y       z     vdW  Elec       q    Type
REMARK                         _______ _______ _______ _____ _____    ______ ____
ROOT
ATOM      2  O   UNL     1      -7.041 -11.803  20.269  0.00  0.00    -0.336 OA
ATOM      4  N   UNL     1      -7.258 -12.801  18.276  0.00  0.00    -0.190 NA
ATOM      6  N   UNL     1      -5.945 -11.386  19.504  0.00  0.00    -0.056 NA
ATOM     14  C   UNL     1      -7.763 -12.633  19.472  0.00  0.00    +0.245 A 
ATOM     24  C   UNL     1      -6.143 -12.016  18.342  0.00  0.00    +0.204 A 
ENDROOT
BRANCH  24  27
ATOM      7  N   UNL     1      -4.261 -12.852  15.248  0.00  0.00    -0.221 NA
ATOM     26  C   UNL     1      -3.560 -11.706  15.094  0.00  0.00    +0.215 A 
ATOM     27  C   UNL     1      -5.248 -11.884  17.232  0.00  0.00    +0.041 A 
ATOM     30  C   UNL     1      -3.649 -10.622  15.953  0.00  0.00    +0.068 A 
ATOM     31  C   UNL     1      -4.511 -10.721  17.039  0.00  0.00    +0.018 A 
ATOM     33  C   UNL     1      -5.088 -12.912  16.316  0.00  0.00    +0.126 A 
BRANCH  26   1
ATOM      1  O   UNL     1      -2.718 -11.633  14.017  0.00  0.00    -0.473 OA
BRANCH   1  13
ATOM     13  C   UNL     1      -2.936 -10.560  13.106  0.00  0.00    +0.175 C 
ATOM     15  C   UNL     1      -1.801 -10.518  12.084  0.00  0.00    +0.044 C 
ATOM     16  C   UNL     1      -4.296 -10.728  12.431  0.00  0.00    +0.044 C 
ATOM     17  C   UNL     1      -2.038  -9.445  11.025  0.00  0.00    +0.004 C 
ATOM     18  C   UNL     1      -4.534  -9.655  11.373  0.00  0.00    +0.004 C 
ATOM     19  C   UNL     1      -3.398  -9.612  10.353  0.00  0.00    +0.000 C 
ENDBRANCH   1  13
ENDBRANCH  26   1
ENDBRANCH  24  27
BRANCH  14   8
ATOM      3  N   UNL     1     -10.252 -12.645  19.507  0.00  0.00    -0.287 NA
ATOM      8  C   UNL     1      -9.019 -13.226  20.075  0.00  0.00    +0.146 C 
ATOM      9  C   UNL     1      -9.146 -14.739  19.818  0.00  0.00    +0.030 C 
ATOM     10  C   UNL     1     -11.275 -13.687  19.588  0.00  0.00    +0.085 C 
ATOM     11  C   UNL     1     -10.505 -14.918  19.157  0.00  0.00    +0.017 C 
BRANCH   3  12
ATOM     12  C   UNL     1     -10.666 -11.416  20.171  0.00  0.00    +0.122 C 
BRANCH  12  20
ATOM      5  N   UNL     1     -12.655  -9.127  18.089  0.00  0.00    -0.360 N 
ATOM     20  C   UNL     1     -11.228 -10.414  19.198  0.00  0.00    -0.008 A 
ATOM     21  C   UNL     1     -10.495  -9.662  18.238  0.00  0.00    +0.004 A 
ATOM     22  C   UNL     1     -12.553 -10.063  19.082  0.00  0.00    +0.088 A 
ATOM     23  C   UNL     1     -11.415  -8.861  17.555  0.00  0.00    +0.047 A 
ATOM     25  C   UNL     1      -9.134  -9.583  17.883  0.00  0.00    +0.010 A 
ATOM     28  C   UNL     1     -11.039  -7.985  16.531  0.00  0.00    +0.026 A 
ATOM     29  C   UNL     1      -8.744  -8.711  16.861  0.00  0.00    +0.001 A 
ATOM     32  C   UNL     1      -9.683  -7.925  16.197  0.00  0.00    +0.002 A 
ATOM     34  H   UNL     1     -13.517  -8.691  17.791  0.00  0.00    +0.165 HD
ENDBRANCH  12  20
ENDBRANCH   3  12
ENDBRANCH  14   8
TORSDOF 6
ENDMDL
MODEL 6
REMARK VINA RESULT:      -7.2     20.163     21.710
REMARK  Name = 45783583
REMARK  6 active torsions:
REMARK  status: ('A' for Active; 'I' for Inactive)
REMARK    1  A    between atoms: O_1  and  C_13
REMARK    2  A    between atoms: O_1  and  C_26
REMARK    3  A    between atoms: N_3  and  C_12
REMARK    4  A    between atoms: C_8  and  C_14
REMARK    5  A    between atoms: C_12  and  C_20
REMARK    6  A    between atoms: C_24  and  C_27
REMARK                            x       y       z     vdW  Elec       q    Type
REMARK                         _______ _______ _______ _____ _____    ______ ____
ROOT
ATOM      2  O   UNL     1      -1.970 -10.619  14.578  0.00  0.00    -0.336 OA
ATOM      4  N   UNL     1      -4.198 -10.714  14.367  0.00  0.00    -0.190 NA
ATOM      6  N   UNL     1      -2.484 -10.634  15.881  0.00  0.00    -0.056 NA
ATOM     14  C   UNL     1      -3.045 -10.668  13.748  0.00  0.00    +0.245 A 
ATOM     24  C   UNL     1      -3.804 -10.691  15.673  0.00  0.00    +0.204 A 
ENDROOT
BRANCH  24  27
ATOM      7  N   UNL     1      -6.961 -10.188  17.568  0.00  0.00    -0.221 NA
ATOM     26  C   UNL     1      -6.609 -10.752  18.746  0.00  0.00    +0.215 A 
ATOM     27  C   UNL     1      -4.752 -10.725  16.747  0.00  0.00    +0.041 A 
ATOM     30  C   UNL     1      -5.368 -11.315  18.995  0.00  0.00    +0.068 A 
ATOM     31  C   UNL     1      -4.428 -11.298  17.971  0.00  0.00    +0.018 A 
ATOM     33  C   UNL     1      -6.021 -10.189  16.597  0.00  0.00    +0.126 A 
BRANCH  26   1
ATOM      1  O   UNL     1      -7.553 -10.757  19.738  0.00  0.00    -0.473 OA
BRANCH   1  13
ATOM     13  C   UNL     1      -8.733 -11.517  19.496  0.00  0.00    +0.175 C 
ATOM     15  C   UNL     1      -8.568 -12.919  20.080  0.00  0.00    +0.044 C 
ATOM     16  C   UNL     1      -9.939 -10.795  20.094  0.00  0.00    +0.044 C 
ATOM     17  C   UNL     1      -9.845 -13.742  19.932  0.00  0.00    +0.004 C 
ATOM     18  C   UNL     1     -11.215 -11.617  19.945  0.00  0.00    +0.004 C 
ATOM     19  C   UNL     1     -11.050 -13.020  20.527  0.00  0.00    +0.000 C 
ENDBRANCH   1  13
ENDBRANCH  26   1
ENDBRANCH  24  27
BRANCH  14   8
ATOM      3  N   UNL     1      -3.603  -9.712  11.520  0.00  0.00    -0.287 NA
ATOM      8  C   UNL     1      -2.751 -10.662  12.263  0.00  0.00    +0.146 C 
ATOM      9  C   UNL     1      -1.310 -10.229  11.942  0.00  0.00    +0.030 C 
ATOM     10  C   UNL     1      -2.823  -9.278  10.360  0.00  0.00    +0.085 C 
ATOM     11  C   UNL     1      -1.450  -9.069  10.966  0.00  0.00    +0.017 C 
BRANCH   3  12
ATOM     12  C   UNL     1      -4.891 -10.275  11.134  0.00  0.00    +0.122 C 
BRANCH  12  20
ATOM      5  N   UNL     1      -5.870  -9.138   7.775  0.00  0.00    -0.360 N 
ATOM     20  C   UNL     1      -5.183 -10.061   9.673  0.00  0.00    -0.008 A 
ATOM     21  C   UNL     1      -4.888 -10.959   8.610  0.00  0.00    +0.004 A 
ATOM     22  C   UNL     1      -5.786  -8.951   9.129  0.00  0.00    +0.088 A 
ATOM     23  C   UNL     1      -5.329 -10.355   7.429  0.00  0.00    +0.047 A 
ATOM     25  C   UNL     1      -4.285 -12.230   8.536  0.00  0.00    +0.010 A 
ATOM     28  C   UNL     1      -5.199 -10.963   6.176  0.00  0.00    +0.026 A 
ATOM     29  C   UNL     1      -4.149 -12.850   7.290  0.00  0.00    +0.001 A 
ATOM     32  C   UNL     1      -4.598 -12.225   6.128  0.00  0.00    +0.002 A 
ATOM     34  H   UNL     1      -6.270  -8.477   7.123  0.00  0.00    +0.165 HD
ENDBRANCH  12  20
ENDBRANCH   3  12
ENDBRANCH  14   8
TORSDOF 6
ENDMDL
MODEL 7
REMARK VINA RESULT:      -7.1     32.279     36.519
REMARK  Name = 45783583
REMARK  6 active torsions:
REMARK  status: ('A' for Active; 'I' for Inactive)
REMARK    1  A    between atoms: O_1  and  C_13
REMARK    2  A    between atoms: O_1  and  C_26
REMARK    3  A    between atoms: N_3  and  C_12
REMARK    4  A    between atoms: C_8  and  C_14
REMARK    5  A    between atoms: C_12  and  C_20
REMARK    6  A    between atoms: C_24  and  C_27
REMARK                            x       y       z     vdW  Elec       q    Type
REMARK                         _______ _______ _______ _____ _____    ______ ____
ROOT
ATOM      2  O   UNL     1      21.110   5.771  23.135  0.00  0.00    -0.336 OA
ATOM      4  N   UNL     1      20.754   5.809  20.923  0.00  0.00    -0.190 NA
ATOM      6  N   UNL     1      19.809   6.258  22.959  0.00  0.00    -0.056 NA
ATOM     14  C   UNL     1      21.595   5.531  21.888  0.00  0.00    +0.245 A 
ATOM     24  C   UNL     1      19.672   6.251  21.629  0.00  0.00    +0.204 A 
ENDROOT
BRANCH  24  27
ATOM      7  N   UNL     1      16.691   8.305  20.786  0.00  0.00    -0.221 NA
ATOM     26  C   UNL     1      16.182   7.560  19.780  0.00  0.00    +0.215 A 
ATOM     27  C   UNL     1      18.471   6.680  20.976  0.00  0.00    +0.041 A 
ATOM     30  C   UNL     1      16.751   6.383  19.321  0.00  0.00    +0.068 A 
ATOM     31  C   UNL     1      17.918   5.942  19.936  0.00  0.00    +0.018 A 
ATOM     33  C   UNL     1      17.826   7.845  21.360  0.00  0.00    +0.126 A 
BRANCH  26   1
ATOM      1  O   UNL     1      15.032   8.016  19.190  0.00  0.00    -0.473 OA
BRANCH   1  13
ATOM     13  C   UNL     1      13.904   8.192  20.040  0.00  0.00    +0.175 C 
ATOM     15  C   UNL     1      13.133   9.441  19.615  0.00  0.00    +0.044 C 
ATOM     16  C   UNL     1      13.025   6.944  19.990  0.00  0.00    +0.044 C 
ATOM     17  C   UNL     1      11.858   9.620  20.435  0.00  0.00    +0.004 C 
ATOM     18  C   UNL     1      11.750   7.122  20.809  0.00  0.00    +0.004 C 
ATOM     19  C   UNL     1      10.981   8.371  20.387  0.00  0.00    +0.000 C 
ENDBRANCH   1  13
ENDBRANCH  26   1
ENDBRANCH  24  27
BRANCH  14   8
ATOM      3  N   UNL     1      23.220   4.144  20.613  0.00  0.00    -0.287 NA
ATOM      8  C   UNL     1      23.006   4.991  21.804  0.00  0.00    +0.146 C 
ATOM      9  C   UNL     1      24.064   6.103  21.688  0.00  0.00    +0.030 C 
ATOM     10  C   UNL     1      24.634   4.277  20.260  0.00  0.00    +0.085 C 
ATOM     11  C   UNL     1      24.863   5.765  20.437  0.00  0.00    +0.017 C 
BRANCH   3  12
ATOM     12  C   UNL     1      22.835   2.754  20.820  0.00  0.00    +0.122 C 
BRANCH  12  20
ATOM      5  N   UNL     1      25.553   0.899  22.466  0.00  0.00    -0.360 N 
ATOM     20  C   UNL     1      23.794   2.036  21.732  0.00  0.00    -0.008 A 
ATOM     21  C   UNL     1      23.650   1.852  23.136  0.00  0.00    +0.004 A 
ATOM     22  C   UNL     1      24.974   1.440  21.350  0.00  0.00    +0.088 A 
ATOM     23  C   UNL     1      24.769   1.135  23.572  0.00  0.00    +0.047 A 
ATOM     25  C   UNL     1      22.676   2.226  24.081  0.00  0.00    +0.010 A 
ATOM     28  C   UNL     1      24.959   0.773  24.910  0.00  0.00    +0.026 A 
ATOM     29  C   UNL     1      22.853   1.871  25.423  0.00  0.00    +0.001 A 
ATOM     32  C   UNL     1      23.978   1.156  25.829  0.00  0.00    +0.002 A 
ATOM     34  H   UNL     1      26.432   0.400  22.478  0.00  0.00    +0.165 HD
ENDBRANCH  12  20
ENDBRANCH   3  12
ENDBRANCH  14   8
TORSDOF 6
ENDMDL
MODEL 8
REMARK VINA RESULT:      -7.1     15.375     17.248
REMARK  Name = 45783583
REMARK  6 active torsions:
REMARK  status: ('A' for Active; 'I' for Inactive)
REMARK    1  A    between atoms: O_1  and  C_13
REMARK    2  A    between atoms: O_1  and  C_26
REMARK    3  A    between atoms: N_3  and  C_12
REMARK    4  A    between atoms: C_8  and  C_14
REMARK    5  A    between atoms: C_12  and  C_20
REMARK    6  A    between atoms: C_24  and  C_27
REMARK                            x       y       z     vdW  Elec       q    Type
REMARK                         _______ _______ _______ _____ _____    ______ ____
ROOT
ATOM      2  O   UNL     1     -14.074  -5.957  13.493  0.00  0.00    -0.336 OA
ATOM      4  N   UNL     1     -11.927  -5.552  13.989  0.00  0.00    -0.190 NA
ATOM      6  N   UNL     1     -13.655  -7.017  14.308  0.00  0.00    -0.056 NA
ATOM     14  C   UNL     1     -12.996  -5.141  13.355  0.00  0.00    +0.245 A 
ATOM     24  C   UNL     1     -12.379  -6.706  14.559  0.00  0.00    +0.204 A 
ENDROOT
BRANCH  24  27
ATOM      7  N   UNL     1     -10.610  -9.711  15.844  0.00  0.00    -0.221 NA
ATOM     26  C   UNL     1      -9.938  -9.153  16.876  0.00  0.00    +0.215 A 
ATOM     27  C   UNL     1     -11.532  -7.527  15.372  0.00  0.00    +0.041 A 
ATOM     30  C   UNL     1     -10.011  -7.810  17.212  0.00  0.00    +0.068 A 
ATOM     31  C   UNL     1     -10.824  -6.989  16.441  0.00  0.00    +0.018 A 
ATOM     33  C   UNL     1     -11.391  -8.882  15.117  0.00  0.00    +0.126 A 
BRANCH  26   1
ATOM      1  O   UNL     1      -9.143  -9.983  17.621  0.00  0.00    -0.473 OA
BRANCH   1  13
ATOM     13  C   UNL     1      -7.750  -9.687  17.640  0.00  0.00    +0.175 C 
ATOM     15  C   UNL     1      -7.041 -10.623  18.618  0.00  0.00    +0.044 C 
ATOM     16  C   UNL     1      -7.180  -9.811  16.229  0.00  0.00    +0.044 C 
ATOM     17  C   UNL     1      -5.530 -10.411  18.603  0.00  0.00    +0.004 C 
ATOM     18  C   UNL     1      -5.669  -9.599  16.213  0.00  0.00    +0.004 C 
ATOM     19  C   UNL     1      -4.961 -10.533  17.192  0.00  0.00    +0.000 C 
ENDBRANCH   1  13
ENDBRANCH  26   1
ENDBRANCH  24  27
BRANCH  14   8
ATOM      3  N   UNL     1     -13.237  -4.206  11.061  0.00  0.00    -0.287 NA
ATOM      8  C   UNL     1     -13.192  -3.903  12.506  0.00  0.00    +0.146 C 
ATOM      9  C   UNL     1     -14.523  -3.186  12.796  0.00  0.00    +0.030 C 
ATOM     10  C   UNL     1     -14.085  -3.182  10.450  0.00  0.00    +0.085 C 
ATOM     11  C   UNL     1     -15.221  -3.079  11.447  0.00  0.00    +0.017 C 
BRANCH   3  12
ATOM     12  C   UNL     1     -11.917  -4.265  10.445  0.00  0.00    +0.122 C 
BRANCH  12  20
ATOM      5  N   UNL     1     -12.591  -6.372   7.506  0.00  0.00    -0.360 N 
ATOM     20  C   UNL     1     -11.907  -5.142   9.222  0.00  0.00    -0.008 A 
ATOM     21  C   UNL     1     -10.758  -5.633   8.541  0.00  0.00    +0.004 A 
ATOM     22  C   UNL     1     -13.019  -5.613   8.562  0.00  0.00    +0.088 A 
ATOM     23  C   UNL     1     -11.216  -6.402   7.467  0.00  0.00    +0.047 A 
ATOM     25  C   UNL     1      -9.370  -5.497   8.734  0.00  0.00    +0.010 A 
ATOM     28  C   UNL     1     -10.350  -7.044   6.575  0.00  0.00    +0.026 A 
ATOM     29  C   UNL     1      -8.492  -6.134   7.850  0.00  0.00    +0.001 A 
ATOM     32  C   UNL     1      -8.976  -6.894   6.787  0.00  0.00    +0.002 A 
ATOM     34  H   UNL     1     -13.198  -6.841   6.847  0.00  0.00    +0.165 HD
ENDBRANCH  12  20
ENDBRANCH   3  12
ENDBRANCH  14   8
TORSDOF 6
ENDMDL
MODEL 9
REMARK VINA RESULT:      -7.0     18.153     19.757
REMARK  Name = 45783583
REMARK  6 active torsions:
REMARK  status: ('A' for Active; 'I' for Inactive)
REMARK    1  A    between atoms: O_1  and  C_13
REMARK    2  A    between atoms: O_1  and  C_26
REMARK    3  A    between atoms: N_3  and  C_12
REMARK    4  A    between atoms: C_8  and  C_14
REMARK    5  A    between atoms: C_12  and  C_20
REMARK    6  A    between atoms: C_24  and  C_27
REMARK                            x       y       z     vdW  Elec       q    Type
REMARK                         _______ _______ _______ _____ _____    ______ ____
ROOT
ATOM      2  O   UNL     1      -5.131  -9.501  16.228  0.00  0.00    -0.336 OA
ATOM      4  N   UNL     1      -5.722 -11.426  17.208  0.00  0.00    -0.190 NA
ATOM      6  N   UNL     1      -6.356  -9.255  16.860  0.00  0.00    -0.056 NA
ATOM     14  C   UNL     1      -4.830 -10.801  16.481  0.00  0.00    +0.245 A 
ATOM     24  C   UNL     1      -6.639 -10.438  17.416  0.00  0.00    +0.204 A 
ENDROOT
BRANCH  24  27
ATOM      7  N   UNL     1      -8.918 -11.792  20.022  0.00  0.00    -0.221 NA
ATOM     26  C   UNL     1     -10.056 -11.144  19.685  0.00  0.00    +0.215 A 
ATOM     27  C   UNL     1      -7.829 -10.664  18.182  0.00  0.00    +0.041 A 
ATOM     30  C   UNL     1     -10.157 -10.254  18.627  0.00  0.00    +0.068 A 
ATOM     31  C   UNL     1      -9.018 -10.015  17.866  0.00  0.00    +0.018 A 
ATOM     33  C   UNL     1      -7.832 -11.535  19.260  0.00  0.00    +0.126 A 
BRANCH  26   1
ATOM      1  O   UNL     1     -11.164 -11.396  20.449  0.00  0.00    -0.473 OA
BRANCH   1  13
ATOM     13  C   UNL     1     -12.408 -10.911  19.954  0.00  0.00    +0.175 C 
ATOM     15  C   UNL     1     -13.369 -12.081  19.751  0.00  0.00    +0.044 C 
ATOM     16  C   UNL     1     -12.976  -9.876  20.922  0.00  0.00    +0.044 C 
ATOM     17  C   UNL     1     -14.751 -11.602  19.313  0.00  0.00    +0.004 C 
ATOM     18  C   UNL     1     -14.357  -9.397  20.485  0.00  0.00    +0.004 C 
ATOM     19  C   UNL     1     -15.318 -10.566  20.279  0.00  0.00    +0.000 C 
ENDBRANCH   1  13
ENDBRANCH  26   1
ENDBRANCH  24  27
BRANCH  14   8
ATOM      3  N   UNL     1      -3.275 -10.804  14.538  0.00  0.00    -0.287 NA
ATOM      8  C   UNL     1      -3.533 -11.320  15.898  0.00  0.00    +0.146 C 
ATOM      9  C   UNL     1      -2.300 -10.897  16.716  0.00  0.00    +0.030 C 
ATOM     10  C   UNL     1      -1.821 -10.758  14.382  0.00  0.00    +0.085 C 
ATOM     11  C   UNL     1      -1.379 -10.204  15.722  0.00  0.00    +0.017 C 
BRANCH   3  12
ATOM     12  C   UNL     1      -3.914 -11.594  13.493  0.00  0.00    +0.122 C 
BRANCH  12  20
ATOM      5  N   UNL     1      -6.819  -9.829  12.087  0.00  0.00    -0.360 N 
ATOM     20  C   UNL     1      -4.918 -10.788  12.715  0.00  0.00    -0.008 A 
ATOM     21  C   UNL     1      -4.673 -10.055  11.520  0.00  0.00    +0.004 A 
ATOM     22  C   UNL     1      -6.246 -10.629  13.039  0.00  0.00    +0.088 A 
ATOM     23  C   UNL     1      -5.883  -9.462  11.147  0.00  0.00    +0.047 A 
ATOM     25  C   UNL     1      -3.536  -9.837  10.717  0.00  0.00    +0.010 A 
ATOM     28  C   UNL     1      -6.011  -8.661  10.007  0.00  0.00    +0.026 A 
ATOM     29  C   UNL     1      -3.650  -9.038   9.574  0.00  0.00    +0.001 A 
ATOM     32  C   UNL     1      -4.870  -8.459   9.227  0.00  0.00    +0.002 A 
ATOM     34  H   UNL     1      -7.789  -9.545  12.077  0.00  0.00    +0.165 HD
ENDBRANCH  12  20
ENDBRANCH   3  12
ENDBRANCH  14   8
TORSDOF 6
ENDMDL
MODEL 10
REMARK VINA RESULT:      -7.0     21.573     23.361
REMARK  Name = 45783583
REMARK  6 active torsions:
REMARK  status: ('A' for Active; 'I' for Inactive)
REMARK    1  A    between atoms: O_1  and  C_13
REMARK    2  A    between atoms: O_1  and  C_26
REMARK    3  A    between atoms: N_3  and  C_12
REMARK    4  A    between atoms: C_8  and  C_14
REMARK    5  A    between atoms: C_12  and  C_20
REMARK    6  A    between atoms: C_24  and  C_27
REMARK                            x       y       z     vdW  Elec       q    Type
REMARK                         _______ _______ _______ _____ _____    ______ ____
ROOT
ATOM      2  O   UNL     1      -4.577 -10.010   7.790  0.00  0.00    -0.336 OA
ATOM      4  N   UNL     1      -4.482 -11.817   9.110  0.00  0.00    -0.190 NA
ATOM      6  N   UNL     1      -4.315  -9.535   9.081  0.00  0.00    -0.056 NA
ATOM     14  C   UNL     1      -4.661 -11.362   7.895  0.00  0.00    +0.245 A 
ATOM     24  C   UNL     1      -4.273 -10.660   9.802  0.00  0.00    +0.204 A 
ENDROOT
BRANCH  24  27
ATOM      7  N   UNL     1      -4.885 -10.410  13.460  0.00  0.00    -0.221 NA
ATOM     26  C   UNL     1      -3.634 -10.645  13.914  0.00  0.00    +0.215 A 
ATOM     27  C   UNL     1      -4.027 -10.660  11.214  0.00  0.00    +0.041 A 
ATOM     30  C   UNL     1      -2.545 -10.893  13.094  0.00  0.00    +0.068 A 
ATOM     31  C   UNL     1      -2.754 -10.899  11.719  0.00  0.00    +0.018 A 
ATOM     33  C   UNL     1      -5.050 -10.423  12.118  0.00  0.00    +0.126 A 
BRANCH  26   1
ATOM      1  O   UNL     1      -3.454 -10.634  15.272  0.00  0.00    -0.473 OA
BRANCH   1  13
ATOM     13  C   UNL     1      -4.535 -11.115  16.065  0.00  0.00    +0.175 C 
ATOM     15  C   UNL     1      -4.427 -12.632  16.209  0.00  0.00    +0.044 C 
ATOM     16  C   UNL     1      -4.523 -10.418  17.424  0.00  0.00    +0.044 C 
ATOM     17  C   UNL     1      -5.510 -13.186  17.132  0.00  0.00    +0.004 C 
ATOM     18  C   UNL     1      -5.605 -10.970  18.347  0.00  0.00    +0.004 C 
ATOM     19  C   UNL     1      -5.500 -12.487  18.489  0.00  0.00    +0.000 C 
ENDBRANCH   1  13
ENDBRANCH  26   1
ENDBRANCH  24  27
BRANCH  14   8
ATOM      3  N   UNL     1      -5.497 -11.262   5.554  0.00  0.00    -0.287 NA
ATOM      8  C   UNL     1      -4.942 -12.123   6.617  0.00  0.00    +0.146 C 
ATOM      9  C   UNL     1      -3.673 -12.738   5.999  0.00  0.00    +0.030 C 
ATOM     10  C   UNL     1      -5.073 -11.849   4.283  0.00  0.00    +0.085 C 
ATOM     11  C   UNL     1      -3.631 -12.214   4.571  0.00  0.00    +0.017 C 
BRANCH   3  12
ATOM     12  C   UNL     1      -6.945 -11.113   5.633  0.00  0.00    +0.122 C 
BRANCH  12  20
ATOM      5  N   UNL     1      -7.814  -7.586   5.048  0.00  0.00    -0.360 N 
ATOM     20  C   UNL     1      -7.358  -9.666   5.675  0.00  0.00    -0.008 A 
ATOM     21  C   UNL     1      -7.793  -8.942   6.820  0.00  0.00    +0.004 A 
ATOM     22  C   UNL     1      -7.382  -8.806   4.601  0.00  0.00    +0.088 A 
ATOM     23  C   UNL     1      -8.073  -7.639   6.398  0.00  0.00    +0.047 A 
ATOM     25  C   UNL     1      -7.976  -9.268   8.178  0.00  0.00    +0.010 A 
ATOM     28  C   UNL     1      -8.527  -6.644   7.271  0.00  0.00    +0.026 A 
ATOM     29  C   UNL     1      -8.430  -8.284   9.062  0.00  0.00    +0.001 A 
ATOM     32  C   UNL     1      -8.702  -6.992   8.614  0.00  0.00    +0.002 A 
ATOM     34  H   UNL     1      -7.929  -6.766   4.469  0.00  0.00    +0.165 HD
ENDBRANCH  12  20
ENDBRANCH   3  12
ENDBRANCH  14   8
TORSDOF 6
ENDMDL
