MODEL 1
REMARK VINA RESULT:      -7.4      0.000      0.000
REMARK  Name = 75536095
REMARK  9 active torsions:
REMARK  status: ('A' for Active; 'I' for Inactive)
REMARK    1  A    between atoms: S_1  and  N_7
REMARK    2  A    between atoms: S_1  and  C_17
REMARK    3  A    between atoms: O_2  and  C_11
REMARK    4  A    between atoms: O_3  and  C_13
REMARK    5  A    between atoms: O_6  and  C_20
REMARK    6  A    between atoms: O_6  and  C_26
REMARK    7  A    between atoms: N_7  and  C_9
REMARK    8  A    between atoms: C_10  and  C_14
REMARK    9  A    between atoms: C_23  and  C_27
REMARK                            x       y       z     vdW  Elec       q    Type
REMARK                         _______ _______ _______ _____ _____    ______ ____
ROOT
ATOM      9  C   UNL     1      14.046   7.899  20.851  0.00  0.00    +0.115 C 
ATOM     10  C   UNL     1      14.574   7.268  19.533  0.00  0.00    +0.043 C 
ATOM     11  C   UNL     1      15.157   7.694  21.889  0.00  0.00    +0.162 C 
ATOM     12  C   UNL     1      16.020   6.840  19.836  0.00  0.00    +0.043 C 
ATOM     13  C   UNL     1      15.987   6.544  21.326  0.00  0.00    +0.145 C 
ENDROOT
BRANCH  10  14
ATOM     14  C   UNL     1      14.463   8.175  18.328  0.00  0.00    -0.042 A 
ATOM     15  C   UNL     1      14.696   9.545  18.464  0.00  0.00    +0.007 A 
ATOM     16  C   UNL     1      14.128   7.645  17.083  0.00  0.00    +0.007 A 
ATOM     18  C   UNL     1      14.594  10.382  17.352  0.00  0.00    +0.046 A 
ATOM     19  C   UNL     1      14.025   8.482  15.973  0.00  0.00    +0.046 A 
ATOM     20  C   UNL     1      14.258   9.851  16.107  0.00  0.00    +0.120 A 
BRANCH  20   6
ATOM      6  O   UNL     1      14.159  10.668  15.023  0.00  0.00    -0.495 OA
ATOM     26  C   UNL     1      14.221  12.073  15.262  0.00  0.00    +0.277 C 
ENDBRANCH  20   6
ENDBRANCH  10  14
BRANCH  11   2
ATOM      2  O   UNL     1      15.931   8.891  21.950  0.00  0.00    -0.388 OA
ATOM     29  H   UNL     1      16.636   8.749  22.605  0.00  0.00    +0.210 HD
ENDBRANCH  11   2
BRANCH  13   3
ATOM      3  O   UNL     1      17.289   6.491  21.873  0.00  0.00    -0.389 OA
ATOM     30  H   UNL     1      17.609   7.405  21.958  0.00  0.00    +0.210 HD
ENDBRANCH  13   3
BRANCH   9   7
ATOM      7  N   UNL     1      12.824   7.174  21.287  0.00  0.00    -0.184 NA
ATOM     28  H   UNL     1      12.927   6.196  21.585  0.00  0.00    +0.148 HD
BRANCH   7   1
ATOM      1  S   UNL     1      11.290   7.826  20.961  0.00  0.00    +0.059 S 
ATOM      4  O   UNL     1      10.306   7.199  21.822  0.00  0.00    -0.153 OA
ATOM      5  O   UNL     1      11.090   7.856  19.525  0.00  0.00    -0.153 OA
BRANCH   1  17
ATOM     17  C   UNL     1      11.487   9.502  21.489  0.00  0.00    +0.106 A 
ATOM     21  C   UNL     1      11.166   9.864  22.797  0.00  0.00    +0.047 A 
ATOM     22  C   UNL     1      11.964  10.462  20.596  0.00  0.00    +0.028 A 
ATOM     23  C   UNL     1      11.320  11.186  23.212  0.00  0.00    +0.054 A 
ATOM     24  C   UNL     1      12.119  11.784  21.012  0.00  0.00    +0.003 A 
ATOM     25  C   UNL     1      11.798  12.147  22.320  0.00  0.00    +0.019 A 
BRANCH  23  27
ATOM      8  N   UNL     1      10.723  11.859  25.641  0.00  0.00    -0.191 NA
ATOM     27  C   UNL     1      10.991  11.557  24.552  0.00  0.00    +0.099 C 
ENDBRANCH  23  27
ENDBRANCH   1  17
ENDBRANCH   7   1
ENDBRANCH   9   7
TORSDOF 8
ENDMDL
MODEL 2
REMARK VINA RESULT:      -7.4      2.377      5.176
REMARK  Name = 75536095
REMARK  9 active torsions:
REMARK  status: ('A' for Active; 'I' for Inactive)
REMARK    1  A    between atoms: S_1  and  N_7
REMARK    2  A    between atoms: S_1  and  C_17
REMARK    3  A    between atoms: O_2  and  C_11
REMARK    4  A    between atoms: O_3  and  C_13
REMARK    5  A    between atoms: O_6  and  C_20
REMARK    6  A    between atoms: O_6  and  C_26
REMARK    7  A    between atoms: N_7  and  C_9
REMARK    8  A    between atoms: C_10  and  C_14
REMARK    9  A    between atoms: C_23  and  C_27
REMARK                            x       y       z     vdW  Elec       q    Type
REMARK                         _______ _______ _______ _____ _____    ______ ____
ROOT
ATOM      9  C   UNL     1      11.893  10.031  22.052  0.00  0.00    +0.115 C 
ATOM     10  C   UNL     1      13.388  10.456  22.078  0.00  0.00    +0.043 C 
ATOM     11  C   UNL     1      11.205  10.850  23.152  0.00  0.00    +0.162 C 
ATOM     12  C   UNL     1      13.470  11.595  23.108  0.00  0.00    +0.043 C 
ATOM     13  C   UNL     1      12.345  11.268  24.076  0.00  0.00    +0.145 C 
ENDROOT
BRANCH  10  14
ATOM     14  C   UNL     1      13.942  10.837  20.724  0.00  0.00    -0.042 A 
ATOM     15  C   UNL     1      13.097  11.367  19.749  0.00  0.00    +0.007 A 
ATOM     16  C   UNL     1      15.298  10.659  20.449  0.00  0.00    +0.007 A 
ATOM     18  C   UNL     1      13.609  11.720  18.500  0.00  0.00    +0.046 A 
ATOM     19  C   UNL     1      15.809  11.010  19.201  0.00  0.00    +0.046 A 
ATOM     20  C   UNL     1      14.965  11.541  18.225  0.00  0.00    +0.120 A 
BRANCH  20   6
ATOM      6  O   UNL     1      15.464  11.885  17.007  0.00  0.00    -0.495 OA
ATOM     26  C   UNL     1      14.534  11.986  15.930  0.00  0.00    +0.277 C 
ENDBRANCH  20   6
ENDBRANCH  10  14
BRANCH  11   2
ATOM      2  O   UNL     1      10.605  11.992  22.544  0.00  0.00    -0.388 OA
ATOM     29  H   UNL     1      10.016  11.671  21.838  0.00  0.00    +0.210 HD
ENDBRANCH  11   2
BRANCH  13   3
ATOM      3  O   UNL     1      12.015  12.379  24.882  0.00  0.00    -0.389 OA
ATOM     30  H   UNL     1      12.354  13.176  24.439  0.00  0.00    +0.210 HD
ENDBRANCH  13   3
BRANCH   9   7
ATOM      7  N   UNL     1      11.789   8.583  22.375  0.00  0.00    -0.184 NA
ATOM     28  H   UNL     1      12.184   8.262  23.267  0.00  0.00    +0.148 HD
BRANCH   7   1
ATOM      1  S   UNL     1      11.359   7.474  21.163  0.00  0.00    +0.059 S 
ATOM      4  O   UNL     1      10.299   8.037  20.348  0.00  0.00    -0.153 OA
ATOM      5  O   UNL     1      11.200   6.164  21.764  0.00  0.00    -0.153 OA
BRANCH   1  17
ATOM     17  C   UNL     1      12.829   7.417  20.183  0.00  0.00    +0.106 A 
ATOM     21  C   UNL     1      12.793   7.815  18.847  0.00  0.00    +0.047 A 
ATOM     22  C   UNL     1      14.025   6.973  20.747  0.00  0.00    +0.028 A 
ATOM     23  C   UNL     1      13.952   7.768  18.074  0.00  0.00    +0.054 A 
ATOM     24  C   UNL     1      15.185   6.928  19.975  0.00  0.00    +0.003 A 
ATOM     25  C   UNL     1      15.150   7.325  18.638  0.00  0.00    +0.019 A 
BRANCH  23  27
ATOM      8  N   UNL     1      13.887   8.507  15.593  0.00  0.00    -0.191 NA
ATOM     27  C   UNL     1      13.916   8.176  16.705  0.00  0.00    +0.099 C 
ENDBRANCH  23  27
ENDBRANCH   1  17
ENDBRANCH   7   1
ENDBRANCH   9   7
TORSDOF 8
ENDMDL
MODEL 3
REMARK VINA RESULT:      -7.2      2.167      4.653
REMARK  Name = 75536095
REMARK  9 active torsions:
REMARK  status: ('A' for Active; 'I' for Inactive)
REMARK    1  A    between atoms: S_1  and  N_7
REMARK    2  A    between atoms: S_1  and  C_17
REMARK    3  A    between atoms: O_2  and  C_11
REMARK    4  A    between atoms: O_3  and  C_13
REMARK    5  A    between atoms: O_6  and  C_20
REMARK    6  A    between atoms: O_6  and  C_26
REMARK    7  A    between atoms: N_7  and  C_9
REMARK    8  A    between atoms: C_10  and  C_14
REMARK    9  A    between atoms: C_23  and  C_27
REMARK                            x       y       z     vdW  Elec       q    Type
REMARK                         _______ _______ _______ _____ _____    ______ ____
ROOT
ATOM      9  C   UNL     1      12.574   8.434  19.197  0.00  0.00    +0.115 C 
ATOM     10  C   UNL     1      13.948   9.040  18.799  0.00  0.00    +0.043 C 
ATOM     11  C   UNL     1      11.785   8.290  17.889  0.00  0.00    +0.162 C 
ATOM     12  C   UNL     1      13.939   9.099  17.262  0.00  0.00    +0.043 C 
ATOM     13  C   UNL     1      12.465   9.265  16.932  0.00  0.00    +0.145 C 
ENDROOT
BRANCH  10  14
ATOM     14  C   UNL     1      15.136   8.288  19.358  0.00  0.00    -0.042 A 
ATOM     15  C   UNL     1      15.992   8.913  20.266  0.00  0.00    +0.007 A 
ATOM     16  C   UNL     1      15.377   6.972  18.965  0.00  0.00    +0.007 A 
ATOM     18  C   UNL     1      17.087   8.220  20.782  0.00  0.00    +0.046 A 
ATOM     19  C   UNL     1      16.472   6.280  19.480  0.00  0.00    +0.046 A 
ATOM     20  C   UNL     1      17.328   6.903  20.389  0.00  0.00    +0.120 A 
BRANCH  20   6
ATOM      6  O   UNL     1      18.396   6.227  20.892  0.00  0.00    -0.495 OA
ATOM     26  C   UNL     1      19.306   6.966  21.706  0.00  0.00    +0.277 C 
ENDBRANCH  20   6
ENDBRANCH  10  14
BRANCH  11   2
ATOM      2  O   UNL     1      11.932   6.947  17.429  0.00  0.00    -0.388 OA
ATOM     29  H   UNL     1      11.872   6.963  16.458  0.00  0.00    +0.210 HD
ENDBRANCH  11   2
BRANCH  13   3
ATOM      3  O   UNL     1      12.201   8.973  15.576  0.00  0.00    -0.389 OA
ATOM     30  H   UNL     1      12.884   9.413  15.042  0.00  0.00    +0.210 HD
ENDBRANCH  13   3
BRANCH   9   7
ATOM      7  N   UNL     1      11.864   9.378  20.100  0.00  0.00    -0.184 NA
ATOM     28  H   UNL     1      11.615  10.302  19.727  0.00  0.00    +0.148 HD
BRANCH   7   1
ATOM      1  S   UNL     1      11.797   9.066  21.768  0.00  0.00    +0.059 S 
ATOM      4  O   UNL     1      13.125   8.737  22.251  0.00  0.00    -0.153 OA
ATOM      5  O   UNL     1      10.683   8.176  22.033  0.00  0.00    -0.153 OA
BRANCH   1  17
ATOM     17  C   UNL     1      11.358  10.650  22.418  0.00  0.00    +0.106 A 
ATOM     21  C   UNL     1      11.318  11.763  21.578  0.00  0.00    +0.047 A 
ATOM     22  C   UNL     1      11.053  10.787  23.772  0.00  0.00    +0.028 A 
ATOM     23  C   UNL     1      10.974  13.012  22.091  0.00  0.00    +0.054 A 
ATOM     24  C   UNL     1      10.708  12.037  24.286  0.00  0.00    +0.003 A 
ATOM     25  C   UNL     1      10.668  13.150  23.446  0.00  0.00    +0.019 A 
BRANCH  23  27
ATOM      8  N   UNL     1      10.899  15.079  20.532  0.00  0.00    -0.191 NA
ATOM     27  C   UNL     1      10.933  14.152  21.231  0.00  0.00    +0.099 C 
ENDBRANCH  23  27
ENDBRANCH   1  17
ENDBRANCH   7   1
ENDBRANCH   9   7
TORSDOF 8
ENDMDL
MODEL 4
REMARK VINA RESULT:      -6.9      2.768      6.933
REMARK  Name = 75536095
REMARK  9 active torsions:
REMARK  status: ('A' for Active; 'I' for Inactive)
REMARK    1  A    between atoms: S_1  and  N_7
REMARK    2  A    between atoms: S_1  and  C_17
REMARK    3  A    between atoms: O_2  and  C_11
REMARK    4  A    between atoms: O_3  and  C_13
REMARK    5  A    between atoms: O_6  and  C_20
REMARK    6  A    between atoms: O_6  and  C_26
REMARK    7  A    between atoms: N_7  and  C_9
REMARK    8  A    between atoms: C_10  and  C_14
REMARK    9  A    between atoms: C_23  and  C_27
REMARK                            x       y       z     vdW  Elec       q    Type
REMARK                         _______ _______ _______ _____ _____    ______ ____
ROOT
ATOM      9  C   UNL     1      13.563   9.268  18.903  0.00  0.00    +0.115 C 
ATOM     10  C   UNL     1      12.217   8.736  19.469  0.00  0.00    +0.043 C 
ATOM     11  C   UNL     1      13.328   9.492  17.403  0.00  0.00    +0.162 C 
ATOM     12  C   UNL     1      11.227   8.797  18.293  0.00  0.00    +0.043 C 
ATOM     13  C   UNL     1      12.122   8.614  17.079  0.00  0.00    +0.145 C 
ENDROOT
BRANCH  10  14
ATOM     14  C   UNL     1      11.730   9.475  20.695  0.00  0.00    -0.042 A 
ATOM     15  C   UNL     1      12.035  10.826  20.861  0.00  0.00    +0.007 A 
ATOM     16  C   UNL     1      10.976   8.807  21.660  0.00  0.00    +0.007 A 
ATOM     18  C   UNL     1      11.585  11.509  21.992  0.00  0.00    +0.046 A 
ATOM     19  C   UNL     1      10.528   9.488  22.790  0.00  0.00    +0.046 A 
ATOM     20  C   UNL     1      10.832  10.840  22.957  0.00  0.00    +0.120 A 
BRANCH  20   6
ATOM      6  O   UNL     1      10.393  11.505  24.060  0.00  0.00    -0.495 OA
ATOM     26  C   UNL     1      10.526  12.926  24.055  0.00  0.00    +0.277 C 
ENDBRANCH  20   6
ENDBRANCH  10  14
BRANCH  11   2
ATOM      2  O   UNL     1      13.017  10.869  17.204  0.00  0.00    -0.388 OA
ATOM     29  H   UNL     1      12.668  11.214  18.044  0.00  0.00    +0.210 HD
ENDBRANCH  11   2
BRANCH  13   3
ATOM      3  O   UNL     1      11.468   9.004  15.889  0.00  0.00    -0.389 OA
ATOM     30  H   UNL     1      11.003   8.224  15.540  0.00  0.00    +0.210 HD
ENDBRANCH  13   3
BRANCH   9   7
ATOM      7  N   UNL     1      14.617   8.236  19.090  0.00  0.00    -0.184 NA
ATOM     28  H   UNL     1      14.994   7.781  18.251  0.00  0.00    +0.148 HD
BRANCH   7   1
ATOM      1  S   UNL     1      14.911   7.596  20.635  0.00  0.00    +0.059 S 
ATOM      4  O   UNL     1      13.954   6.542  20.911  0.00  0.00    -0.153 OA
ATOM      5  O   UNL     1      15.080   8.692  21.570  0.00  0.00    -0.153 OA
BRANCH   1  17
ATOM     17  C   UNL     1      16.499   6.849  20.423  0.00  0.00    +0.106 A 
ATOM     21  C   UNL     1      17.450   6.929  21.441  0.00  0.00    +0.047 A 
ATOM     22  C   UNL     1      16.802   6.182  19.237  0.00  0.00    +0.028 A 
ATOM     23  C   UNL     1      18.703   6.341  21.273  0.00  0.00    +0.054 A 
ATOM     24  C   UNL     1      18.055   5.593  19.068  0.00  0.00    +0.003 A 
ATOM     25  C   UNL     1      19.006   5.672  20.086  0.00  0.00    +0.019 A 
BRANCH  23  27
ATOM      8  N   UNL     1      20.468   6.487  23.162  0.00  0.00    -0.191 NA
ATOM     27  C   UNL     1      19.676   6.422  22.315  0.00  0.00    +0.099 C 
ENDBRANCH  23  27
ENDBRANCH   1  17
ENDBRANCH   7   1
ENDBRANCH   9   7
TORSDOF 8
ENDMDL
MODEL 5
REMARK VINA RESULT:      -6.8      2.530      6.030
REMARK  Name = 75536095
REMARK  9 active torsions:
REMARK  status: ('A' for Active; 'I' for Inactive)
REMARK    1  A    between atoms: S_1  and  N_7
REMARK    2  A    between atoms: S_1  and  C_17
REMARK    3  A    between atoms: O_2  and  C_11
REMARK    4  A    between atoms: O_3  and  C_13
REMARK    5  A    between atoms: O_6  and  C_20
REMARK    6  A    between atoms: O_6  and  C_26
REMARK    7  A    between atoms: N_7  and  C_9
REMARK    8  A    between atoms: C_10  and  C_14
REMARK    9  A    between atoms: C_23  and  C_27
REMARK                            x       y       z     vdW  Elec       q    Type
REMARK                         _______ _______ _______ _____ _____    ______ ____
ROOT
ATOM      9  C   UNL     1      12.591   8.850  21.285  0.00  0.00    +0.115 C 
ATOM     10  C   UNL     1      11.864   9.767  22.307  0.00  0.00    +0.043 C 
ATOM     11  C   UNL     1      11.633   7.682  21.014  0.00  0.00    +0.162 C 
ATOM     12  C   UNL     1      10.465   9.153  22.483  0.00  0.00    +0.043 C 
ATOM     13  C   UNL     1      10.701   7.675  22.222  0.00  0.00    +0.145 C 
ENDROOT
BRANCH  10  14
ATOM     14  C   UNL     1      11.828  11.225  21.908  0.00  0.00    -0.042 A 
ATOM     15  C   UNL     1      12.475  11.646  20.746  0.00  0.00    +0.007 A 
ATOM     16  C   UNL     1      11.147  12.149  22.701  0.00  0.00    +0.007 A 
ATOM     18  C   UNL     1      12.441  12.991  20.377  0.00  0.00    +0.046 A 
ATOM     19  C   UNL     1      11.114  13.494  22.333  0.00  0.00    +0.046 A 
ATOM     20  C   UNL     1      11.761  13.915  21.171  0.00  0.00    +0.120 A 
BRANCH  20   6
ATOM      6  O   UNL     1      11.728  15.227  20.811  0.00  0.00    -0.495 OA
ATOM     26  C   UNL     1      11.286  15.526  19.487  0.00  0.00    +0.277 C 
ENDBRANCH  20   6
ENDBRANCH  10  14
BRANCH  11   2
ATOM      2  O   UNL     1      10.908   7.973  19.820  0.00  0.00    -0.388 OA
ATOM     29  H   UNL     1      10.321   7.217  19.643  0.00  0.00    +0.210 HD
ENDBRANCH  11   2
BRANCH  13   3
ATOM      3  O   UNL     1       9.489   6.993  21.973  0.00  0.00    -0.389 OA
ATOM     30  H   UNL     1       9.652   6.044  22.112  0.00  0.00    +0.210 HD
ENDBRANCH  13   3
BRANCH   9   7
ATOM      7  N   UNL     1      13.843   8.330  21.895  0.00  0.00    -0.184 NA
ATOM     28  H   UNL     1      13.963   8.440  22.909  0.00  0.00    +0.148 HD
BRANCH   7   1
ATOM      1  S   UNL     1      15.155   7.904  20.904  0.00  0.00    +0.059 S 
ATOM      4  O   UNL     1      14.937   6.577  20.359  0.00  0.00    -0.153 OA
ATOM      5  O   UNL     1      16.387   8.214  21.602  0.00  0.00    -0.153 OA
BRANCH   1  17
ATOM     17  C   UNL     1      15.004   9.067  19.581  0.00  0.00    +0.106 A 
ATOM     21  C   UNL     1      14.314   8.719  18.420  0.00  0.00    +0.047 A 
ATOM     22  C   UNL     1      15.577  10.334  19.699  0.00  0.00    +0.028 A 
ATOM     23  C   UNL     1      14.197   9.635  17.376  0.00  0.00    +0.054 A 
ATOM     24  C   UNL     1      15.459  11.252  18.656  0.00  0.00    +0.003 A 
ATOM     25  C   UNL     1      14.769  10.903  17.494  0.00  0.00    +0.019 A 
BRANCH  23  27
ATOM      8  N   UNL     1      12.917   8.990  15.220  0.00  0.00    -0.191 NA
ATOM     27  C   UNL     1      13.491   9.279  16.186  0.00  0.00    +0.099 C 
ENDBRANCH  23  27
ENDBRANCH   1  17
ENDBRANCH   7   1
ENDBRANCH   9   7
TORSDOF 8
ENDMDL
MODEL 6
REMARK VINA RESULT:      -6.8      2.795      5.999
REMARK  Name = 75536095
REMARK  9 active torsions:
REMARK  status: ('A' for Active; 'I' for Inactive)
REMARK    1  A    between atoms: S_1  and  N_7
REMARK    2  A    between atoms: S_1  and  C_17
REMARK    3  A    between atoms: O_2  and  C_11
REMARK    4  A    between atoms: O_3  and  C_13
REMARK    5  A    between atoms: O_6  and  C_20
REMARK    6  A    between atoms: O_6  and  C_26
REMARK    7  A    between atoms: N_7  and  C_9
REMARK    8  A    between atoms: C_10  and  C_14
REMARK    9  A    between atoms: C_23  and  C_27
REMARK                            x       y       z     vdW  Elec       q    Type
REMARK                         _______ _______ _______ _____ _____    ______ ____
ROOT
ATOM      9  C   UNL     1      13.243   8.851  18.400  0.00  0.00    +0.115 C 
ATOM     10  C   UNL     1      11.831   8.502  18.948  0.00  0.00    +0.043 C 
ATOM     11  C   UNL     1      13.022   9.365  16.971  0.00  0.00    +0.162 C 
ATOM     12  C   UNL     1      10.847   8.951  17.855  0.00  0.00    +0.043 C 
ATOM     13  C   UNL     1      11.658   8.806  16.578  0.00  0.00    +0.145 C 
ENDROOT
BRANCH  10  14
ATOM     14  C   UNL     1      11.531   9.105  20.302  0.00  0.00    -0.042 A 
ATOM     15  C   UNL     1      11.892  10.425  20.573  0.00  0.00    +0.007 A 
ATOM     16  C   UNL     1      10.895   8.341  21.280  0.00  0.00    +0.007 A 
ATOM     18  C   UNL     1      11.614  10.981  21.822  0.00  0.00    +0.046 A 
ATOM     19  C   UNL     1      10.619   8.897  22.529  0.00  0.00    +0.046 A 
ATOM     20  C   UNL     1      10.979  10.217  22.801  0.00  0.00    +0.120 A 
BRANCH  20   6
ATOM      6  O   UNL     1      10.708  10.760  24.019  0.00  0.00    -0.495 OA
ATOM     26  C   UNL     1      10.752  12.182  24.119  0.00  0.00    +0.277 C 
ENDBRANCH  20   6
ENDBRANCH  10  14
BRANCH  11   2
ATOM      2  O   UNL     1      12.990  10.790  17.013  0.00  0.00    -0.388 OA
ATOM     29  H   UNL     1      13.137  11.113  16.107  0.00  0.00    +0.210 HD
ENDBRANCH  11   2
BRANCH  13   3
ATOM      3  O   UNL     1      11.067   9.510  15.506  0.00  0.00    -0.389 OA
ATOM     30  H   UNL     1      11.581  10.324  15.370  0.00  0.00    +0.210 HD
ENDBRANCH  13   3
BRANCH   9   7
ATOM      7  N   UNL     1      14.072   7.618  18.358  0.00  0.00    -0.184 NA
ATOM     28  H   UNL     1      14.028   7.040  17.511  0.00  0.00    +0.148 HD
BRANCH   7   1
ATOM      1  S   UNL     1      14.771   7.019  19.786  0.00  0.00    +0.059 S 
ATOM      4  O   UNL     1      16.013   6.341  19.467  0.00  0.00    -0.153 OA
ATOM      5  O   UNL     1      13.748   6.342  20.559  0.00  0.00    -0.153 OA
BRANCH   1  17
ATOM     17  C   UNL     1      15.169   8.509  20.650  0.00  0.00    +0.106 A 
ATOM     21  C   UNL     1      15.953   9.484  20.034  0.00  0.00    +0.047 A 
ATOM     22  C   UNL     1      14.698   8.708  21.948  0.00  0.00    +0.028 A 
ATOM     23  C   UNL     1      16.268  10.659  20.717  0.00  0.00    +0.054 A 
ATOM     24  C   UNL     1      15.012   9.883  22.630  0.00  0.00    +0.003 A 
ATOM     25  C   UNL     1      15.797  10.859  22.015  0.00  0.00    +0.019 A 
BRANCH  23  27
ATOM      8  N   UNL     1      17.724  12.471  19.576  0.00  0.00    -0.191 NA
ATOM     27  C   UNL     1      17.071  11.658  20.087  0.00  0.00    +0.099 C 
ENDBRANCH  23  27
ENDBRANCH   1  17
ENDBRANCH   7   1
ENDBRANCH   9   7
TORSDOF 8
ENDMDL
MODEL 7
REMARK VINA RESULT:      -6.6      3.208      6.851
REMARK  Name = 75536095
REMARK  9 active torsions:
REMARK  status: ('A' for Active; 'I' for Inactive)
REMARK    1  A    between atoms: S_1  and  N_7
REMARK    2  A    between atoms: S_1  and  C_17
REMARK    3  A    between atoms: O_2  and  C_11
REMARK    4  A    between atoms: O_3  and  C_13
REMARK    5  A    between atoms: O_6  and  C_20
REMARK    6  A    between atoms: O_6  and  C_26
REMARK    7  A    between atoms: N_7  and  C_9
REMARK    8  A    between atoms: C_10  and  C_14
REMARK    9  A    between atoms: C_23  and  C_27
REMARK                            x       y       z     vdW  Elec       q    Type
REMARK                         _______ _______ _______ _____ _____    ______ ____
ROOT
ATOM      9  C   UNL     1      12.615   8.942  20.968  0.00  0.00    +0.115 C 
ATOM     10  C   UNL     1      11.997   9.227  22.364  0.00  0.00    +0.043 C 
ATOM     11  C   UNL     1      11.902   7.689  20.442  0.00  0.00    +0.162 C 
ATOM     12  C   UNL     1      10.864   8.200  22.527  0.00  0.00    +0.043 C 
ATOM     13  C   UNL     1      11.344   7.022  21.696  0.00  0.00    +0.145 C 
ENDROOT
BRANCH  10  14
ATOM     14  C   UNL     1      11.537  10.655  22.553  0.00  0.00    -0.042 A 
ATOM     15  C   UNL     1      11.595  11.553  21.486  0.00  0.00    +0.007 A 
ATOM     16  C   UNL     1      11.054  11.075  23.792  0.00  0.00    +0.007 A 
ATOM     18  C   UNL     1      11.169  12.870  21.660  0.00  0.00    +0.046 A 
ATOM     19  C   UNL     1      10.630  12.392  23.966  0.00  0.00    +0.046 A 
ATOM     20  C   UNL     1      10.687  13.290  22.900  0.00  0.00    +0.120 A 
BRANCH  20   6
ATOM      6  O   UNL     1      10.272  14.575  23.069  0.00  0.00    -0.495 OA
ATOM     26  C   UNL     1       9.296  15.067  22.152  0.00  0.00    +0.277 C 
ENDBRANCH  20   6
ENDBRANCH  10  14
BRANCH  11   2
ATOM      2  O   UNL     1      10.845   8.110  19.582  0.00  0.00    -0.388 OA
ATOM     29  H   UNL     1      10.889   9.080  19.518  0.00  0.00    +0.210 HD
ENDBRANCH  11   2
BRANCH  13   3
ATOM      3  O   UNL     1      10.291   6.123  21.414  0.00  0.00    -0.389 OA
ATOM     30  H   UNL     1      10.681   5.333  21.002  0.00  0.00    +0.210 HD
ENDBRANCH  13   3
BRANCH   9   7
ATOM      7  N   UNL     1      14.066   8.656  21.122  0.00  0.00    -0.184 NA
ATOM     28  H   UNL     1      14.413   8.437  22.063  0.00  0.00    +0.148 HD
BRANCH   7   1
ATOM      1  S   UNL     1      15.142   9.030  19.861  0.00  0.00    +0.059 S 
ATOM      4  O   UNL     1      15.534  10.423  19.961  0.00  0.00    -0.153 OA
ATOM      5  O   UNL     1      14.605   8.509  18.619  0.00  0.00    -0.153 OA
BRANCH   1  17
ATOM     17  C   UNL     1      16.545   8.038  20.274  0.00  0.00    +0.106 A 
ATOM     21  C   UNL     1      17.457   8.481  21.231  0.00  0.00    +0.047 A 
ATOM     22  C   UNL     1      16.741   6.811  19.640  0.00  0.00    +0.028 A 
ATOM     23  C   UNL     1      18.565   7.699  21.555  0.00  0.00    +0.054 A 
ATOM     24  C   UNL     1      17.848   6.028  19.964  0.00  0.00    +0.003 A 
ATOM     25  C   UNL     1      18.761   6.471  20.921  0.00  0.00    +0.019 A 
BRANCH  23  27
ATOM      8  N   UNL     1      20.258   8.522  23.333  0.00  0.00    -0.191 NA
ATOM     27  C   UNL     1      19.499   8.153  22.536  0.00  0.00    +0.099 C 
ENDBRANCH  23  27
ENDBRANCH   1  17
ENDBRANCH   7   1
ENDBRANCH   9   7
TORSDOF 8
ENDMDL
MODEL 8
REMARK VINA RESULT:      -6.4     27.214     28.809
REMARK  Name = 75536095
REMARK  9 active torsions:
REMARK  status: ('A' for Active; 'I' for Inactive)
REMARK    1  A    between atoms: S_1  and  N_7
REMARK    2  A    between atoms: S_1  and  C_17
REMARK    3  A    between atoms: O_2  and  C_11
REMARK    4  A    between atoms: O_3  and  C_13
REMARK    5  A    between atoms: O_6  and  C_20
REMARK    6  A    between atoms: O_6  and  C_26
REMARK    7  A    between atoms: N_7  and  C_9
REMARK    8  A    between atoms: C_10  and  C_14
REMARK    9  A    between atoms: C_23  and  C_27
REMARK                            x       y       z     vdW  Elec       q    Type
REMARK                         _______ _______ _______ _____ _____    ______ ____
ROOT
ATOM      9  C   UNL     1      -4.228 -11.290  14.953  0.00  0.00    +0.115 C 
ATOM     10  C   UNL     1      -4.139 -10.542  16.312  0.00  0.00    +0.043 C 
ATOM     11  C   UNL     1      -2.788 -11.675  14.590  0.00  0.00    +0.162 C 
ATOM     12  C   UNL     1      -2.664 -10.642  16.736  0.00  0.00    +0.043 C 
ATOM     13  C   UNL     1      -1.927 -10.717  15.409  0.00  0.00    +0.145 C 
ENDROOT
BRANCH  10  14
ATOM     14  C   UNL     1      -5.096 -11.060  17.363  0.00  0.00    -0.042 A 
ATOM     15  C   UNL     1      -5.724 -10.168  18.232  0.00  0.00    +0.007 A 
ATOM     16  C   UNL     1      -5.349 -12.427  17.463  0.00  0.00    +0.007 A 
ATOM     18  C   UNL     1      -6.608 -10.645  19.201  0.00  0.00    +0.046 A 
ATOM     19  C   UNL     1      -6.231 -12.904  18.431  0.00  0.00    +0.046 A 
ATOM     20  C   UNL     1      -6.861 -12.013  19.301  0.00  0.00    +0.120 A 
BRANCH  20   6
ATOM      6  O   UNL     1      -7.723 -12.478  20.246  0.00  0.00    -0.495 OA
ATOM     26  C   UNL     1      -8.745 -13.371  19.808  0.00  0.00    +0.277 C 
ENDBRANCH  20   6
ENDBRANCH  10  14
BRANCH  11   2
ATOM      2  O   UNL     1      -2.573 -13.023  15.003  0.00  0.00    -0.388 OA
ATOM     29  H   UNL     1      -3.362 -13.535  14.752  0.00  0.00    +0.210 HD
ENDBRANCH  11   2
BRANCH  13   3
ATOM      3  O   UNL     1      -0.603 -11.180  15.576  0.00  0.00    -0.389 OA
ATOM     30  H   UNL     1      -0.222 -11.306  14.691  0.00  0.00    +0.210 HD
ENDBRANCH  13   3
BRANCH   9   7
ATOM      7  N   UNL     1      -4.767 -10.367  13.919  0.00  0.00    -0.184 NA
ATOM     28  H   UNL     1      -4.397  -9.410  13.892  0.00  0.00    +0.148 HD
BRANCH   7   1
ATOM      1  S   UNL     1      -6.180 -10.778  13.070  0.00  0.00    +0.059 S 
ATOM      4  O   UNL     1      -5.994 -12.061  12.418  0.00  0.00    -0.153 OA
ATOM      5  O   UNL     1      -6.617  -9.627  12.305  0.00  0.00    -0.153 OA
BRANCH   1  17
ATOM     17  C   UNL     1      -7.343 -10.998  14.383  0.00  0.00    +0.106 A 
ATOM     21  C   UNL     1      -7.818  -9.892  15.087  0.00  0.00    +0.047 A 
ATOM     22  C   UNL     1      -7.785 -12.278  14.715  0.00  0.00    +0.028 A 
ATOM     23  C   UNL     1      -8.734 -10.065  16.124  0.00  0.00    +0.054 A 
ATOM     24  C   UNL     1      -8.702 -12.453  15.750  0.00  0.00    +0.003 A 
ATOM     25  C   UNL     1      -9.177 -11.347  16.456  0.00  0.00    +0.019 A 
BRANCH  23  27
ATOM      8  N   UNL     1      -9.616  -8.012  17.433  0.00  0.00    -0.191 NA
ATOM     27  C   UNL     1      -9.220  -8.932  16.846  0.00  0.00    +0.099 C 
ENDBRANCH  23  27
ENDBRANCH   1  17
ENDBRANCH   7   1
ENDBRANCH   9   7
TORSDOF 8
ENDMDL
MODEL 9
REMARK VINA RESULT:      -6.3     25.959     28.282
REMARK  Name = 75536095
REMARK  9 active torsions:
REMARK  status: ('A' for Active; 'I' for Inactive)
REMARK    1  A    between atoms: S_1  and  N_7
REMARK    2  A    between atoms: S_1  and  C_17
REMARK    3  A    between atoms: O_2  and  C_11
REMARK    4  A    between atoms: O_3  and  C_13
REMARK    5  A    between atoms: O_6  and  C_20
REMARK    6  A    between atoms: O_6  and  C_26
REMARK    7  A    between atoms: N_7  and  C_9
REMARK    8  A    between atoms: C_10  and  C_14
REMARK    9  A    between atoms: C_23  and  C_27
REMARK                            x       y       z     vdW  Elec       q    Type
REMARK                         _______ _______ _______ _____ _____    ______ ____
ROOT
ATOM      9  C   UNL     1     -15.572   5.918  21.722  0.00  0.00    +0.115 C 
ATOM     10  C   UNL     1     -14.040   5.660  21.694  0.00  0.00    +0.043 C 
ATOM     11  C   UNL     1     -16.057   5.416  23.089  0.00  0.00    +0.162 C 
ATOM     12  C   UNL     1     -13.688   5.137  23.096  0.00  0.00    +0.043 C 
ATOM     13  C   UNL     1     -14.968   4.446  23.539  0.00  0.00    +0.145 C 
ENDROOT
BRANCH  10  14
ATOM     14  C   UNL     1     -13.221   6.863  21.285  0.00  0.00    -0.042 A 
ATOM     15  C   UNL     1     -12.075   6.695  20.507  0.00  0.00    +0.007 A 
ATOM     16  C   UNL     1     -13.610   8.141  21.686  0.00  0.00    +0.007 A 
ATOM     18  C   UNL     1     -11.320   7.805  20.129  0.00  0.00    +0.046 A 
ATOM     19  C   UNL     1     -12.854   9.251  21.309  0.00  0.00    +0.046 A 
ATOM     20  C   UNL     1     -11.709   9.083  20.530  0.00  0.00    +0.120 A 
BRANCH  20   6
ATOM      6  O   UNL     1     -10.972  10.166  20.162  0.00  0.00    -0.495 OA
ATOM     26  C   UNL     1     -10.394  10.144  18.858  0.00  0.00    +0.277 C 
ENDBRANCH  20   6
ENDBRANCH  10  14
BRANCH  11   2
ATOM      2  O   UNL     1     -16.131   6.535  23.970  0.00  0.00    -0.388 OA
ATOM     29  H   UNL     1     -17.002   6.948  23.846  0.00  0.00    +0.210 HD
ENDBRANCH  11   2
BRANCH  13   3
ATOM      3  O   UNL     1     -14.980   4.220  24.933  0.00  0.00    -0.389 OA
ATOM     30  H   UNL     1     -15.511   4.926  25.341  0.00  0.00    +0.210 HD
ENDBRANCH  13   3
BRANCH   9   7
ATOM      7  N   UNL     1     -16.224   5.126  20.646  0.00  0.00    -0.184 NA
ATOM     28  H   UNL     1     -15.846   4.194  20.442  0.00  0.00    +0.148 HD
BRANCH   7   1
ATOM      1  S   UNL     1     -17.306   5.881  19.576  0.00  0.00    +0.059 S 
ATOM      4  O   UNL     1     -18.519   6.236  20.288  0.00  0.00    -0.153 OA
ATOM      5  O   UNL     1     -17.377   5.100  18.356  0.00  0.00    -0.153 OA
BRANCH   1  17
ATOM     17  C   UNL     1     -16.447   7.375  19.183  0.00  0.00    +0.106 A 
ATOM     21  C   UNL     1     -15.325   7.338  18.355  0.00  0.00    +0.047 A 
ATOM     22  C   UNL     1     -16.890   8.590  19.703  0.00  0.00    +0.028 A 
ATOM     23  C   UNL     1     -14.646   8.516  18.047  0.00  0.00    +0.054 A 
ATOM     24  C   UNL     1     -16.213   9.769  19.394  0.00  0.00    +0.003 A 
ATOM     25  C   UNL     1     -15.091   9.733  18.566  0.00  0.00    +0.019 A 
BRANCH  23  27
ATOM      8  N   UNL     1     -12.563   8.449  16.510  0.00  0.00    -0.191 NA
ATOM     27  C   UNL     1     -13.497   8.479  17.198  0.00  0.00    +0.099 C 
ENDBRANCH  23  27
ENDBRANCH   1  17
ENDBRANCH   7   1
ENDBRANCH   9   7
TORSDOF 8
ENDMDL
MODEL 10
REMARK VINA RESULT:      -6.3     13.232     15.882
REMARK  Name = 75536095
REMARK  9 active torsions:
REMARK  status: ('A' for Active; 'I' for Inactive)
REMARK    1  A    between atoms: S_1  and  N_7
REMARK    2  A    between atoms: S_1  and  C_17
REMARK    3  A    between atoms: O_2  and  C_11
REMARK    4  A    between atoms: O_3  and  C_13
REMARK    5  A    between atoms: O_6  and  C_20
REMARK    6  A    between atoms: O_6  and  C_26
REMARK    7  A    between atoms: N_7  and  C_9
REMARK    8  A    between atoms: C_10  and  C_14
REMARK    9  A    between atoms: C_23  and  C_27
REMARK                            x       y       z     vdW  Elec       q    Type
REMARK                         _______ _______ _______ _____ _____    ______ ____
ROOT
ATOM      9  C   UNL     1      10.539   7.207   7.151  0.00  0.00    +0.115 C 
ATOM     10  C   UNL     1       9.689   6.488   6.066  0.00  0.00    +0.043 C 
ATOM     11  C   UNL     1      10.944   6.120   8.155  0.00  0.00    +0.162 C 
ATOM     12  C   UNL     1       9.749   4.994   6.426  0.00  0.00    +0.043 C 
ATOM     13  C   UNL     1       9.922   5.009   7.936  0.00  0.00    +0.145 C 
ENDROOT
BRANCH  10  14
ATOM     14  C   UNL     1      10.129   6.777   4.649  0.00  0.00    -0.042 A 
ATOM     15  C   UNL     1       9.176   6.939   3.643  0.00  0.00    +0.007 A 
ATOM     16  C   UNL     1      11.487   6.880   4.346  0.00  0.00    +0.007 A 
ATOM     18  C   UNL     1       9.582   7.206   2.335  0.00  0.00    +0.046 A 
ATOM     19  C   UNL     1      11.892   7.146   3.039  0.00  0.00    +0.046 A 
ATOM     20  C   UNL     1      10.940   7.308   2.032  0.00  0.00    +0.120 A 
BRANCH  20   6
ATOM      6  O   UNL     1      11.336   7.569   0.757  0.00  0.00    -0.495 OA
ATOM     26  C   UNL     1      12.258   6.656   0.165  0.00  0.00    +0.277 C 
ENDBRANCH  20   6
ENDBRANCH  10  14
BRANCH  11   2
ATOM      2  O   UNL     1      12.256   5.673   7.818  0.00  0.00    -0.388 OA
ATOM     29  H   UNL     1      12.884   6.345   8.134  0.00  0.00    +0.210 HD
ENDBRANCH  11   2
BRANCH  13   3
ATOM      3  O   UNL     1      10.365   3.757   8.419  0.00  0.00    -0.389 OA
ATOM     30  H   UNL     1      11.331   3.803   8.513  0.00  0.00    +0.210 HD
ENDBRANCH  13   3
BRANCH   9   7
ATOM      7  N   UNL     1       9.701   8.226   7.836  0.00  0.00    -0.184 NA
ATOM     28  H   UNL     1       8.805   7.919   8.233  0.00  0.00    +0.148 HD
BRANCH   7   1
ATOM      1  S   UNL     1      10.052   9.877   7.649  0.00  0.00    +0.059 S 
ATOM      4  O   UNL     1      11.484  10.080   7.754  0.00  0.00    -0.153 OA
ATOM      5  O   UNL     1       9.142  10.645   8.478  0.00  0.00    -0.153 OA
BRANCH   1  17
ATOM     17  C   UNL     1       9.582  10.161   5.968  0.00  0.00    +0.106 A 
ATOM     21  C   UNL     1       8.244  10.056   5.590  0.00  0.00    +0.047 A 
ATOM     22  C   UNL     1      10.552  10.488   5.021  0.00  0.00    +0.028 A 
ATOM     23  C   UNL     1       7.875  10.278   4.264  0.00  0.00    +0.054 A 
ATOM     24  C   UNL     1      10.183  10.711   3.695  0.00  0.00    +0.003 A 
ATOM     25  C   UNL     1       8.845  10.606   3.315  0.00  0.00    +0.019 A 
BRANCH  23  27
ATOM      8  N   UNL     1       5.390  10.084   3.560  0.00  0.00    -0.191 NA
ATOM     27  C   UNL     1       6.504  10.171   3.876  0.00  0.00    +0.099 C 
ENDBRANCH  23  27
ENDBRANCH   1  17
ENDBRANCH   7   1
ENDBRANCH   9   7
TORSDOF 8
ENDMDL
