MODEL 1
REMARK VINA RESULT:      -6.5      0.000      0.000
REMARK  Name = 7134566
REMARK  13 active torsions:
REMARK  status: ('A' for Active; 'I' for Inactive)
REMARK    1  A    between atoms: O_6  and  C_29
REMARK    2  A    between atoms: N_9  and  C_12
REMARK    3  A    between atoms: N_10  and  C_19
REMARK    4  A    between atoms: C_13  and  C_17
REMARK    5  A    between atoms: C_18  and  C_20
REMARK    6  A    between atoms: C_19  and  C_21
REMARK    7  A    between atoms: C_19  and  C_25
REMARK    8  A    between atoms: C_20  and  C_23
REMARK    9  A    between atoms: C_21  and  C_26
REMARK   10  A    between atoms: C_21  and  C_27
REMARK   11  A    between atoms: C_22  and  C_24
REMARK   12  A    between atoms: C_23  and  C_29
REMARK   13  A    between atoms: C_24  and  C_28
REMARK                            x       y       z     vdW  Elec       q    Type
REMARK                         _______ _______ _______ _____ _____    ______ ____
ROOT
ATOM      3  O   UNL     1       8.702   7.568   7.897  0.00  0.00    -0.276 OA
ATOM      8  N   UNL     1       9.996   6.873   6.090  0.00  0.00    -0.290 N 
ATOM     12  C   UNL     1      10.262   6.558   3.199  0.00  0.00    +0.077 C 
ATOM     13  C   UNL     1      11.156   6.138   5.559  0.00  0.00    +0.164 C 
ATOM     14  C   UNL     1      10.917   5.563   4.162  0.00  0.00    +0.054 C 
ATOM     15  C   UNL     1       9.009   7.159   3.832  0.00  0.00    +0.041 C 
ATOM     16  C   UNL     1       9.334   7.807   5.171  0.00  0.00    +0.110 C 
ATOM     18  C   UNL     1       9.590   6.849   7.429  0.00  0.00    +0.217 C 
ENDROOT
BRANCH  13  17
ATOM      2  O   UNL     1      12.631   7.699   6.606  0.00  0.00    -0.274 OA
ATOM     10  N   UNL     1      12.950   7.179   4.359  0.00  0.00    -0.302 N 
ATOM     17  C   UNL     1      12.321   7.084   5.589  0.00  0.00    +0.234 C 
ATOM     34  H   UNL     1      12.673   6.551   3.611  0.00  0.00    +0.150 HD
BRANCH  10  19
ATOM     19  C   UNL     1      14.085   8.040   4.116  0.00  0.00    +0.161 C 
BRANCH  19  25
ATOM      5  O   UNL     1      16.392   7.446   4.610  0.00  0.00    -0.274 OA
ATOM     11  N   UNL     1      15.163   6.042   3.271  0.00  0.00    -0.328 N 
ATOM     25  C   UNL     1      15.333   7.166   4.052  0.00  0.00    +0.231 C 
ATOM     35  H   UNL     1      15.921   5.380   3.142  0.00  0.00    +0.145 HD
ATOM     36  H   UNL     1      14.298   5.841   2.781  0.00  0.00    +0.145 HD
ENDBRANCH  19  25
BRANCH  19  21
ATOM     21  C   UNL     1      13.920   8.919   2.859  0.00  0.00    +0.012 C 
ATOM     26  C   UNL     1      15.023   9.973   2.712  0.00  0.00    +0.009 C 
ATOM     27  C   UNL     1      12.547   9.596   2.838  0.00  0.00    +0.009 C 
ENDBRANCH  19  21
ENDBRANCH  10  19
ENDBRANCH  13  17
BRANCH  12   9
ATOM      4  O   UNL     1      11.183   7.343   0.589  0.00  0.00    -0.275 OA
ATOM      9  N   UNL     1       9.943   5.922   1.944  0.00  0.00    -0.312 N 
ATOM     22  C   UNL     1      10.438   6.376   0.730  0.00  0.00    +0.218 C 
ATOM     33  H   UNL     1       9.285   5.148   1.955  0.00  0.00    +0.149 HD
BRANCH  22  24
ATOM     24  C   UNL     1       9.979   5.538  -0.447  0.00  0.00    +0.138 C 
BRANCH  24  28
ATOM      1  S   UNL     1      11.021   3.744  -2.297  0.00  0.00    -0.101 S 
ATOM     28  C   UNL     1      11.040   4.524  -0.773  0.00  0.00    -0.001 A 
ATOM     30  C   UNL     1      12.089   4.100   0.012  0.00  0.00    +0.011 A 
ATOM     31  C   UNL     1      12.888   3.121  -0.646  0.00  0.00    +0.008 A 
ATOM     32  C   UNL     1      12.419   2.835  -1.909  0.00  0.00    +0.045 A 
ENDBRANCH  24  28
ENDBRANCH  22  24
ENDBRANCH  12   9
BRANCH  18  20
ATOM     20  C   UNL     1      10.290   5.866   8.334  0.00  0.00    +0.107 C 
BRANCH  20  23
ATOM     23  C   UNL     1       9.312   4.803   8.793  0.00  0.00    +0.129 C 
BRANCH  23  29
ATOM      7  O   UNL     1      10.378   4.387  10.920  0.00  0.00    -0.251 OA
ATOM     29  C   UNL     1       9.357   4.630  10.290  0.00  0.00    +0.305 C 
BRANCH  29   6
ATOM      6  O   UNL     1       8.135   4.749  10.867  0.00  0.00    -0.481 OA
ATOM     37  H   UNL     1       8.025   4.133  11.623  0.00  0.00    +0.295 HD
ENDBRANCH  29   6
ENDBRANCH  23  29
ENDBRANCH  20  23
ENDBRANCH  18  20
TORSDOF 11
ENDMDL
MODEL 2
REMARK VINA RESULT:      -6.4     16.257     19.068
REMARK  Name = 7134566
REMARK  13 active torsions:
REMARK  status: ('A' for Active; 'I' for Inactive)
REMARK    1  A    between atoms: O_6  and  C_29
REMARK    2  A    between atoms: N_9  and  C_12
REMARK    3  A    between atoms: N_10  and  C_19
REMARK    4  A    between atoms: C_13  and  C_17
REMARK    5  A    between atoms: C_18  and  C_20
REMARK    6  A    between atoms: C_19  and  C_21
REMARK    7  A    between atoms: C_19  and  C_25
REMARK    8  A    between atoms: C_20  and  C_23
REMARK    9  A    between atoms: C_21  and  C_26
REMARK   10  A    between atoms: C_21  and  C_27
REMARK   11  A    between atoms: C_22  and  C_24
REMARK   12  A    between atoms: C_23  and  C_29
REMARK   13  A    between atoms: C_24  and  C_28
REMARK                            x       y       z     vdW  Elec       q    Type
REMARK                         _______ _______ _______ _____ _____    ______ ____
ROOT
ATOM      3  O   UNL     1      12.885   6.718  19.192  0.00  0.00    -0.276 OA
ATOM      8  N   UNL     1      15.024   6.983  20.073  0.00  0.00    -0.290 N 
ATOM     12  C   UNL     1      17.870   6.351  19.922  0.00  0.00    +0.077 C 
ATOM     13  C   UNL     1      15.908   7.420  21.166  0.00  0.00    +0.164 C 
ATOM     14  C   UNL     1      17.190   6.592  21.272  0.00  0.00    +0.054 C 
ATOM     15  C   UNL     1      16.866   5.791  18.916  0.00  0.00    +0.041 C 
ATOM     16  C   UNL     1      15.663   6.715  18.779  0.00  0.00    +0.110 C 
ATOM     18  C   UNL     1      13.626   6.956  20.150  0.00  0.00    +0.217 C 
ENDROOT
BRANCH  13  17
ATOM      2  O   UNL     1      15.775   9.472  19.950  0.00  0.00    -0.274 OA
ATOM     10  N   UNL     1      16.976   9.418  21.944  0.00  0.00    -0.302 N 
ATOM     17  C   UNL     1      16.193   8.876  20.940  0.00  0.00    +0.234 C 
ATOM     34  H   UNL     1      17.183   8.861  22.768  0.00  0.00    +0.150 HD
BRANCH  10  19
ATOM     19  C   UNL     1      17.411  10.797  21.950  0.00  0.00    +0.161 C 
BRANCH  19  25
ATOM      5  O   UNL     1      15.366  12.075  22.264  0.00  0.00    -0.274 OA
ATOM     11  N   UNL     1      16.766  11.793  24.062  0.00  0.00    -0.328 N 
ATOM     25  C   UNL     1      16.394  11.607  22.747  0.00  0.00    +0.231 C 
ATOM     35  H   UNL     1      16.178  12.320  24.698  0.00  0.00    +0.145 HD
ATOM     36  H   UNL     1      17.638  11.437  24.441  0.00  0.00    +0.145 HD
ENDBRANCH  19  25
BRANCH  19  21
ATOM     21  C   UNL     1      18.849  10.976  22.482  0.00  0.00    +0.012 C 
ATOM     26  C   UNL     1      19.704  11.895  21.604  0.00  0.00    +0.009 C 
ATOM     27  C   UNL     1      19.545   9.623  22.652  0.00  0.00    +0.009 C 
ENDBRANCH  19  21
ENDBRANCH  10  19
ENDBRANCH  13  17
BRANCH  12   9
ATOM      4  O   UNL     1      20.570   7.080  20.600  0.00  0.00    -0.275 OA
ATOM      9  N   UNL     1      18.995   5.459  20.066  0.00  0.00    -0.312 N 
ATOM     22  C   UNL     1      20.265   5.906  20.398  0.00  0.00    +0.218 C 
ATOM     33  H   UNL     1      18.852   4.474  19.860  0.00  0.00    +0.149 HD
BRANCH  22  24
ATOM     24  C   UNL     1      21.279   4.784  20.509  0.00  0.00    +0.138 C 
BRANCH  24  28
ATOM      1  S   UNL     1      23.836   5.718  21.070  0.00  0.00    -0.101 S 
ATOM     28  C   UNL     1      22.298   5.143  21.554  0.00  0.00    -0.001 A 
ATOM     30  C   UNL     1      22.179   5.079  22.925  0.00  0.00    +0.011 A 
ATOM     31  C   UNL     1      23.366   5.507  23.586  0.00  0.00    +0.008 A 
ATOM     32  C   UNL     1      24.347   5.882  22.696  0.00  0.00    +0.045 A 
ENDBRANCH  24  28
ENDBRANCH  22  24
ENDBRANCH  12   9
BRANCH  18  20
ATOM     20  C   UNL     1      13.014   7.226  21.501  0.00  0.00    +0.107 C 
BRANCH  20  23
ATOM     23  C   UNL     1      11.530   6.922  21.464  0.00  0.00    +0.129 C 
BRANCH  23  29
ATOM      7  O   UNL     1      10.371   8.926  22.154  0.00  0.00    -0.251 OA
ATOM     29  C   UNL     1      10.721   8.177  21.252  0.00  0.00    +0.305 C 
BRANCH  29   6
ATOM      6  O   UNL     1      10.400   8.377  19.949  0.00  0.00    -0.481 OA
ATOM     37  H   UNL     1       9.429   8.427  19.815  0.00  0.00    +0.295 HD
ENDBRANCH  29   6
ENDBRANCH  23  29
ENDBRANCH  20  23
ENDBRANCH  18  20
TORSDOF 11
ENDMDL
MODEL 3
REMARK VINA RESULT:      -6.3     15.960     18.374
REMARK  Name = 7134566
REMARK  13 active torsions:
REMARK  status: ('A' for Active; 'I' for Inactive)
REMARK    1  A    between atoms: O_6  and  C_29
REMARK    2  A    between atoms: N_9  and  C_12
REMARK    3  A    between atoms: N_10  and  C_19
REMARK    4  A    between atoms: C_13  and  C_17
REMARK    5  A    between atoms: C_18  and  C_20
REMARK    6  A    between atoms: C_19  and  C_21
REMARK    7  A    between atoms: C_19  and  C_25
REMARK    8  A    between atoms: C_20  and  C_23
REMARK    9  A    between atoms: C_21  and  C_26
REMARK   10  A    between atoms: C_21  and  C_27
REMARK   11  A    between atoms: C_22  and  C_24
REMARK   12  A    between atoms: C_23  and  C_29
REMARK   13  A    between atoms: C_24  and  C_28
REMARK                            x       y       z     vdW  Elec       q    Type
REMARK                         _______ _______ _______ _____ _____    ______ ____
ROOT
ATOM      3  O   UNL     1      12.662   6.744  19.156  0.00  0.00    -0.276 OA
ATOM      8  N   UNL     1      14.786   6.989  20.076  0.00  0.00    -0.290 N 
ATOM     12  C   UNL     1      17.648   6.434  19.905  0.00  0.00    +0.077 C 
ATOM     13  C   UNL     1      15.651   7.360  21.209  0.00  0.00    +0.164 C 
ATOM     14  C   UNL     1      16.951   6.554  21.263  0.00  0.00    +0.054 C 
ATOM     15  C   UNL     1      16.665   5.931  18.850  0.00  0.00    +0.041 C 
ATOM     16  C   UNL     1      15.442   6.835  18.772  0.00  0.00    +0.110 C 
ATOM     18  C   UNL     1      13.390   6.924  20.137  0.00  0.00    +0.217 C 
ENDROOT
BRANCH  13  17
ATOM      2  O   UNL     1      16.803   9.388  21.726  0.00  0.00    -0.274 OA
ATOM     10  N   UNL     1      15.007   9.456  20.245  0.00  0.00    -0.302 N 
ATOM     17  C   UNL     1      15.904   8.835  21.098  0.00  0.00    +0.234 C 
ATOM     34  H   UNL     1      14.367   8.888  19.699  0.00  0.00    +0.150 HD
BRANCH  10  19
ATOM     19  C   UNL     1      15.022  10.877  19.982  0.00  0.00    +0.161 C 
BRANCH  19  25
ATOM      5  O   UNL     1      14.667  10.248  17.660  0.00  0.00    -0.274 OA
ATOM     11  N   UNL     1      15.657  12.271  18.106  0.00  0.00    -0.328 N 
ATOM     25  C   UNL     1      15.073  11.077  18.471  0.00  0.00    +0.231 C 
ATOM     35  H   UNL     1      15.758  12.523  17.129  0.00  0.00    +0.145 HD
ATOM     36  H   UNL     1      16.026  12.931  18.783  0.00  0.00    +0.145 HD
ENDBRANCH  19  25
BRANCH  19  21
ATOM     21  C   UNL     1      13.838  11.625  20.631  0.00  0.00    +0.012 C 
ATOM     26  C   UNL     1      14.105  12.029  22.085  0.00  0.00    +0.009 C 
ATOM     27  C   UNL     1      12.553  10.796  20.549  0.00  0.00    +0.009 C 
ENDBRANCH  19  21
ENDBRANCH  10  19
ENDBRANCH  13  17
BRANCH  12   9
ATOM      4  O   UNL     1      20.299   7.146  20.770  0.00  0.00    -0.275 OA
ATOM      9  N   UNL     1      18.792   5.559  19.992  0.00  0.00    -0.312 N 
ATOM     22  C   UNL     1      20.036   5.996  20.423  0.00  0.00    +0.218 C 
ATOM     33  H   UNL     1      18.685   4.601  19.670  0.00  0.00    +0.149 HD
BRANCH  22  24
ATOM     24  C   UNL     1      21.077   4.894  20.446  0.00  0.00    +0.138 C 
BRANCH  24  28
ATOM      1  S   UNL     1      23.653   5.756  21.034  0.00  0.00    -0.101 S 
ATOM     28  C   UNL     1      22.101   5.207  21.501  0.00  0.00    -0.001 A 
ATOM     30  C   UNL     1      21.976   5.115  22.871  0.00  0.00    +0.011 A 
ATOM     31  C   UNL     1      23.171   5.500  23.544  0.00  0.00    +0.008 A 
ATOM     32  C   UNL     1      24.163   5.872  22.664  0.00  0.00    +0.045 A 
ENDBRANCH  24  28
ENDBRANCH  22  24
ENDBRANCH  12   9
BRANCH  18  20
ATOM     20  C   UNL     1      12.760   7.075  21.499  0.00  0.00    +0.107 C 
BRANCH  20  23
ATOM     23  C   UNL     1      11.367   6.479  21.491  0.00  0.00    +0.129 C 
BRANCH  23  29
ATOM      7  O   UNL     1      10.642   8.535  22.533  0.00  0.00    -0.251 OA
ATOM     29  C   UNL     1      10.374   7.404  22.149  0.00  0.00    +0.305 C 
BRANCH  29   6
ATOM      6  O   UNL     1       9.150   6.838  22.293  0.00  0.00    -0.481 OA
ATOM     37  H   UNL     1       9.020   6.469  23.194  0.00  0.00    +0.295 HD
ENDBRANCH  29   6
ENDBRANCH  23  29
ENDBRANCH  20  23
ENDBRANCH  18  20
TORSDOF 11
ENDMDL
MODEL 4
REMARK VINA RESULT:      -6.2     16.258     19.400
REMARK  Name = 7134566
REMARK  13 active torsions:
REMARK  status: ('A' for Active; 'I' for Inactive)
REMARK    1  A    between atoms: O_6  and  C_29
REMARK    2  A    between atoms: N_9  and  C_12
REMARK    3  A    between atoms: N_10  and  C_19
REMARK    4  A    between atoms: C_13  and  C_17
REMARK    5  A    between atoms: C_18  and  C_20
REMARK    6  A    between atoms: C_19  and  C_21
REMARK    7  A    between atoms: C_19  and  C_25
REMARK    8  A    between atoms: C_20  and  C_23
REMARK    9  A    between atoms: C_21  and  C_26
REMARK   10  A    between atoms: C_21  and  C_27
REMARK   11  A    between atoms: C_22  and  C_24
REMARK   12  A    between atoms: C_23  and  C_29
REMARK   13  A    between atoms: C_24  and  C_28
REMARK                            x       y       z     vdW  Elec       q    Type
REMARK                         _______ _______ _______ _____ _____    ______ ____
ROOT
ATOM      3  O   UNL     1      12.657   9.196  18.019  0.00  0.00    -0.276 OA
ATOM      8  N   UNL     1      13.689   9.401  20.096  0.00  0.00    -0.290 N 
ATOM     12  C   UNL     1      16.166   9.553  21.636  0.00  0.00    +0.077 C 
ATOM     13  C   UNL     1      13.615   9.374  21.566  0.00  0.00    +0.164 C 
ATOM     14  C   UNL     1      14.911   8.902  22.227  0.00  0.00    +0.054 C 
ATOM     15  C   UNL     1      16.170   9.407  20.115  0.00  0.00    +0.041 C 
ATOM     16  C   UNL     1      14.900   9.990  19.510  0.00  0.00    +0.110 C 
ATOM     18  C   UNL     1      12.637   9.046  19.244  0.00  0.00    +0.217 C 
ENDROOT
BRANCH  13  17
ATOM      2  O   UNL     1      13.301  11.721  21.253  0.00  0.00    -0.274 OA
ATOM     10  N   UNL     1      12.811  10.785  23.328  0.00  0.00    -0.302 N 
ATOM     17  C   UNL     1      13.225  10.754  22.007  0.00  0.00    +0.234 C 
ATOM     34  H   UNL     1      12.691   9.910  23.830  0.00  0.00    +0.150 HD
BRANCH  10  19
ATOM     19  C   UNL     1      12.404  11.997  24.001  0.00  0.00    +0.161 C 
BRANCH  19  25
ATOM      5  O   UNL     1      10.914  10.975  25.628  0.00  0.00    -0.274 OA
ATOM     11  N   UNL     1      10.020  12.412  24.077  0.00  0.00    -0.328 N 
ATOM     25  C   UNL     1      11.062  11.735  24.674  0.00  0.00    +0.231 C 
ATOM     35  H   UNL     1       9.072  12.319  24.426  0.00  0.00    +0.145 HD
ATOM     36  H   UNL     1      10.146  13.006  23.263  0.00  0.00    +0.145 HD
ENDBRANCH  19  25
BRANCH  19  21
ATOM     21  C   UNL     1      13.463  12.523  24.993  0.00  0.00    +0.012 C 
ATOM     26  C   UNL     1      14.180  13.783  24.496  0.00  0.00    +0.009 C 
ATOM     27  C   UNL     1      14.490  11.438  25.328  0.00  0.00    +0.009 C 
ENDBRANCH  19  21
ENDBRANCH  10  19
ENDBRANCH  13  17
BRANCH  12   9
ATOM      4  O   UNL     1      18.884  10.288  21.045  0.00  0.00    -0.275 OA
ATOM      9  N   UNL     1      17.359   8.976  22.205  0.00  0.00    -0.312 N 
ATOM     22  C   UNL     1      18.633   9.399  21.856  0.00  0.00    +0.218 C 
ATOM     33  H   UNL     1      17.252   8.192  22.843  0.00  0.00    +0.149 HD
BRANCH  22  24
ATOM     24  C   UNL     1      19.728   8.657  22.597  0.00  0.00    +0.138 C 
BRANCH  24  28
ATOM      1  S   UNL     1      21.476   6.528  22.228  0.00  0.00    -0.101 S 
ATOM     28  C   UNL     1      20.033   7.376  21.872  0.00  0.00    -0.001 A 
ATOM     30  C   UNL     1      19.285   6.740  20.905  0.00  0.00    +0.011 A 
ATOM     31  C   UNL     1      19.905   5.541  20.452  0.00  0.00    +0.008 A 
ATOM     32  C   UNL     1      21.103   5.306  21.088  0.00  0.00    +0.045 A 
ENDBRANCH  24  28
ENDBRANCH  22  24
ENDBRANCH  12   9
BRANCH  18  20
ATOM     20  C   UNL     1      11.419   8.433  19.888  0.00  0.00    +0.107 C 
BRANCH  20  23
ATOM     23  C   UNL     1      11.649   6.954  20.122  0.00  0.00    +0.129 C 
BRANCH  23  29
ATOM      7  O   UNL     1      10.493   7.255  22.221  0.00  0.00    -0.251 OA
ATOM     29  C   UNL     1      11.132   6.528  21.473  0.00  0.00    +0.305 C 
BRANCH  29   6
ATOM      6  O   UNL     1      11.473   5.252  21.783  0.00  0.00    -0.481 OA
ATOM     37  H   UNL     1      11.131   4.610  21.125  0.00  0.00    +0.295 HD
ENDBRANCH  29   6
ENDBRANCH  23  29
ENDBRANCH  20  23
ENDBRANCH  18  20
TORSDOF 11
ENDMDL
MODEL 5
REMARK VINA RESULT:      -5.9      3.477      7.084
REMARK  Name = 7134566
REMARK  13 active torsions:
REMARK  status: ('A' for Active; 'I' for Inactive)
REMARK    1  A    between atoms: O_6  and  C_29
REMARK    2  A    between atoms: N_9  and  C_12
REMARK    3  A    between atoms: N_10  and  C_19
REMARK    4  A    between atoms: C_13  and  C_17
REMARK    5  A    between atoms: C_18  and  C_20
REMARK    6  A    between atoms: C_19  and  C_21
REMARK    7  A    between atoms: C_19  and  C_25
REMARK    8  A    between atoms: C_20  and  C_23
REMARK    9  A    between atoms: C_21  and  C_26
REMARK   10  A    between atoms: C_21  and  C_27
REMARK   11  A    between atoms: C_22  and  C_24
REMARK   12  A    between atoms: C_23  and  C_29
REMARK   13  A    between atoms: C_24  and  C_28
REMARK                            x       y       z     vdW  Elec       q    Type
REMARK                         _______ _______ _______ _____ _____    ______ ____
ROOT
ATOM      3  O   UNL     1      16.420  10.474   3.757  0.00  0.00    -0.276 OA
ATOM      8  N   UNL     1      14.844   8.761   3.821  0.00  0.00    -0.290 N 
ATOM     12  C   UNL     1      12.045   7.968   4.069  0.00  0.00    +0.077 C 
ATOM     13  C   UNL     1      14.519   7.330   3.943  0.00  0.00    +0.164 C 
ATOM     14  C   UNL     1      13.166   7.074   4.608  0.00  0.00    +0.054 C 
ATOM     15  C   UNL     1      12.473   9.433   4.106  0.00  0.00    +0.041 C 
ATOM     16  C   UNL     1      13.772   9.639   3.337  0.00  0.00    +0.110 C 
ATOM     18  C   UNL     1      16.126   9.298   3.990  0.00  0.00    +0.217 C 
ENDROOT
BRANCH  13  17
ATOM      2  O   UNL     1      15.160   7.330   1.642  0.00  0.00    -0.274 OA
ATOM     10  N   UNL     1      13.928   5.536   2.470  0.00  0.00    -0.302 N 
ATOM     17  C   UNL     1      14.589   6.750   2.561  0.00  0.00    +0.234 C 
ATOM     34  H   UNL     1      13.575   5.098   3.315  0.00  0.00    +0.150 HD
BRANCH  10  19
ATOM     19  C   UNL     1      13.828   4.781   1.241  0.00  0.00    +0.161 C 
BRANCH  19  25
ATOM      5  O   UNL     1      15.772   3.929   0.054  0.00  0.00    -0.274 OA
ATOM     11  N   UNL     1      15.418   3.235   2.214  0.00  0.00    -0.328 N 
ATOM     25  C   UNL     1      15.105   3.963   1.086  0.00  0.00    +0.231 C 
ATOM     35  H   UNL     1      16.241   2.644   2.239  0.00  0.00    +0.145 HD
ATOM     36  H   UNL     1      14.838   3.238   3.047  0.00  0.00    +0.145 HD
ENDBRANCH  19  25
BRANCH  19  21
ATOM     21  C   UNL     1      12.559   3.905   1.170  0.00  0.00    +0.012 C 
ATOM     26  C   UNL     1      11.664   4.238  -0.028  0.00  0.00    +0.009 C 
ATOM     27  C   UNL     1      11.750   4.003   2.467  0.00  0.00    +0.009 C 
ENDBRANCH  19  21
ENDBRANCH  10  19
ENDBRANCH  13  17
BRANCH  12   9
ATOM      4  O   UNL     1       9.684   6.574   3.194  0.00  0.00    -0.275 OA
ATOM      9  N   UNL     1      10.828   7.775   4.820  0.00  0.00    -0.312 N 
ATOM     22  C   UNL     1       9.738   7.085   4.311  0.00  0.00    +0.218 C 
ATOM     33  H   UNL     1      10.758   8.213   5.734  0.00  0.00    +0.149 HD
BRANCH  22  24
ATOM     24  C   UNL     1       8.583   6.997   5.289  0.00  0.00    +0.138 C 
BRANCH  24  28
ATOM      1  S   UNL     1       9.043   7.022   8.031  0.00  0.00    -0.101 S 
ATOM     28  C   UNL     1       9.028   6.239   6.509  0.00  0.00    -0.001 A 
ATOM     30  C   UNL     1       9.450   4.930   6.598  0.00  0.00    +0.011 A 
ATOM     31  C   UNL     1       9.791   4.567   7.932  0.00  0.00    +0.008 A 
ATOM     32  C   UNL     1       9.616   5.611   8.813  0.00  0.00    +0.045 A 
ENDBRANCH  24  28
ENDBRANCH  22  24
ENDBRANCH  12   9
BRANCH  18  20
ATOM     20  C   UNL     1      17.193   8.362   4.500  0.00  0.00    +0.107 C 
BRANCH  20  23
ATOM     23  C   UNL     1      17.667   8.818   5.865  0.00  0.00    +0.129 C 
BRANCH  23  29
ATOM      7  O   UNL     1      19.692   8.586   7.162  0.00  0.00    -0.251 OA
ATOM     29  C   UNL     1      19.108   8.440   6.096  0.00  0.00    +0.305 C 
BRANCH  29   6
ATOM      6  O   UNL     1      19.702   7.939   4.984  0.00  0.00    -0.481 OA
ATOM     37  H   UNL     1      20.511   8.440   4.743  0.00  0.00    +0.295 HD
ENDBRANCH  29   6
ENDBRANCH  23  29
ENDBRANCH  20  23
ENDBRANCH  18  20
TORSDOF 11
ENDMDL
MODEL 6
REMARK VINA RESULT:      -5.9     15.579     17.833
REMARK  Name = 7134566
REMARK  13 active torsions:
REMARK  status: ('A' for Active; 'I' for Inactive)
REMARK    1  A    between atoms: O_6  and  C_29
REMARK    2  A    between atoms: N_9  and  C_12
REMARK    3  A    between atoms: N_10  and  C_19
REMARK    4  A    between atoms: C_13  and  C_17
REMARK    5  A    between atoms: C_18  and  C_20
REMARK    6  A    between atoms: C_19  and  C_21
REMARK    7  A    between atoms: C_19  and  C_25
REMARK    8  A    between atoms: C_20  and  C_23
REMARK    9  A    between atoms: C_21  and  C_26
REMARK   10  A    between atoms: C_21  and  C_27
REMARK   11  A    between atoms: C_22  and  C_24
REMARK   12  A    between atoms: C_23  and  C_29
REMARK   13  A    between atoms: C_24  and  C_28
REMARK                            x       y       z     vdW  Elec       q    Type
REMARK                         _______ _______ _______ _____ _____    ______ ____
ROOT
ATOM      3  O   UNL     1      11.293   7.135  20.089  0.00  0.00    -0.276 OA
ATOM      8  N   UNL     1      13.396   8.111  20.303  0.00  0.00    -0.290 N 
ATOM     12  C   UNL     1      16.257   7.770  20.775  0.00  0.00    +0.077 C 
ATOM     13  C   UNL     1      14.235   9.308  20.474  0.00  0.00    +0.164 C 
ATOM     14  C   UNL     1      15.528   9.032  21.245  0.00  0.00    +0.054 C 
ATOM     15  C   UNL     1      15.297   6.582  20.754  0.00  0.00    +0.041 C 
ATOM     16  C   UNL     1      14.082   6.882  19.886  0.00  0.00    +0.110 C 
ATOM     18  C   UNL     1      11.998   8.110  20.364  0.00  0.00    +0.217 C 
ENDROOT
BRANCH  13  17
ATOM      2  O   UNL     1      14.240   9.212  18.087  0.00  0.00    -0.274 OA
ATOM     10  N   UNL     1      15.075  11.113  19.141  0.00  0.00    -0.302 N 
ATOM     17  C   UNL     1      14.500   9.853  19.102  0.00  0.00    +0.234 C 
ATOM     34  H   UNL     1      15.155  11.594  20.032  0.00  0.00    +0.150 HD
BRANCH  10  19
ATOM     19  C   UNL     1      15.450  11.848  17.954  0.00  0.00    +0.161 C 
BRANCH  19  25
ATOM      5  O   UNL     1      13.541  13.341  18.157  0.00  0.00    -0.274 OA
ATOM     11  N   UNL     1      13.918  12.316  16.137  0.00  0.00    -0.328 N 
ATOM     25  C   UNL     1      14.218  12.594  17.454  0.00  0.00    +0.231 C 
ATOM     35  H   UNL     1      13.118  12.745  15.685  0.00  0.00    +0.145 HD
ATOM     36  H   UNL     1      14.460  11.666  15.577  0.00  0.00    +0.145 HD
ENDBRANCH  19  25
BRANCH  19  21
ATOM     21  C   UNL     1      16.653  12.788  18.179  0.00  0.00    +0.012 C 
ATOM     26  C   UNL     1      17.642  12.790  17.009  0.00  0.00    +0.009 C 
ATOM     27  C   UNL     1      17.385  12.444  19.479  0.00  0.00    +0.009 C 
ENDBRANCH  19  21
ENDBRANCH  10  19
ENDBRANCH  13  17
BRANCH  12   9
ATOM      4  O   UNL     1      18.569   6.202  20.086  0.00  0.00    -0.275 OA
ATOM      9  N   UNL     1      17.393   7.490  21.620  0.00  0.00    -0.312 N 
ATOM     22  C   UNL     1      18.466   6.720  21.197  0.00  0.00    +0.218 C 
ATOM     33  H   UNL     1      17.370   7.828  22.577  0.00  0.00    +0.149 HD
BRANCH  22  24
ATOM     24  C   UNL     1      19.546   6.579  22.251  0.00  0.00    +0.138 C 
BRANCH  24  28
ATOM      1  S   UNL     1      21.455   4.728  21.439  0.00  0.00    -0.101 S 
ATOM     28  C   UNL     1      20.865   6.329  21.574  0.00  0.00    -0.001 A 
ATOM     30  C   UNL     1      21.725   7.246  21.010  0.00  0.00    +0.011 A 
ATOM     31  C   UNL     1      22.884   6.625  20.460  0.00  0.00    +0.008 A 
ATOM     32  C   UNL     1      22.865   5.258  20.625  0.00  0.00    +0.045 A 
ENDBRANCH  24  28
ENDBRANCH  22  24
ENDBRANCH  12   9
BRANCH  18  20
ATOM     20  C   UNL     1      11.336   9.390  20.809  0.00  0.00    +0.107 C 
BRANCH  20  23
ATOM     23  C   UNL     1      10.889   9.264  22.251  0.00  0.00    +0.129 C 
BRANCH  23  29
ATOM      7  O   UNL     1      12.398  10.894  23.202  0.00  0.00    -0.251 OA
ATOM     29  C   UNL     1      11.252  10.495  23.044  0.00  0.00    +0.305 C 
BRANCH  29   6
ATOM      6  O   UNL     1      10.168  11.103  23.589  0.00  0.00    -0.481 OA
ATOM     37  H   UNL     1       9.696  11.663  22.936  0.00  0.00    +0.295 HD
ENDBRANCH  29   6
ENDBRANCH  23  29
ENDBRANCH  20  23
ENDBRANCH  18  20
TORSDOF 11
ENDMDL
MODEL 7
REMARK VINA RESULT:      -5.8     30.207     35.163
REMARK  Name = 7134566
REMARK  13 active torsions:
REMARK  status: ('A' for Active; 'I' for Inactive)
REMARK    1  A    between atoms: O_6  and  C_29
REMARK    2  A    between atoms: N_9  and  C_12
REMARK    3  A    between atoms: N_10  and  C_19
REMARK    4  A    between atoms: C_13  and  C_17
REMARK    5  A    between atoms: C_18  and  C_20
REMARK    6  A    between atoms: C_19  and  C_21
REMARK    7  A    between atoms: C_19  and  C_25
REMARK    8  A    between atoms: C_20  and  C_23
REMARK    9  A    between atoms: C_21  and  C_26
REMARK   10  A    between atoms: C_21  and  C_27
REMARK   11  A    between atoms: C_22  and  C_24
REMARK   12  A    between atoms: C_23  and  C_29
REMARK   13  A    between atoms: C_24  and  C_28
REMARK                            x       y       z     vdW  Elec       q    Type
REMARK                         _______ _______ _______ _____ _____    ______ ____
ROOT
ATOM      3  O   UNL     1       1.455  15.568  34.458  0.00  0.00    -0.276 OA
ATOM      8  N   UNL     1       0.209  13.631  34.803  0.00  0.00    -0.290 N 
ATOM     12  C   UNL     1      -0.268  11.234  36.400  0.00  0.00    +0.077 C 
ATOM     13  C   UNL     1      -0.763  12.637  34.319  0.00  0.00    +0.164 C 
ATOM     14  C   UNL     1      -0.528  11.237  34.891  0.00  0.00    +0.054 C 
ATOM     15  C   UNL     1       0.840  12.226  36.747  0.00  0.00    +0.041 C 
ATOM     16  C   UNL     1       0.498  13.621  36.242  0.00  0.00    +0.110 C 
ATOM     18  C   UNL     1       0.746  14.658  34.018  0.00  0.00    +0.217 C 
ENDROOT
BRANCH  13  17
ATOM      2  O   UNL     1      -2.283  14.180  35.325  0.00  0.00    -0.274 OA
ATOM     10  N   UNL     1      -3.137  12.363  34.146  0.00  0.00    -0.302 N 
ATOM     17  C   UNL     1      -2.127  13.163  34.655  0.00  0.00    +0.234 C 
ATOM     34  H   UNL     1      -2.897  11.600  33.521  0.00  0.00    +0.150 HD
BRANCH  10  19
ATOM     19  C   UNL     1      -4.541  12.638  34.348  0.00  0.00    +0.161 C 
BRANCH  19  25
ATOM      5  O   UNL     1      -5.870  13.910  32.757  0.00  0.00    -0.274 OA
ATOM     11  N   UNL     1      -4.884  11.962  32.049  0.00  0.00    -0.328 N 
ATOM     25  C   UNL     1      -5.165  12.931  32.988  0.00  0.00    +0.231 C 
ATOM     35  H   UNL     1      -5.245  12.034  31.103  0.00  0.00    +0.145 HD
ATOM     36  H   UNL     1      -4.334  11.135  32.260  0.00  0.00    +0.145 HD
ENDBRANCH  19  25
BRANCH  19  21
ATOM     21  C   UNL     1      -5.278  11.509  35.099  0.00  0.00    +0.012 C 
ATOM     26  C   UNL     1      -6.802  11.655  35.063  0.00  0.00    +0.009 C 
ATOM     27  C   UNL     1      -4.799  11.411  36.551  0.00  0.00    +0.009 C 
ENDBRANCH  19  21
ENDBRANCH  10  19
ENDBRANCH  13  17
BRANCH  12   9
ATOM      4  O   UNL     1      -2.081   9.236  37.400  0.00  0.00    -0.275 OA
ATOM      9  N   UNL     1       0.075   9.909  36.858  0.00  0.00    -0.312 N 
ATOM     22  C   UNL     1      -0.874   9.012  37.325  0.00  0.00    +0.218 C 
ATOM     33  H   UNL     1       1.058   9.654  36.888  0.00  0.00    +0.149 HD
BRANCH  22  24
ATOM     24  C   UNL     1      -0.279   7.679  37.734  0.00  0.00    +0.138 C 
BRANCH  24  28
ATOM      1  S   UNL     1      -1.663   6.255  39.680  0.00  0.00    -0.101 S 
ATOM     28  C   UNL     1      -0.538   7.452  39.197  0.00  0.00    -0.001 A 
ATOM     30  C   UNL     1       0.024   8.098  40.277  0.00  0.00    +0.011 A 
ATOM     31  C   UNL     1      -0.476   7.604  41.516  0.00  0.00    +0.008 A 
ATOM     32  C   UNL     1      -1.401   6.599  41.336  0.00  0.00    +0.045 A 
ENDBRANCH  24  28
ENDBRANCH  22  24
ENDBRANCH  12   9
BRANCH  18  20
ATOM     20  C   UNL     1       0.433  14.621  32.543  0.00  0.00    +0.107 C 
BRANCH  20  23
ATOM     23  C   UNL     1       1.709  14.784  31.742  0.00  0.00    +0.129 C 
BRANCH  23  29
ATOM      7  O   UNL     1       2.316  14.191  29.480  0.00  0.00    -0.251 OA
ATOM     29  C   UNL     1       1.683  13.935  30.496  0.00  0.00    +0.305 C 
BRANCH  29   6
ATOM      6  O   UNL     1       0.861  12.862  30.613  0.00  0.00    -0.481 OA
ATOM     37  H   UNL     1       0.273  12.765  29.833  0.00  0.00    +0.295 HD
ENDBRANCH  29   6
ENDBRANCH  23  29
ENDBRANCH  20  23
ENDBRANCH  18  20
TORSDOF 11
ENDMDL
MODEL 8
REMARK VINA RESULT:      -5.8     13.774     17.865
REMARK  Name = 7134566
REMARK  13 active torsions:
REMARK  status: ('A' for Active; 'I' for Inactive)
REMARK    1  A    between atoms: O_6  and  C_29
REMARK    2  A    between atoms: N_9  and  C_12
REMARK    3  A    between atoms: N_10  and  C_19
REMARK    4  A    between atoms: C_13  and  C_17
REMARK    5  A    between atoms: C_18  and  C_20
REMARK    6  A    between atoms: C_19  and  C_21
REMARK    7  A    between atoms: C_19  and  C_25
REMARK    8  A    between atoms: C_20  and  C_23
REMARK    9  A    between atoms: C_21  and  C_26
REMARK   10  A    between atoms: C_21  and  C_27
REMARK   11  A    between atoms: C_22  and  C_24
REMARK   12  A    between atoms: C_23  and  C_29
REMARK   13  A    between atoms: C_24  and  C_28
REMARK                            x       y       z     vdW  Elec       q    Type
REMARK                         _______ _______ _______ _____ _____    ______ ____
ROOT
ATOM      3  O   UNL     1      11.210   7.057  21.342  0.00  0.00    -0.276 OA
ATOM      8  N   UNL     1      13.185   8.263  21.090  0.00  0.00    -0.290 N 
ATOM     12  C   UNL     1      16.102   8.308  21.212  0.00  0.00    +0.077 C 
ATOM     13  C   UNL     1      13.883   9.550  20.934  0.00  0.00    +0.164 C 
ATOM     14  C   UNL     1      15.282   9.556  21.553  0.00  0.00    +0.054 C 
ATOM     15  C   UNL     1      15.302   7.046  21.529  0.00  0.00    +0.041 C 
ATOM     16  C   UNL     1      13.965   7.054  20.800  0.00  0.00    +0.110 C 
ATOM     18  C   UNL     1      11.815   8.132  21.345  0.00  0.00    +0.217 C 
ENDROOT
BRANCH  13  17
ATOM      2  O   UNL     1      14.696  10.671  18.987  0.00  0.00    -0.274 OA
ATOM     10  N   UNL     1      12.963   9.131  18.762  0.00  0.00    -0.302 N 
ATOM     17  C   UNL     1      13.914   9.853  19.465  0.00  0.00    +0.234 C 
ATOM     34  H   UNL     1      12.436   8.408  19.242  0.00  0.00    +0.150 HD
BRANCH  10  19
ATOM     19  C   UNL     1      12.772   9.257  17.335  0.00  0.00    +0.161 C 
BRANCH  19  25
ATOM      5  O   UNL     1      14.269   7.439  16.729  0.00  0.00    -0.274 OA
ATOM     11  N   UNL     1      14.725   9.544  15.932  0.00  0.00    -0.328 N 
ATOM     25  C   UNL     1      13.976   8.629  16.642  0.00  0.00    +0.231 C 
ATOM     35  H   UNL     1      15.557   9.255  15.429  0.00  0.00    +0.145 HD
ATOM     36  H   UNL     1      14.497  10.532  15.900  0.00  0.00    +0.145 HD
ENDBRANCH  19  25
BRANCH  19  21
ATOM     21  C   UNL     1      11.436   8.656  16.848  0.00  0.00    +0.012 C 
ATOM     26  C   UNL     1      10.902   9.326  15.579  0.00  0.00    +0.009 C 
ATOM     27  C   UNL     1      10.375   8.709  17.952  0.00  0.00    +0.009 C 
ENDBRANCH  19  21
ENDBRANCH  10  19
ENDBRANCH  13  17
BRANCH  12   9
ATOM      4  O   UNL     1      18.507   6.916  20.465  0.00  0.00    -0.275 OA
ATOM      9  N   UNL     1      17.356   8.308  21.925  0.00  0.00    -0.312 N 
ATOM     22  C   UNL     1      18.466   7.602  21.485  0.00  0.00    +0.218 C 
ATOM     33  H   UNL     1      17.400   8.801  22.812  0.00  0.00    +0.149 HD
BRANCH  22  24
ATOM     24  C   UNL     1      19.671   7.767  22.390  0.00  0.00    +0.138 C 
BRANCH  24  28
ATOM      1  S   UNL     1      21.471   5.695  21.947  0.00  0.00    -0.101 S 
ATOM     28  C   UNL     1      20.898   7.284  21.668  0.00  0.00    -0.001 A 
ATOM     30  C   UNL     1      21.681   7.963  20.760  0.00  0.00    +0.011 A 
ATOM     31  C   UNL     1      22.765   7.168  20.288  0.00  0.00    +0.008 A 
ATOM     32  C   UNL     1      22.770   5.912  20.854  0.00  0.00    +0.045 A 
ENDBRANCH  24  28
ENDBRANCH  22  24
ENDBRANCH  12   9
BRANCH  18  20
ATOM     20  C   UNL     1      11.057   9.400  21.650  0.00  0.00    +0.107 C 
BRANCH  20  23
ATOM     23  C   UNL     1      10.662   9.424  23.113  0.00  0.00    +0.129 C 
BRANCH  23  29
ATOM      7  O   UNL     1      10.964  11.820  23.161  0.00  0.00    -0.251 OA
ATOM     29  C   UNL     1      11.006  10.748  23.749  0.00  0.00    +0.305 C 
BRANCH  29   6
ATOM      6  O   UNL     1      11.391  10.620  25.044  0.00  0.00    -0.481 OA
ATOM     37  H   UNL     1      10.660  10.827  25.665  0.00  0.00    +0.295 HD
ENDBRANCH  29   6
ENDBRANCH  23  29
ENDBRANCH  20  23
ENDBRANCH  18  20
TORSDOF 11
ENDMDL
MODEL 9
REMARK VINA RESULT:      -5.8      2.023      2.264
REMARK  Name = 7134566
REMARK  13 active torsions:
REMARK  status: ('A' for Active; 'I' for Inactive)
REMARK    1  A    between atoms: O_6  and  C_29
REMARK    2  A    between atoms: N_9  and  C_12
REMARK    3  A    between atoms: N_10  and  C_19
REMARK    4  A    between atoms: C_13  and  C_17
REMARK    5  A    between atoms: C_18  and  C_20
REMARK    6  A    between atoms: C_19  and  C_21
REMARK    7  A    between atoms: C_19  and  C_25
REMARK    8  A    between atoms: C_20  and  C_23
REMARK    9  A    between atoms: C_21  and  C_26
REMARK   10  A    between atoms: C_21  and  C_27
REMARK   11  A    between atoms: C_22  and  C_24
REMARK   12  A    between atoms: C_23  and  C_29
REMARK   13  A    between atoms: C_24  and  C_28
REMARK                            x       y       z     vdW  Elec       q    Type
REMARK                         _______ _______ _______ _____ _____    ______ ____
ROOT
ATOM      3  O   UNL     1       8.116   7.838   6.298  0.00  0.00    -0.276 OA
ATOM      8  N   UNL     1       9.941   7.016   5.109  0.00  0.00    -0.290 N 
ATOM     12  C   UNL     1      11.457   6.953   2.614  0.00  0.00    +0.077 C 
ATOM     13  C   UNL     1      11.047   6.054   4.974  0.00  0.00    +0.164 C 
ATOM     14  C   UNL     1      11.380   5.720   3.518  0.00  0.00    +0.054 C 
ATOM     15  C   UNL     1      10.196   7.801   2.770  0.00  0.00    +0.041 C 
ATOM     16  C   UNL     1       9.978   8.188   4.226  0.00  0.00    +0.110 C 
ATOM     18  C   UNL     1       8.961   6.959   6.107  0.00  0.00    +0.217 C 
ENDROOT
BRANCH  13  17
ATOM      2  O   UNL     1      12.259   6.697   6.929  0.00  0.00    -0.274 OA
ATOM     10  N   UNL     1      13.199   7.097   4.837  0.00  0.00    -0.302 N 
ATOM     17  C   UNL     1      12.222   6.637   5.703  0.00  0.00    +0.234 C 
ATOM     34  H   UNL     1      13.111   6.907   3.844  0.00  0.00    +0.150 HD
BRANCH  10  19
ATOM     19  C   UNL     1      14.422   7.724   5.287  0.00  0.00    +0.161 C 
BRANCH  19  25
ATOM      5  O   UNL     1      16.700   7.679   4.436  0.00  0.00    -0.274 OA
ATOM     11  N   UNL     1      15.170   6.219   3.543  0.00  0.00    -0.328 N 
ATOM     25  C   UNL     1      15.560   7.221   4.406  0.00  0.00    +0.231 C 
ATOM     35  H   UNL     1      15.832   5.801   2.898  0.00  0.00    +0.145 HD
ATOM     36  H   UNL     1      14.216   5.876   3.497  0.00  0.00    +0.145 HD
ENDBRANCH  19  25
BRANCH  19  21
ATOM     21  C   UNL     1      14.338   9.265   5.313  0.00  0.00    +0.012 C 
ATOM     26  C   UNL     1      13.859   9.819   6.658  0.00  0.00    +0.009 C 
ATOM     27  C   UNL     1      13.442   9.786   4.185  0.00  0.00    +0.009 C 
ENDBRANCH  19  21
ENDBRANCH  10  19
ENDBRANCH  13  17
BRANCH  12   9
ATOM      4  O   UNL     1      13.804   7.389   1.007  0.00  0.00    -0.275 OA
ATOM      9  N   UNL     1      11.643   6.568   1.236  0.00  0.00    -0.312 N 
ATOM     22  C   UNL     1      12.817   6.822   0.542  0.00  0.00    +0.218 C 
ATOM     33  H   UNL     1      10.859   6.145   0.749  0.00  0.00    +0.149 HD
BRANCH  22  24
ATOM     24  C   UNL     1      12.784   6.310  -0.885  0.00  0.00    +0.138 C 
BRANCH  24  28
ATOM      1  S   UNL     1      15.134   6.380  -2.369  0.00  0.00    -0.101 S 
ATOM     28  C   UNL     1      14.103   5.663  -1.205  0.00  0.00    -0.001 A 
ATOM     30  C   UNL     1      14.644   4.512  -0.674  0.00  0.00    +0.011 A 
ATOM     31  C   UNL     1      15.921   4.215  -1.231  0.00  0.00    +0.008 A 
ATOM     32  C   UNL     1      16.308   5.150  -2.166  0.00  0.00    +0.045 A 
ENDBRANCH  24  28
ENDBRANCH  22  24
ENDBRANCH  12   9
BRANCH  18  20
ATOM     20  C   UNL     1       8.953   5.731   6.982  0.00  0.00    +0.107 C 
BRANCH  20  23
ATOM     23  C   UNL     1       9.384   6.097   8.387  0.00  0.00    +0.129 C 
BRANCH  23  29
ATOM      7  O   UNL     1       9.869   4.677  10.280  0.00  0.00    -0.251 OA
ATOM     29  C   UNL     1      10.013   4.920   9.089  0.00  0.00    +0.305 C 
BRANCH  29   6
ATOM      6  O   UNL     1      10.779   4.166   8.261  0.00  0.00    -0.481 OA
ATOM     37  H   UNL     1      11.660   3.976   8.649  0.00  0.00    +0.295 HD
ENDBRANCH  29   6
ENDBRANCH  23  29
ENDBRANCH  20  23
ENDBRANCH  18  20
TORSDOF 11
ENDMDL
MODEL 10
REMARK VINA RESULT:      -5.7      3.256      7.533
REMARK  Name = 7134566
REMARK  13 active torsions:
REMARK  status: ('A' for Active; 'I' for Inactive)
REMARK    1  A    between atoms: O_6  and  C_29
REMARK    2  A    between atoms: N_9  and  C_12
REMARK    3  A    between atoms: N_10  and  C_19
REMARK    4  A    between atoms: C_13  and  C_17
REMARK    5  A    between atoms: C_18  and  C_20
REMARK    6  A    between atoms: C_19  and  C_21
REMARK    7  A    between atoms: C_19  and  C_25
REMARK    8  A    between atoms: C_20  and  C_23
REMARK    9  A    between atoms: C_21  and  C_26
REMARK   10  A    between atoms: C_21  and  C_27
REMARK   11  A    between atoms: C_22  and  C_24
REMARK   12  A    between atoms: C_23  and  C_29
REMARK   13  A    between atoms: C_24  and  C_28
REMARK                            x       y       z     vdW  Elec       q    Type
REMARK                         _______ _______ _______ _____ _____    ______ ____
ROOT
ATOM      3  O   UNL     1      13.121   2.848  -0.571  0.00  0.00    -0.276 OA
ATOM      8  N   UNL     1      12.725   4.555   0.962  0.00  0.00    -0.290 N 
ATOM     12  C   UNL     1      11.191   5.541   3.244  0.00  0.00    +0.077 C 
ATOM     13  C   UNL     1      12.911   5.950   1.395  0.00  0.00    +0.164 C 
ATOM     14  C   UNL     1      11.718   6.504   2.176  0.00  0.00    +0.054 C 
ATOM     15  C   UNL     1      10.933   4.164   2.634  0.00  0.00    +0.041 C 
ATOM     16  C   UNL     1      12.189   3.624   1.963  0.00  0.00    +0.110 C 
ATOM     18  C   UNL     1      13.158   4.044  -0.266  0.00  0.00    +0.217 C 
ENDROOT
BRANCH  13  17
ATOM      2  O   UNL     1      14.888   4.998   2.340  0.00  0.00    -0.274 OA
ATOM     10  N   UNL     1      14.412   7.242   2.744  0.00  0.00    -0.302 N 
ATOM     17  C   UNL     1      14.179   5.991   2.196  0.00  0.00    +0.234 C 
ATOM     34  H   UNL     1      13.814   8.018   2.479  0.00  0.00    +0.150 HD
BRANCH  10  19
ATOM     19  C   UNL     1      15.555   7.539   3.578  0.00  0.00    +0.161 C 
BRANCH  19  25
ATOM      5  O   UNL     1      16.461   9.600   2.659  0.00  0.00    -0.274 OA
ATOM     11  N   UNL     1      17.479   7.617   2.109  0.00  0.00    -0.328 N 
ATOM     25  C   UNL     1      16.530   8.377   2.758  0.00  0.00    +0.231 C 
ATOM     35  H   UNL     1      18.184   8.053   1.525  0.00  0.00    +0.145 HD
ATOM     36  H   UNL     1      17.502   6.603   2.165  0.00  0.00    +0.145 HD
ENDBRANCH  19  25
BRANCH  19  21
ATOM     21  C   UNL     1      15.172   8.220   4.909  0.00  0.00    +0.012 C 
ATOM     26  C   UNL     1      16.369   8.436   5.840  0.00  0.00    +0.009 C 
ATOM     27  C   UNL     1      14.082   7.429   5.637  0.00  0.00    +0.009 C 
ENDBRANCH  19  21
ENDBRANCH  10  19
ENDBRANCH  13  17
BRANCH  12   9
ATOM      4  O   UNL     1       9.995   4.657   5.707  0.00  0.00    -0.275 OA
ATOM      9  N   UNL     1       9.992   6.058   3.855  0.00  0.00    -0.312 N 
ATOM     22  C   UNL     1       9.490   5.566   5.050  0.00  0.00    +0.218 C 
ATOM     33  H   UNL     1       9.472   6.773   3.354  0.00  0.00    +0.149 HD
BRANCH  22  24
ATOM     24  C   UNL     1       8.230   6.278   5.503  0.00  0.00    +0.138 C 
BRANCH  24  28
ATOM      1  S   UNL     1       8.678   9.020   5.585  0.00  0.00    -0.101 S 
ATOM     28  C   UNL     1       8.612   7.477   6.325  0.00  0.00    -0.001 A 
ATOM     30  C   UNL     1       8.935   7.532   7.663  0.00  0.00    +0.011 A 
ATOM     31  C   UNL     1       9.242   8.857   8.086  0.00  0.00    +0.008 A 
ATOM     32  C   UNL     1       9.141   9.765   7.056  0.00  0.00    +0.045 A 
ENDBRANCH  24  28
ENDBRANCH  22  24
ENDBRANCH  12   9
BRANCH  18  20
ATOM     20  C   UNL     1      13.689   5.039  -1.267  0.00  0.00    +0.107 C 
BRANCH  20  23
ATOM     23  C   UNL     1      15.027   4.568  -1.801  0.00  0.00    +0.129 C 
BRANCH  23  29
ATOM      7  O   UNL     1      16.395   6.043  -0.464  0.00  0.00    -0.251 OA
ATOM     29  C   UNL     1      16.145   4.908  -0.848  0.00  0.00    +0.305 C 
BRANCH  29   6
ATOM      6  O   UNL     1      16.865   3.819  -0.478  0.00  0.00    -0.481 OA
ATOM     37  H   UNL     1      16.871   3.129  -1.176  0.00  0.00    +0.295 HD
ENDBRANCH  29   6
ENDBRANCH  23  29
ENDBRANCH  20  23
ENDBRANCH  18  20
TORSDOF 11
ENDMDL
