MODEL 1
REMARK VINA RESULT:      -7.1      0.000      0.000
REMARK  Name = 11882961
REMARK  8 active torsions:
REMARK  status: ('A' for Active; 'I' for Inactive)
REMARK    1  A    between atoms: O_2  and  C_15
REMARK    2  A    between atoms: O_3  and  C_20
REMARK    3  A    between atoms: C_10  and  C_18
REMARK    4  A    between atoms: C_12  and  C_20
REMARK    5  A    between atoms: C_12  and  C_21
REMARK    6  A    between atoms: C_13  and  C_23
REMARK    7  A    between atoms: C_23  and  C_24
REMARK    8  A    between atoms: C_28  and  C_29
REMARK                            x       y       z     vdW  Elec       q    Type
REMARK                         _______ _______ _______ _____ _____    ______ ____
ROOT
ATOM      1  S   UNL     1      17.907   5.954  19.519  0.00  0.00    -0.057 S 
ATOM      6  O   UNL     1      21.279   8.162  21.871  0.00  0.00    -0.275 OA
ATOM      7  N   UNL     1      18.464   8.058  20.917  0.00  0.00    -0.229 NA
ATOM      9  N   UNL     1      20.252   6.480  20.565  0.00  0.00    -0.264 N 
ATOM     10  C   UNL     1      14.940   9.385  20.087  0.00  0.00    -0.019 C 
ATOM     11  C   UNL     1      14.321   7.920  20.010  0.00  0.00    +0.011 C 
ATOM     12  C   UNL     1      12.815   7.802  19.556  0.00  0.00    +0.021 C 
ATOM     13  C   UNL     1      16.275   9.310  20.963  0.00  0.00    +0.054 C 
ATOM     14  C   UNL     1      13.939  10.330  20.802  0.00  0.00    +0.010 C 
ATOM     15  C   UNL     1      11.964   8.846  20.333  0.00  0.00    +0.123 C 
ATOM     16  C   UNL     1      15.277   6.938  19.271  0.00  0.00    +0.049 C 
ATOM     17  C   UNL     1      12.523  10.261  20.248  0.00  0.00    +0.032 C 
ATOM     18  C   UNL     1      15.270   9.973  18.693  0.00  0.00    +0.012 C 
ATOM     19  C   UNL     1      17.138   8.150  20.538  0.00  0.00    +0.058 A 
ATOM     21  C   UNL     1      12.280   6.392  19.936  0.00  0.00    +0.016 C 
ATOM     22  C   UNL     1      16.665   7.088  19.794  0.00  0.00    +0.015 A 
ATOM     25  C   UNL     1      18.972   6.946  20.430  0.00  0.00    +0.165 A 
ATOM     28  C   UNL     1      21.305   7.099  21.260  0.00  0.00    +0.222 C 
ATOM     39  H   UNL     1      20.429   5.588  20.111  0.00  0.00    +0.157 HD
ENDROOT
BRANCH  28  29
ATOM     29  C   UNL     1      22.567   6.288  21.192  0.00  0.00    +0.075 C 
ATOM     32  C   UNL     1      23.181   6.110  22.582  0.00  0.00    +0.013 C 
ATOM     33  C   UNL     1      22.299   4.955  20.490  0.00  0.00    +0.013 C 
ATOM     34  C   UNL     1      22.451   5.079  23.443  0.00  0.00    +0.001 C 
ATOM     35  C   UNL     1      21.565   3.949  21.374  0.00  0.00    +0.001 C 
ATOM     36  C   UNL     1      22.270   3.755  22.711  0.00  0.00    +0.000 C 
ENDBRANCH  28  29
BRANCH  15   2
ATOM      2  O   UNL     1      10.618   8.855  19.853  0.00  0.00    -0.391 OA
ATOM     37  H   UNL     1      10.391   9.773  19.633  0.00  0.00    +0.210 HD
ENDBRANCH  15   2
BRANCH  12  20
ATOM     20  C   UNL     1      12.592   7.934  18.033  0.00  0.00    +0.165 C 
BRANCH  20   3
ATOM      3  O   UNL     1      11.834   6.824  17.610  0.00  0.00    -0.394 OA
ATOM     38  H   UNL     1      11.582   6.324  18.406  0.00  0.00    +0.209 HD
ENDBRANCH  20   3
ENDBRANCH  12  20
BRANCH  13  23
ATOM     23  C   UNL     1      17.076  10.618  21.016  0.00  0.00    +0.106 C 
BRANCH  23  24
ATOM      4  O   UNL     1      16.011  11.119  23.074  0.00  0.00    -0.276 OA
ATOM      5  O   UNL     1      20.727  12.144  24.153  0.00  0.00    -0.377 OA
ATOM      8  N   UNL     1      18.244  11.723  22.888  0.00  0.00    -0.297 N 
ATOM     24  C   UNL     1      17.053  11.174  22.417  0.00  0.00    +0.216 C 
ATOM     26  C   UNL     1      18.311  12.282  24.238  0.00  0.00    +0.136 C 
ATOM     27  C   UNL     1      19.463  11.920  22.094  0.00  0.00    +0.136 C 
ATOM     30  C   UNL     1      19.579  11.819  24.941  0.00  0.00    +0.179 C 
ATOM     31  C   UNL     1      20.686  11.478  22.888  0.00  0.00    +0.179 C 
ENDBRANCH  23  24
ENDBRANCH  13  23
TORSDOF 6
ENDMDL
MODEL 2
REMARK VINA RESULT:      -6.9     28.932     32.157
REMARK  Name = 11882961
REMARK  8 active torsions:
REMARK  status: ('A' for Active; 'I' for Inactive)
REMARK    1  A    between atoms: O_2  and  C_15
REMARK    2  A    between atoms: O_3  and  C_20
REMARK    3  A    between atoms: C_10  and  C_18
REMARK    4  A    between atoms: C_12  and  C_20
REMARK    5  A    between atoms: C_12  and  C_21
REMARK    6  A    between atoms: C_13  and  C_23
REMARK    7  A    between atoms: C_23  and  C_24
REMARK    8  A    between atoms: C_28  and  C_29
REMARK                            x       y       z     vdW  Elec       q    Type
REMARK                         _______ _______ _______ _____ _____    ______ ____
ROOT
ATOM      1  S   UNL     1      -8.782  -9.169  14.317  0.00  0.00    -0.057 S 
ATOM      6  O   UNL     1      -4.809 -10.014  12.018  0.00  0.00    -0.275 OA
ATOM      7  N   UNL     1      -6.544 -10.465  14.391  0.00  0.00    -0.229 NA
ATOM      9  N   UNL     1      -6.937  -9.082  12.456  0.00  0.00    -0.264 N 
ATOM     10  C   UNL     1      -7.458 -11.580  17.968  0.00  0.00    -0.019 C 
ATOM     11  C   UNL     1      -9.019 -11.565  17.658  0.00  0.00    +0.011 C 
ATOM     12  C   UNL     1      -9.992 -11.846  18.868  0.00  0.00    +0.021 C 
ATOM     13  C   UNL     1      -6.681 -11.716  16.578  0.00  0.00    +0.054 C 
ATOM     14  C   UNL     1      -7.117 -12.816  18.840  0.00  0.00    +0.010 C 
ATOM     15  C   UNL     1      -9.480 -13.083  19.659  0.00  0.00    +0.123 C 
ATOM     16  C   UNL     1      -9.418 -10.323  16.809  0.00  0.00    +0.049 C 
ATOM     17  C   UNL     1      -8.014 -12.975  20.060  0.00  0.00    +0.032 C 
ATOM     18  C   UNL     1      -6.978 -10.304  18.704  0.00  0.00    +0.012 C 
ATOM     19  C   UNL     1      -7.235 -10.761  15.551  0.00  0.00    +0.058 A 
ATOM     21  C   UNL     1     -11.401 -12.201  18.313  0.00  0.00    +0.016 C 
ATOM     22  C   UNL     1      -8.473 -10.162  15.667  0.00  0.00    +0.015 A 
ATOM     25  C   UNL     1      -7.260  -9.630  13.669  0.00  0.00    +0.165 A 
ATOM     28  C   UNL     1      -5.760  -9.300  11.719  0.00  0.00    +0.222 C 
ATOM     39  H   UNL     1      -7.644  -8.462  12.069  0.00  0.00    +0.157 HD
ENDROOT
BRANCH  28  29
ATOM     29  C   UNL     1      -5.762  -8.529  10.431  0.00  0.00    +0.075 C 
ATOM     32  C   UNL     1      -4.490  -8.804   9.626  0.00  0.00    +0.013 C 
ATOM     33  C   UNL     1      -7.038  -8.827   9.641  0.00  0.00    +0.013 C 
ATOM     34  C   UNL     1      -4.495 -10.162   8.924  0.00  0.00    +0.001 C 
ATOM     35  C   UNL     1      -7.014 -10.192   8.956  0.00  0.00    +0.001 C 
ATOM     36  C   UNL     1      -5.763 -10.373   8.105  0.00  0.00    +0.000 C 
ENDBRANCH  28  29
BRANCH  15   2
ATOM      2  O   UNL     1     -10.264 -13.287  20.835  0.00  0.00    -0.391 OA
ATOM     37  H   UNL     1     -10.016 -14.150  21.208  0.00  0.00    +0.210 HD
ENDBRANCH  15   2
BRANCH  12  20
ATOM     20  C   UNL     1     -10.208 -10.641  19.810  0.00  0.00    +0.165 C 
BRANCH  20   3
ATOM      3  O   UNL     1     -11.422 -10.843  20.497  0.00  0.00    -0.394 OA
ATOM     38  H   UNL     1     -12.052 -10.175  20.175  0.00  0.00    +0.209 HD
ENDBRANCH  20   3
ENDBRANCH  12  20
BRANCH  13  23
ATOM     23  C   UNL     1      -5.154 -11.599  16.687  0.00  0.00    +0.106 C 
BRANCH  23  24
ATOM      4  O   UNL     1      -5.001 -13.786  15.784  0.00  0.00    -0.276 OA
ATOM      5  O   UNL     1      -1.504 -11.427  13.203  0.00  0.00    -0.377 OA
ATOM      8  N   UNL     1      -3.345 -12.286  15.156  0.00  0.00    -0.297 N 
ATOM     24  C   UNL     1      -4.500 -12.661  15.839  0.00  0.00    +0.216 C 
ATOM     26  C   UNL     1      -2.648 -13.253  14.307  0.00  0.00    +0.136 C 
ATOM     27  C   UNL     1      -2.652 -11.000  15.297  0.00  0.00    +0.136 C 
ATOM     30  C   UNL     1      -2.267 -12.615  12.978  0.00  0.00    +0.179 C 
ATOM     31  C   UNL     1      -2.264 -10.457  13.927  0.00  0.00    +0.179 C 
ENDBRANCH  23  24
ENDBRANCH  13  23
TORSDOF 6
ENDMDL
MODEL 3
REMARK VINA RESULT:      -6.9     28.574     32.570
REMARK  Name = 11882961
REMARK  8 active torsions:
REMARK  status: ('A' for Active; 'I' for Inactive)
REMARK    1  A    between atoms: O_2  and  C_15
REMARK    2  A    between atoms: O_3  and  C_20
REMARK    3  A    between atoms: C_10  and  C_18
REMARK    4  A    between atoms: C_12  and  C_20
REMARK    5  A    between atoms: C_12  and  C_21
REMARK    6  A    between atoms: C_13  and  C_23
REMARK    7  A    between atoms: C_23  and  C_24
REMARK    8  A    between atoms: C_28  and  C_29
REMARK                            x       y       z     vdW  Elec       q    Type
REMARK                         _______ _______ _______ _____ _____    ______ ____
ROOT
ATOM      1  S   UNL     1      -6.233 -10.176  10.641  0.00  0.00    -0.057 S 
ATOM      6  O   UNL     1     -10.559  -8.581  11.367  0.00  0.00    -0.275 OA
ATOM      7  N   UNL     1      -7.971  -9.561  12.456  0.00  0.00    -0.229 NA
ATOM      9  N   UNL     1      -8.647  -9.273  10.160  0.00  0.00    -0.264 N 
ATOM     10  C   UNL     1      -5.517 -10.945  15.089  0.00  0.00    -0.019 C 
ATOM     11  C   UNL     1      -4.241 -10.542  14.226  0.00  0.00    +0.011 C 
ATOM     12  C   UNL     1      -2.833 -10.992  14.778  0.00  0.00    +0.021 C 
ATOM     13  C   UNL     1      -6.743 -10.040  14.607  0.00  0.00    +0.054 C 
ATOM     14  C   UNL     1      -5.245 -10.641  16.585  0.00  0.00    +0.010 C 
ATOM     15  C   UNL     1      -2.746 -10.657  16.293  0.00  0.00    +0.123 C 
ATOM     16  C   UNL     1      -4.453 -10.858  12.717  0.00  0.00    +0.049 C 
ATOM     17  C   UNL     1      -3.923 -11.198  17.096  0.00  0.00    +0.032 C 
ATOM     18  C   UNL     1      -5.892 -12.441  14.946  0.00  0.00    +0.012 C 
ATOM     19  C   UNL     1      -6.833 -10.005  13.103  0.00  0.00    +0.058 A 
ATOM     21  C   UNL     1      -1.723 -10.175  14.058  0.00  0.00    +0.016 C 
ATOM     22  C   UNL     1      -5.787 -10.360  12.275  0.00  0.00    +0.015 A 
ATOM     25  C   UNL     1      -7.772  -9.615  11.157  0.00  0.00    +0.165 A 
ATOM     28  C   UNL     1      -9.957  -8.789  10.319  0.00  0.00    +0.222 C 
ATOM     39  H   UNL     1      -8.283  -9.386   9.218  0.00  0.00    +0.157 HD
ENDROOT
BRANCH  28  29
ATOM     29  C   UNL     1     -10.613  -8.520   8.995  0.00  0.00    +0.075 C 
ATOM     32  C   UNL     1     -11.817  -7.590   9.158  0.00  0.00    +0.013 C 
ATOM     33  C   UNL     1      -9.585  -7.986   7.996  0.00  0.00    +0.013 C 
ATOM     34  C   UNL     1     -11.432  -6.127   9.371  0.00  0.00    +0.001 C 
ATOM     35  C   UNL     1      -9.217  -6.523   8.239  0.00  0.00    +0.001 C 
ATOM     36  C   UNL     1     -10.454  -5.636   8.310  0.00  0.00    +0.000 C 
ENDBRANCH  28  29
BRANCH  15   2
ATOM      2  O   UNL     1      -1.536 -11.168  16.853  0.00  0.00    -0.391 OA
ATOM     37  H   UNL     1      -0.839 -11.076  16.181  0.00  0.00    +0.210 HD
ENDBRANCH  15   2
BRANCH  12  20
ATOM     20  C   UNL     1      -2.489 -12.476  14.521  0.00  0.00    +0.165 C 
BRANCH  20   3
ATOM      3  O   UNL     1      -1.124 -12.549  14.176  0.00  0.00    -0.394 OA
ATOM     38  H   UNL     1      -0.915 -13.486  14.018  0.00  0.00    +0.209 HD
ENDBRANCH  20   3
ENDBRANCH  12  20
BRANCH  13  23
ATOM     23  C   UNL     1      -8.092 -10.405  15.242  0.00  0.00    +0.106 C 
BRANCH  23  24
ATOM      4  O   UNL     1      -7.673  -8.936  17.055  0.00  0.00    -0.276 OA
ATOM      5  O   UNL     1     -12.114  -7.368  15.547  0.00  0.00    -0.377 OA
ATOM      8  N   UNL     1      -9.804  -8.870  16.137  0.00  0.00    -0.297 N 
ATOM     24  C   UNL     1      -8.496  -9.339  16.230  0.00  0.00    +0.216 C 
ATOM     26  C   UNL     1     -10.277  -7.833  17.055  0.00  0.00    +0.136 C 
ATOM     27  C   UNL     1     -10.844  -9.414  15.257  0.00  0.00    +0.136 C 
ATOM     30  C   UNL     1     -11.054  -6.767  16.295  0.00  0.00    +0.179 C 
ATOM     31  C   UNL     1     -11.603  -8.282  14.575  0.00  0.00    +0.179 C 
ENDBRANCH  23  24
ENDBRANCH  13  23
TORSDOF 6
ENDMDL
MODEL 4
REMARK VINA RESULT:      -6.8     28.599     31.949
REMARK  Name = 11882961
REMARK  8 active torsions:
REMARK  status: ('A' for Active; 'I' for Inactive)
REMARK    1  A    between atoms: O_2  and  C_15
REMARK    2  A    between atoms: O_3  and  C_20
REMARK    3  A    between atoms: C_10  and  C_18
REMARK    4  A    between atoms: C_12  and  C_20
REMARK    5  A    between atoms: C_12  and  C_21
REMARK    6  A    between atoms: C_13  and  C_23
REMARK    7  A    between atoms: C_23  and  C_24
REMARK    8  A    between atoms: C_28  and  C_29
REMARK                            x       y       z     vdW  Elec       q    Type
REMARK                         _______ _______ _______ _____ _____    ______ ____
ROOT
ATOM      1  S   UNL     1      -8.641  -9.557  12.372  0.00  0.00    -0.057 S 
ATOM      6  O   UNL     1      -4.768 -10.185  14.900  0.00  0.00    -0.275 OA
ATOM      7  N   UNL     1      -6.088  -9.951  12.245  0.00  0.00    -0.229 NA
ATOM      9  N   UNL     1      -7.061  -9.827  14.447  0.00  0.00    -0.264 N 
ATOM     10  C   UNL     1      -6.457 -10.257   8.419  0.00  0.00    -0.019 C 
ATOM     11  C   UNL     1      -7.688  -9.249   8.378  0.00  0.00    +0.011 C 
ATOM     12  C   UNL     1      -8.400  -9.045   6.985  0.00  0.00    +0.021 C 
ATOM     13  C   UNL     1      -5.638  -9.981   9.763  0.00  0.00    +0.054 C 
ATOM     14  C   UNL     1      -5.523  -9.980   7.212  0.00  0.00    +0.010 C 
ATOM     15  C   UNL     1      -7.322  -8.827   5.886  0.00  0.00    +0.123 C 
ATOM     16  C   UNL     1      -8.674  -9.508   9.554  0.00  0.00    +0.049 C 
ATOM     17  C   UNL     1      -6.248  -9.908   5.876  0.00  0.00    +0.032 C 
ATOM     18  C   UNL     1      -6.894 -11.743   8.378  0.00  0.00    +0.012 C 
ATOM     19  C   UNL     1      -6.562  -9.873  10.949  0.00  0.00    +0.058 A 
ATOM     21  C   UNL     1      -9.269  -7.757   7.045  0.00  0.00    +0.016 C 
ATOM     22  C   UNL     1      -7.917  -9.643  10.832  0.00  0.00    +0.015 A 
ATOM     25  C   UNL     1      -7.096  -9.806  13.078  0.00  0.00    +0.165 A 
ATOM     28  C   UNL     1      -5.929 -10.011  15.259  0.00  0.00    +0.222 C 
ATOM     39  H   UNL     1      -7.962  -9.687  14.896  0.00  0.00    +0.157 HD
ENDROOT
BRANCH  28  29
ATOM     29  C   UNL     1      -6.280  -9.970  16.718  0.00  0.00    +0.075 C 
ATOM     32  C   UNL     1      -7.543 -10.786  17.001  0.00  0.00    +0.013 C 
ATOM     33  C   UNL     1      -5.084 -10.421  17.560  0.00  0.00    +0.013 C 
ATOM     34  C   UNL     1      -7.305 -12.296  17.003  0.00  0.00    +0.001 C 
ATOM     35  C   UNL     1      -4.870 -11.933  17.536  0.00  0.00    +0.001 C 
ATOM     36  C   UNL     1      -6.141 -12.687  17.907  0.00  0.00    +0.000 C 
ENDBRANCH  28  29
BRANCH  15   2
ATOM      2  O   UNL     1      -7.927  -8.768   4.594  0.00  0.00    -0.391 OA
ATOM     37  H   UNL     1      -7.217  -8.637   3.943  0.00  0.00    +0.210 HD
ENDBRANCH  15   2
BRANCH  12  20
ATOM     20  C   UNL     1      -9.369 -10.181   6.589  0.00  0.00    +0.165 C 
BRANCH  20   3
ATOM      3  O   UNL     1     -10.433  -9.607   5.864  0.00  0.00    -0.394 OA
ATOM     38  H   UNL     1     -11.202  -9.571   6.459  0.00  0.00    +0.209 HD
ENDBRANCH  20   3
ENDBRANCH  12  20
BRANCH  13  23
ATOM     23  C   UNL     1      -4.495 -10.971  10.029  0.00  0.00    +0.106 C 
BRANCH  23  24
ATOM      4  O   UNL     1      -3.044  -9.110  10.256  0.00  0.00    -0.276 OA
ATOM      5  O   UNL     1      -1.657 -11.894  14.101  0.00  0.00    -0.377 OA
ATOM      8  N   UNL     1      -2.625 -10.929  11.637  0.00  0.00    -0.297 N 
ATOM     24  C   UNL     1      -3.325 -10.247  10.644  0.00  0.00    +0.216 C 
ATOM     26  C   UNL     1      -1.477 -10.297  12.289  0.00  0.00    +0.136 C 
ATOM     27  C   UNL     1      -2.850 -12.324  12.032  0.00  0.00    +0.136 C 
ATOM     30  C   UNL     1      -1.546 -10.502  13.797  0.00  0.00    +0.179 C 
ATOM     31  C   UNL     1      -2.856 -12.446  13.551  0.00  0.00    +0.179 C 
ENDBRANCH  23  24
ENDBRANCH  13  23
TORSDOF 6
ENDMDL
MODEL 5
REMARK VINA RESULT:      -6.8     16.616     20.310
REMARK  Name = 11882961
REMARK  8 active torsions:
REMARK  status: ('A' for Active; 'I' for Inactive)
REMARK    1  A    between atoms: O_2  and  C_15
REMARK    2  A    between atoms: O_3  and  C_20
REMARK    3  A    between atoms: C_10  and  C_18
REMARK    4  A    between atoms: C_12  and  C_20
REMARK    5  A    between atoms: C_12  and  C_21
REMARK    6  A    between atoms: C_13  and  C_23
REMARK    7  A    between atoms: C_23  and  C_24
REMARK    8  A    between atoms: C_28  and  C_29
REMARK                            x       y       z     vdW  Elec       q    Type
REMARK                         _______ _______ _______ _____ _____    ______ ____
ROOT
ATOM      1  S   UNL     1       9.780   7.390  -0.261  0.00  0.00    -0.057 S 
ATOM      6  O   UNL     1      11.816   4.339   2.625  0.00  0.00    -0.275 OA
ATOM      7  N   UNL     1       9.963   6.627   2.204  0.00  0.00    -0.229 NA
ATOM      9  N   UNL     1      11.287   5.420   0.590  0.00  0.00    -0.264 N 
ATOM     10  C   UNL     1       7.765   9.645   3.166  0.00  0.00    -0.019 C 
ATOM     11  C   UNL     1       6.980   9.615   1.781  0.00  0.00    +0.011 C 
ATOM     12  C   UNL     1       5.946  10.777   1.519  0.00  0.00    +0.021 C 
ATOM     13  C   UNL     1       8.396   8.196   3.406  0.00  0.00    +0.054 C 
ATOM     14  C   UNL     1       6.768   9.939   4.317  0.00  0.00    +0.010 C 
ATOM     15  C   UNL     1       5.061  10.969   2.783  0.00  0.00    +0.123 C 
ATOM     16  C   UNL     1       7.945   9.354   0.588  0.00  0.00    +0.049 C 
ATOM     17  C   UNL     1       5.870  11.142   4.063  0.00  0.00    +0.032 C 
ATOM     18  C   UNL     1       8.889  10.710   3.199  0.00  0.00    +0.012 C 
ATOM     19  C   UNL     1       9.084   7.692   2.163  0.00  0.00    +0.058 A 
ATOM     21  C   UNL     1       5.005  10.364   0.352  0.00  0.00    +0.016 C 
ATOM     22  C   UNL     1       8.853   8.215   0.907  0.00  0.00    +0.015 A 
ATOM     25  C   UNL     1      10.398   6.384   0.986  0.00  0.00    +0.165 A 
ATOM     28  C   UNL     1      11.928   4.477   1.411  0.00  0.00    +0.222 C 
ATOM     39  H   UNL     1      11.479   5.405  -0.408  0.00  0.00    +0.157 HD
ENDROOT
BRANCH  28  29
ATOM     29  C   UNL     1      12.833   3.578   0.620  0.00  0.00    +0.075 C 
ATOM     32  C   UNL     1      13.196   4.209  -0.726  0.00  0.00    +0.013 C 
ATOM     33  C   UNL     1      14.064   3.207   1.450  0.00  0.00    +0.013 C 
ATOM     34  C   UNL     1      14.240   5.320  -0.615  0.00  0.00    +0.001 C 
ATOM     35  C   UNL     1      15.085   4.339   1.545  0.00  0.00    +0.001 C 
ATOM     36  C   UNL     1      15.467   4.870   0.169  0.00  0.00    +0.000 C 
ENDBRANCH  28  29
BRANCH  15   2
ATOM      2  O   UNL     1       4.200  12.098   2.628  0.00  0.00    -0.391 OA
ATOM     37  H   UNL     1       3.688  12.193   3.448  0.00  0.00    +0.210 HD
ENDBRANCH  15   2
BRANCH  12  20
ATOM     20  C   UNL     1       6.583  12.116   1.085  0.00  0.00    +0.165 C 
BRANCH  20   3
ATOM      3  O   UNL     1       5.690  12.751   0.198  0.00  0.00    -0.394 OA
ATOM     38  H   UNL     1       4.809  12.366   0.348  0.00  0.00    +0.209 HD
ENDBRANCH  20   3
ENDBRANCH  12  20
BRANCH  13  23
ATOM     23  C   UNL     1       9.311   8.095   4.634  0.00  0.00    +0.106 C 
BRANCH  23  24
ATOM      4  O   UNL     1       7.668   6.551   5.368  0.00  0.00    -0.276 OA
ATOM      5  O   UNL     1      11.369   5.590   8.505  0.00  0.00    -0.377 OA
ATOM      8  N   UNL     1       9.553   6.774   6.704  0.00  0.00    -0.297 N 
ATOM     24  C   UNL     1       8.763   7.072   5.596  0.00  0.00    +0.216 C 
ATOM     26  C   UNL     1       9.098   5.789   7.686  0.00  0.00    +0.136 C 
ATOM     27  C   UNL     1      10.795   7.463   7.073  0.00  0.00    +0.136 C 
ATOM     30  C   UNL     1      10.234   4.845   8.054  0.00  0.00    +0.179 C 
ATOM     31  C   UNL     1      11.860   6.450   7.474  0.00  0.00    +0.179 C 
ENDBRANCH  23  24
ENDBRANCH  13  23
TORSDOF 6
ENDMDL
MODEL 6
REMARK VINA RESULT:      -6.6     15.273     19.452
REMARK  Name = 11882961
REMARK  8 active torsions:
REMARK  status: ('A' for Active; 'I' for Inactive)
REMARK    1  A    between atoms: O_2  and  C_15
REMARK    2  A    between atoms: O_3  and  C_20
REMARK    3  A    between atoms: C_10  and  C_18
REMARK    4  A    between atoms: C_12  and  C_20
REMARK    5  A    between atoms: C_12  and  C_21
REMARK    6  A    between atoms: C_13  and  C_23
REMARK    7  A    between atoms: C_23  and  C_24
REMARK    8  A    between atoms: C_28  and  C_29
REMARK                            x       y       z     vdW  Elec       q    Type
REMARK                         _______ _______ _______ _____ _____    ______ ____
ROOT
ATOM      1  S   UNL     1      13.912   7.483   6.804  0.00  0.00    -0.057 S 
ATOM      6  O   UNL     1      10.876   5.557   3.829  0.00  0.00    -0.275 OA
ATOM      7  N   UNL     1      13.475   6.918   4.318  0.00  0.00    -0.229 NA
ATOM      9  N   UNL     1      11.763   6.290   5.895  0.00  0.00    -0.264 N 
ATOM     10  C   UNL     1      16.697   8.848   3.446  0.00  0.00    -0.019 C 
ATOM     11  C   UNL     1      17.388   8.476   4.831  0.00  0.00    +0.011 C 
ATOM     12  C   UNL     1      18.794   9.129   5.128  0.00  0.00    +0.021 C 
ATOM     13  C   UNL     1      15.549   7.772   3.164  0.00  0.00    +0.054 C 
ATOM     14  C   UNL     1      17.744   8.754   2.305  0.00  0.00    +0.010 C 
ATOM     15  C   UNL     1      19.699   8.988   3.871  0.00  0.00    +0.123 C 
ATOM     16  C   UNL     1      16.384   8.586   6.015  0.00  0.00    +0.049 C 
ATOM     17  C   UNL     1      19.039   9.499   2.596  0.00  0.00    +0.032 C 
ATOM     18  C   UNL     1      16.084  10.270   3.442  0.00  0.00    +0.012 C 
ATOM     19  C   UNL     1      14.702   7.549   4.391  0.00  0.00    +0.058 A 
ATOM     21  C   UNL     1      19.480   8.349   6.284  0.00  0.00    +0.016 C 
ATOM     22  C   UNL     1      15.104   7.906   5.662  0.00  0.00    +0.015 A 
ATOM     25  C   UNL     1      12.964   6.835   5.528  0.00  0.00    +0.165 A 
ATOM     28  C   UNL     1      10.812   5.698   5.046  0.00  0.00    +0.222 C 
ATOM     39  H   UNL     1      11.567   6.326   6.892  0.00  0.00    +0.157 HD
ENDROOT
BRANCH  28  29
ATOM     29  C   UNL     1       9.616   5.208   5.810  0.00  0.00    +0.075 C 
ATOM     32  C   UNL     1       9.903   5.164   7.312  0.00  0.00    +0.013 C 
ATOM     33  C   UNL     1       8.388   6.055   5.467  0.00  0.00    +0.013 C 
ATOM     34  C   UNL     1       9.882   6.541   7.976  0.00  0.00    +0.001 C 
ATOM     35  C   UNL     1       8.400   7.426   6.141  0.00  0.00    +0.001 C 
ATOM     36  C   UNL     1       8.609   7.311   7.646  0.00  0.00    +0.000 C 
ENDBRANCH  28  29
BRANCH  15   2
ATOM      2  O   UNL     1      20.932   9.682   4.060  0.00  0.00    -0.391 OA
ATOM     37  H   UNL     1      21.573   9.049   4.425  0.00  0.00    +0.210 HD
ENDBRANCH  15   2
BRANCH  12  20
ATOM     20  C   UNL     1      18.730  10.599   5.599  0.00  0.00    +0.165 C 
BRANCH  20   3
ATOM      3  O   UNL     1      19.773  10.800   6.526  0.00  0.00    -0.394 OA
ATOM     38  H   UNL     1      20.610  10.783   6.030  0.00  0.00    +0.209 HD
ENDBRANCH  20   3
ENDBRANCH  12  20
BRANCH  13  23
ATOM     23  C   UNL     1      14.684   8.071   1.932  0.00  0.00    +0.106 C 
BRANCH  23  24
ATOM      4  O   UNL     1      15.753   6.235   0.880  0.00  0.00    -0.276 OA
ATOM      5  O   UNL     1      11.069   5.588  -0.570  0.00  0.00    -0.377 OA
ATOM      8  N   UNL     1      13.544   6.630   0.286  0.00  0.00    -0.297 N 
ATOM     24  C   UNL     1      14.717   6.897   0.987  0.00  0.00    +0.216 C 
ATOM     26  C   UNL     1      13.488   5.506  -0.649  0.00  0.00    +0.136 C 
ATOM     27  C   UNL     1      12.339   7.467   0.293  0.00  0.00    +0.136 C 
ATOM     30  C   UNL     1      12.199   4.719  -0.456  0.00  0.00    +0.179 C 
ATOM     31  C   UNL     1      11.095   6.599   0.440  0.00  0.00    +0.179 C 
ENDBRANCH  23  24
ENDBRANCH  13  23
TORSDOF 6
ENDMDL
MODEL 7
REMARK VINA RESULT:      -6.6     15.496     18.594
REMARK  Name = 11882961
REMARK  8 active torsions:
REMARK  status: ('A' for Active; 'I' for Inactive)
REMARK    1  A    between atoms: O_2  and  C_15
REMARK    2  A    between atoms: O_3  and  C_20
REMARK    3  A    between atoms: C_10  and  C_18
REMARK    4  A    between atoms: C_12  and  C_20
REMARK    5  A    between atoms: C_12  and  C_21
REMARK    6  A    between atoms: C_13  and  C_23
REMARK    7  A    between atoms: C_23  and  C_24
REMARK    8  A    between atoms: C_28  and  C_29
REMARK                            x       y       z     vdW  Elec       q    Type
REMARK                         _______ _______ _______ _____ _____    ______ ____
ROOT
ATOM      1  S   UNL     1      16.594   7.958   1.692  0.00  0.00    -0.057 S 
ATOM      6  O   UNL     1      16.774   9.468   6.105  0.00  0.00    -0.275 OA
ATOM      7  N   UNL     1      15.270   8.143   3.908  0.00  0.00    -0.229 NA
ATOM      9  N   UNL     1      17.504   9.048   3.896  0.00  0.00    -0.264 N 
ATOM     10  C   UNL     1      12.201   6.742   2.040  0.00  0.00    -0.019 C 
ATOM     11  C   UNL     1      13.100   5.874   1.053  0.00  0.00    +0.011 C 
ATOM     12  C   UNL     1      12.353   5.107  -0.106  0.00  0.00    +0.021 C 
ATOM     13  C   UNL     1      13.065   7.052   3.348  0.00  0.00    +0.054 C 
ATOM     14  C   UNL     1      10.956   5.919   2.462  0.00  0.00    +0.010 C 
ATOM     15  C   UNL     1      11.111   4.378   0.480  0.00  0.00    +0.123 C 
ATOM     16  C   UNL     1      14.349   6.669   0.575  0.00  0.00    +0.049 C 
ATOM     17  C   UNL     1      10.206   5.295   1.294  0.00  0.00    +0.032 C 
ATOM     18  C   UNL     1      11.726   8.074   1.408  0.00  0.00    +0.012 C 
ATOM     19  C   UNL     1      14.451   7.521   2.984  0.00  0.00    +0.058 A 
ATOM     21  C   UNL     1      13.301   4.017  -0.683  0.00  0.00    +0.016 C 
ATOM     22  C   UNL     1      15.013   7.323   1.740  0.00  0.00    +0.015 A 
ATOM     25  C   UNL     1      16.421   8.426   3.336  0.00  0.00    +0.165 A 
ATOM     28  C   UNL     1      17.616   9.522   5.214  0.00  0.00    +0.222 C 
ATOM     39  H   UNL     1      18.299   9.160   3.272  0.00  0.00    +0.157 HD
ENDROOT
BRANCH  28  29
ATOM     29  C   UNL     1      18.957  10.146   5.468  0.00  0.00    +0.075 C 
ATOM     32  C   UNL     1      19.407   9.914   6.912  0.00  0.00    +0.013 C 
ATOM     33  C   UNL     1      19.976   9.641   4.444  0.00  0.00    +0.013 C 
ATOM     34  C   UNL     1      19.912   8.495   7.172  0.00  0.00    +0.001 C 
ATOM     35  C   UNL     1      20.457   8.219   4.728  0.00  0.00    +0.001 C 
ATOM     36  C   UNL     1      20.967   8.073   6.156  0.00  0.00    +0.000 C 
ENDBRANCH  28  29
BRANCH  15   2
ATOM      2  O   UNL     1      10.341   3.781  -0.564  0.00  0.00    -0.391 OA
ATOM     37  H   UNL     1       9.586   3.328  -0.150  0.00  0.00    +0.210 HD
ENDBRANCH  15   2
BRANCH  12  20
ATOM     20  C   UNL     1      11.957   5.992  -1.309  0.00  0.00    +0.165 C 
BRANCH  20   3
ATOM      3  O   UNL     1      12.063   5.208  -2.475  0.00  0.00    -0.394 OA
ATOM     38  H   UNL     1      11.171   5.126  -2.852  0.00  0.00    +0.209 HD
ENDBRANCH  20   3
ENDBRANCH  12  20
BRANCH  13  23
ATOM     23  C   UNL     1      12.393   8.007   4.345  0.00  0.00    +0.106 C 
BRANCH  23  24
ATOM      4  O   UNL     1      12.923   6.700   6.251  0.00  0.00    -0.276 OA
ATOM      5  O   UNL     1       8.190   7.826   7.136  0.00  0.00    -0.377 OA
ATOM      8  N   UNL     1      10.688   7.257   5.963  0.00  0.00    -0.297 N 
ATOM     24  C   UNL     1      12.034   7.260   5.605  0.00  0.00    +0.216 C 
ATOM     26  C   UNL     1      10.254   6.560   7.174  0.00  0.00    +0.136 C 
ATOM     27  C   UNL     1       9.591   7.802   5.155  0.00  0.00    +0.136 C 
ATOM     30  C   UNL     1       9.284   7.426   7.965  0.00  0.00    +0.179 C 
ATOM     31  C   UNL     1       8.643   8.612   6.031  0.00  0.00    +0.179 C 
ENDBRANCH  23  24
ENDBRANCH  13  23
TORSDOF 6
ENDMDL
MODEL 8
REMARK VINA RESULT:      -6.6     17.521     21.738
REMARK  Name = 11882961
REMARK  8 active torsions:
REMARK  status: ('A' for Active; 'I' for Inactive)
REMARK    1  A    between atoms: O_2  and  C_15
REMARK    2  A    between atoms: O_3  and  C_20
REMARK    3  A    between atoms: C_10  and  C_18
REMARK    4  A    between atoms: C_12  and  C_20
REMARK    5  A    between atoms: C_12  and  C_21
REMARK    6  A    between atoms: C_13  and  C_23
REMARK    7  A    between atoms: C_23  and  C_24
REMARK    8  A    between atoms: C_28  and  C_29
REMARK                            x       y       z     vdW  Elec       q    Type
REMARK                         _______ _______ _______ _____ _____    ______ ____
ROOT
ATOM      1  S   UNL     1      11.271   3.971   2.362  0.00  0.00    -0.057 S 
ATOM      6  O   UNL     1       9.777   5.367  -1.833  0.00  0.00    -0.275 OA
ATOM      7  N   UNL     1      10.105   5.890   1.076  0.00  0.00    -0.229 NA
ATOM      9  N   UNL     1      10.764   3.960  -0.210  0.00  0.00    -0.264 N 
ATOM     10  C   UNL     1       9.502   7.623   4.467  0.00  0.00    -0.019 C 
ATOM     11  C   UNL     1      10.828   7.012   5.104  0.00  0.00    +0.011 C 
ATOM     12  C   UNL     1      11.083   7.296   6.635  0.00  0.00    +0.021 C 
ATOM     13  C   UNL     1       9.664   7.600   2.877  0.00  0.00    +0.054 C 
ATOM     14  C   UNL     1       9.345   9.098   4.920  0.00  0.00    +0.010 C 
ATOM     15  C   UNL     1      10.838   8.804   6.923  0.00  0.00    +0.123 C 
ATOM     16  C   UNL     1      11.014   5.519   4.704  0.00  0.00    +0.049 C 
ATOM     17  C   UNL     1       9.487   9.300   6.422  0.00  0.00    +0.032 C 
ATOM     18  C   UNL     1       8.226   6.842   4.868  0.00  0.00    +0.012 C 
ATOM     19  C   UNL     1      10.179   6.264   2.404  0.00  0.00    +0.058 A 
ATOM     21  C   UNL     1      12.573   6.997   6.964  0.00  0.00    +0.016 C 
ATOM     22  C   UNL     1      10.797   5.354   3.238  0.00  0.00    +0.015 A 
ATOM     25  C   UNL     1      10.642   4.697   0.938  0.00  0.00    +0.165 A 
ATOM     28  C   UNL     1      10.335   4.328  -1.497  0.00  0.00    +0.222 C 
ATOM     39  H   UNL     1      11.222   3.060  -0.090  0.00  0.00    +0.157 HD
ENDROOT
BRANCH  28  29
ATOM     29  C   UNL     1      10.642   3.263  -2.510  0.00  0.00    +0.075 C 
ATOM     32  C   UNL     1      10.496   3.802  -3.934  0.00  0.00    +0.013 C 
ATOM     33  C   UNL     1      12.026   2.666  -2.243  0.00  0.00    +0.013 C 
ATOM     34  C   UNL     1      11.661   4.689  -4.372  0.00  0.00    +0.001 C 
ATOM     35  C   UNL     1      13.168   3.578  -2.687  0.00  0.00    +0.001 C 
ATOM     36  C   UNL     1      13.008   4.014  -4.138  0.00  0.00    +0.000 C 
ENDBRANCH  28  29
BRANCH  15   2
ATOM      2  O   UNL     1      10.934   9.070   8.323  0.00  0.00    -0.391 OA
ATOM     37  H   UNL     1      11.867   8.970   8.578  0.00  0.00    +0.210 HD
ENDBRANCH  15   2
BRANCH  12  20
ATOM     20  C   UNL     1      10.259   6.411   7.597  0.00  0.00    +0.165 C 
BRANCH  20   3
ATOM      3  O   UNL     1      11.131   5.454   8.154  0.00  0.00    -0.394 OA
ATOM     38  H   UNL     1      11.230   5.666   9.098  0.00  0.00    +0.209 HD
ENDBRANCH  20   3
ENDBRANCH  12  20
BRANCH  13  23
ATOM     23  C   UNL     1       8.408   8.023   2.103  0.00  0.00    +0.106 C 
BRANCH  23  24
ATOM      4  O   UNL     1       9.882   9.595   1.114  0.00  0.00    -0.276 OA
ATOM      5  O   UNL     1       5.593  10.813  -1.025  0.00  0.00    -0.377 OA
ATOM      8  N   UNL     1       7.617   9.900   0.710  0.00  0.00    -0.297 N 
ATOM     24  C   UNL     1       8.710   9.242   1.268  0.00  0.00    +0.216 C 
ATOM     26  C   UNL     1       7.821  11.090  -0.117  0.00  0.00    +0.136 C 
ATOM     27  C   UNL     1       6.208   9.586   0.975  0.00  0.00    +0.136 C 
ATOM     30  C   UNL     1       6.965  11.014  -1.374  0.00  0.00    +0.179 C 
ATOM     31  C   UNL     1       5.416   9.578  -0.326  0.00  0.00    +0.179 C 
ENDBRANCH  23  24
ENDBRANCH  13  23
TORSDOF 6
ENDMDL
MODEL 9
REMARK VINA RESULT:      -6.5     30.430     33.235
REMARK  Name = 11882961
REMARK  8 active torsions:
REMARK  status: ('A' for Active; 'I' for Inactive)
REMARK    1  A    between atoms: O_2  and  C_15
REMARK    2  A    between atoms: O_3  and  C_20
REMARK    3  A    between atoms: C_10  and  C_18
REMARK    4  A    between atoms: C_12  and  C_20
REMARK    5  A    between atoms: C_12  and  C_21
REMARK    6  A    between atoms: C_13  and  C_23
REMARK    7  A    between atoms: C_23  and  C_24
REMARK    8  A    between atoms: C_28  and  C_29
REMARK                            x       y       z     vdW  Elec       q    Type
REMARK                         _______ _______ _______ _____ _____    ______ ____
ROOT
ATOM      1  S   UNL     1     -10.509  -9.021  16.529  0.00  0.00    -0.057 S 
ATOM      6  O   UNL     1     -11.288  -8.336  11.978  0.00  0.00    -0.275 OA
ATOM      7  N   UNL     1      -9.567  -9.414  14.151  0.00  0.00    -0.229 NA
ATOM      9  N   UNL     1     -11.672  -8.249  14.310  0.00  0.00    -0.264 N 
ATOM     10  C   UNL     1      -6.373 -10.821  15.790  0.00  0.00    -0.019 C 
ATOM     11  C   UNL     1      -7.170 -11.374  17.053  0.00  0.00    +0.011 C 
ATOM     12  C   UNL     1      -6.314 -12.003  18.220  0.00  0.00    +0.021 C 
ATOM     13  C   UNL     1      -7.413 -10.651  14.588  0.00  0.00    +0.054 C 
ATOM     14  C   UNL     1      -5.300 -11.857  15.364  0.00  0.00    +0.010 C 
ATOM     15  C   UNL     1      -5.263 -12.976  17.616  0.00  0.00    +0.123 C 
ATOM     16  C   UNL     1      -8.240 -10.354  17.539  0.00  0.00    +0.049 C 
ATOM     17  C   UNL     1      -4.426 -12.345  16.510  0.00  0.00    +0.032 C 
ATOM     18  C   UNL     1      -5.675  -9.467  16.064  0.00  0.00    +0.012 C 
ATOM     19  C   UNL     1      -8.667  -9.953  15.050  0.00  0.00    +0.058 A 
ATOM     21  C   UNL     1      -7.249 -12.840  19.138  0.00  0.00    +0.016 C 
ATOM     22  C   UNL     1      -9.027  -9.847  16.378  0.00  0.00    +0.015 A 
ATOM     25  C   UNL     1     -10.573  -8.889  14.818  0.00  0.00    +0.165 A 
ATOM     28  C   UNL     1     -11.959  -8.015  12.954  0.00  0.00    +0.222 C 
ATOM     39  H   UNL     1     -12.335  -7.925  15.009  0.00  0.00    +0.157 HD
ENDROOT
BRANCH  28  29
ATOM     29  C   UNL     1     -13.259  -7.285  12.780  0.00  0.00    +0.075 C 
ATOM     32  C   UNL     1     -13.543  -6.377  13.978  0.00  0.00    +0.013 C 
ATOM     33  C   UNL     1     -13.265  -6.527  11.450  0.00  0.00    +0.013 C 
ATOM     34  C   UNL     1     -12.713  -5.093  13.980  0.00  0.00    +0.001 C 
ATOM     35  C   UNL     1     -12.422  -5.254  11.483  0.00  0.00    +0.001 C 
ATOM     36  C   UNL     1     -12.808  -4.354  12.650  0.00  0.00    +0.000 C 
ENDBRANCH  28  29
BRANCH  15   2
ATOM      2  O   UNL     1      -4.388 -13.464  18.633  0.00  0.00    -0.391 OA
ATOM     37  H   UNL     1      -4.143 -12.711  19.197  0.00  0.00    +0.210 HD
ENDBRANCH  15   2
BRANCH  12  20
ATOM     20  C   UNL     1      -5.639 -10.969  19.148  0.00  0.00    +0.165 C 
BRANCH  20   3
ATOM      3  O   UNL     1      -6.225 -11.087  20.424  0.00  0.00    -0.394 OA
ATOM     38  H   UNL     1      -5.810 -11.848  20.865  0.00  0.00    +0.209 HD
ENDBRANCH  20   3
ENDBRANCH  12  20
BRANCH  13  23
ATOM     23  C   UNL     1      -6.831  -9.987  13.332  0.00  0.00    +0.106 C 
BRANCH  23  24
ATOM      4  O   UNL     1      -7.537 -11.931  12.172  0.00  0.00    -0.276 OA
ATOM      5  O   UNL     1      -4.192 -10.092   9.029  0.00  0.00    -0.377 OA
ATOM      8  N   UNL     1      -5.705 -10.808  11.296  0.00  0.00    -0.297 N 
ATOM     24  C   UNL     1      -6.729 -11.000  12.220  0.00  0.00    +0.216 C 
ATOM     26  C   UNL     1      -5.536 -11.743  10.183  0.00  0.00    +0.136 C 
ATOM     27  C   UNL     1      -4.652  -9.791  11.392  0.00  0.00    +0.136 C 
ATOM     30  C   UNL     1      -5.300 -10.983   8.884  0.00  0.00    +0.179 C 
ATOM     31  C   UNL     1      -4.447  -9.115  10.042  0.00  0.00    +0.179 C 
ENDBRANCH  23  24
ENDBRANCH  13  23
TORSDOF 6
ENDMDL
MODEL 10
REMARK VINA RESULT:      -6.5     14.988     18.149
REMARK  Name = 11882961
REMARK  8 active torsions:
REMARK  status: ('A' for Active; 'I' for Inactive)
REMARK    1  A    between atoms: O_2  and  C_15
REMARK    2  A    between atoms: O_3  and  C_20
REMARK    3  A    between atoms: C_10  and  C_18
REMARK    4  A    between atoms: C_12  and  C_20
REMARK    5  A    between atoms: C_12  and  C_21
REMARK    6  A    between atoms: C_13  and  C_23
REMARK    7  A    between atoms: C_23  and  C_24
REMARK    8  A    between atoms: C_28  and  C_29
REMARK                            x       y       z     vdW  Elec       q    Type
REMARK                         _______ _______ _______ _____ _____    ______ ____
ROOT
ATOM      1  S   UNL     1      14.936  10.126   6.480  0.00  0.00    -0.057 S 
ATOM      6  O   UNL     1      17.983   8.472   3.357  0.00  0.00    -0.275 OA
ATOM      7  N   UNL     1      15.189   8.674   4.354  0.00  0.00    -0.229 NA
ATOM      9  N   UNL     1      17.201   9.658   5.246  0.00  0.00    -0.264 N 
ATOM     10  C   UNL     1      11.460   7.755   4.696  0.00  0.00    -0.019 C 
ATOM     11  C   UNL     1      11.094   9.155   5.359  0.00  0.00    +0.011 C 
ATOM     12  C   UNL     1       9.611   9.342   5.865  0.00  0.00    +0.021 C 
ATOM     13  C   UNL     1      12.823   7.936   3.882  0.00  0.00    +0.054 C 
ATOM     14  C   UNL     1      10.345   7.351   3.696  0.00  0.00    +0.010 C 
ATOM     15  C   UNL     1       8.630   8.848   4.765  0.00  0.00    +0.123 C 
ATOM     16  C   UNL     1      12.170   9.590   6.396  0.00  0.00    +0.049 C 
ATOM     17  C   UNL     1       8.939   7.439   4.272  0.00  0.00    +0.032 C 
ATOM     18  C   UNL     1      11.628   6.621   5.737  0.00  0.00    +0.012 C 
ATOM     19  C   UNL     1      13.852   8.670   4.704  0.00  0.00    +0.058 A 
ATOM     21  C   UNL     1       9.339  10.857   6.084  0.00  0.00    +0.016 C 
ATOM     22  C   UNL     1      13.534   9.421   5.818  0.00  0.00    +0.015 A 
ATOM     25  C   UNL     1      15.856   9.403   5.223  0.00  0.00    +0.165 A 
ATOM     28  C   UNL     1      18.163   9.190   4.335  0.00  0.00    +0.222 C 
ATOM     39  H   UNL     1      17.506  10.257   6.009  0.00  0.00    +0.157 HD
ENDROOT
BRANCH  28  29
ATOM     29  C   UNL     1      19.539   9.681   4.680  0.00  0.00    +0.075 C 
ATOM     32  C   UNL     1      19.692   9.869   6.191  0.00  0.00    +0.013 C 
ATOM     33  C   UNL     1      20.596   8.744   4.091  0.00  0.00    +0.013 C 
ATOM     34  C   UNL     1      19.866   8.555   6.953  0.00  0.00    +0.001 C 
ATOM     35  C   UNL     1      20.742   7.439   4.871  0.00  0.00    +0.001 C 
ATOM     36  C   UNL     1      20.973   7.694   6.355  0.00  0.00    +0.000 C 
ENDBRANCH  28  29
BRANCH  15   2
ATOM      2  O   UNL     1       7.283   8.883   5.240  0.00  0.00    -0.391 OA
ATOM     37  H   UNL     1       6.748   9.348   4.576  0.00  0.00    +0.210 HD
ENDBRANCH  15   2
BRANCH  12  20
ATOM     20  C   UNL     1       9.307   8.665   7.220  0.00  0.00    +0.165 C 
BRANCH  20   3
ATOM      3  O   UNL     1       9.204   9.678   8.194  0.00  0.00    -0.394 OA
ATOM     38  H   UNL     1      10.105   9.878   8.500  0.00  0.00    +0.209 HD
ENDBRANCH  20   3
ENDBRANCH  12  20
BRANCH  13  23
ATOM     23  C   UNL     1      13.395   6.637   3.297  0.00  0.00    +0.106 C 
BRANCH  23  24
ATOM      4  O   UNL     1      13.663   7.734   1.213  0.00  0.00    -0.276 OA
ATOM      5  O   UNL     1      12.891   3.071  -0.242  0.00  0.00    -0.377 OA
ATOM      8  N   UNL     1      12.949   5.527   1.139  0.00  0.00    -0.297 N 
ATOM     24  C   UNL     1      13.349   6.691   1.791  0.00  0.00    +0.216 C 
ATOM     26  C   UNL     1      12.880   5.492  -0.322  0.00  0.00    +0.136 C 
ATOM     27  C   UNL     1      12.449   4.313   1.795  0.00  0.00    +0.136 C 
ATOM     30  C   UNL     1      13.507   4.209  -0.851  0.00  0.00    +0.179 C 
ATOM     31  C   UNL     1      13.088   3.077   1.174  0.00  0.00    +0.179 C 
ENDBRANCH  23  24
ENDBRANCH  13  23
TORSDOF 6
ENDMDL
