MODEL 1
REMARK VINA RESULT:      -6.9      0.000      0.000
REMARK  Name = 38028098
REMARK  11 active torsions:
REMARK  status: ('A' for Active; 'I' for Inactive)
REMARK    1  A    between atoms: S_1  and  N_6
REMARK    2  A    between atoms: S_1  and  C_26
REMARK    3  A    between atoms: N_6  and  C_16
REMARK    4  A    between atoms: C_9  and  C_13
REMARK    5  A    between atoms: C_10  and  C_16
REMARK    6  A    between atoms: C_12  and  C_17
REMARK    7  A    between atoms: C_13  and  C_18
REMARK    8  A    between atoms: C_13  and  C_19
REMARK    9  A    between atoms: C_14  and  C_20
REMARK   10  A    between atoms: C_17  and  C_21
REMARK   11  A    between atoms: C_31  and  C_32
REMARK                            x       y       z     vdW  Elec       q    Type
REMARK                         _______ _______ _______ _____ _____    ______ ____
ROOT
ATOM      9  C   UNL     1      17.004   7.595  20.646  0.00  0.00    +0.000 C 
ATOM     10  C   UNL     1      15.687   7.309  21.410  0.00  0.00    +0.030 C 
ATOM     11  C   UNL     1      17.861   8.611  21.417  0.00  0.00    +0.012 C 
ATOM     12  C   UNL     1      17.126   9.947  21.638  0.00  0.00    +0.023 C 
ATOM     14  C   UNL     1      15.712   9.735  22.141  0.00  0.00    -0.073 C 
ATOM     15  C   UNL     1      15.090   8.546  22.042  0.00  0.00    -0.023 C 
ATOM     20  C   UNL     1      15.045  10.908  22.800  0.00  0.00    +0.039 C 
ENDROOT
BRANCH   9  13
ATOM     13  C   UNL     1      17.810   6.315  20.404  0.00  0.00    -0.013 C 
ATOM     18  C   UNL     1      17.604   5.820  18.977  0.00  0.00    +0.007 C 
ATOM     19  C   UNL     1      19.289   6.556  20.686  0.00  0.00    +0.007 C 
ENDBRANCH   9  13
BRANCH  10  16
ATOM     16  C   UNL     1      14.648   6.652  20.493  0.00  0.00    +0.113 C 
BRANCH  16   6
ATOM      6  N   UNL     1      13.434   6.364  21.272  0.00  0.00    -0.189 NA
ATOM     33  H   UNL     1      13.492   5.602  21.958  0.00  0.00    +0.148 HD
BRANCH   6   1
ATOM      1  S   UNL     1      11.899   6.741  20.636  0.00  0.00    +0.058 S 
ATOM      4  O   UNL     1      10.897   5.917  21.286  0.00  0.00    -0.153 OA
ATOM      5  O   UNL     1      11.981   6.782  19.189  0.00  0.00    -0.153 OA
BRANCH   1  26
ATOM     26  C   UNL     1      11.678   8.405  21.188  0.00  0.00    +0.105 A 
ATOM     27  C   UNL     1      12.088   9.467  20.383  0.00  0.00    +0.030 A 
ATOM     28  C   UNL     1      11.093   8.656  22.430  0.00  0.00    +0.030 A 
ATOM     29  C   UNL     1      11.914  10.781  20.820  0.00  0.00    +0.021 A 
ATOM     30  C   UNL     1      10.919   9.970  22.866  0.00  0.00    +0.021 A 
ATOM     31  C   UNL     1      11.329  11.032  22.061  0.00  0.00    +0.052 A 
BRANCH  31  32
ATOM      8  N   UNL     1      11.007  13.471  22.871  0.00  0.00    -0.191 NA
ATOM     32  C   UNL     1      11.151  12.378  22.508  0.00  0.00    +0.099 C 
ENDBRANCH  31  32
ENDBRANCH   1  26
ENDBRANCH   6   1
ENDBRANCH  16   6
ENDBRANCH  10  16
BRANCH  12  17
ATOM     17  C   UNL     1      17.132  10.798  20.363  0.00  0.00    +0.103 C 
BRANCH  17  21
ATOM      2  O   UNL     1      18.756  12.047  21.557  0.00  0.00    -0.276 OA
ATOM      3  O   UNL     1      18.927  14.228  17.121  0.00  0.00    -0.377 OA
ATOM      7  N   UNL     1      18.170  12.845  19.457  0.00  0.00    -0.297 N 
ATOM     21  C   UNL     1      18.092  11.950  20.521  0.00  0.00    +0.216 C 
ATOM     22  C   UNL     1      19.079  13.989  19.526  0.00  0.00    +0.136 C 
ATOM     23  C   UNL     1      17.308  12.832  18.270  0.00  0.00    +0.136 C 
ATOM     24  C   UNL     1      19.841  14.140  18.217  0.00  0.00    +0.179 C 
ATOM     25  C   UNL     1      18.142  13.037  17.011  0.00  0.00    +0.179 C 
ENDBRANCH  17  21
ENDBRANCH  12  17
TORSDOF 8
ENDMDL
MODEL 2
REMARK VINA RESULT:      -6.8      2.863      5.245
REMARK  Name = 38028098
REMARK  11 active torsions:
REMARK  status: ('A' for Active; 'I' for Inactive)
REMARK    1  A    between atoms: S_1  and  N_6
REMARK    2  A    between atoms: S_1  and  C_26
REMARK    3  A    between atoms: N_6  and  C_16
REMARK    4  A    between atoms: C_9  and  C_13
REMARK    5  A    between atoms: C_10  and  C_16
REMARK    6  A    between atoms: C_12  and  C_17
REMARK    7  A    between atoms: C_13  and  C_18
REMARK    8  A    between atoms: C_13  and  C_19
REMARK    9  A    between atoms: C_14  and  C_20
REMARK   10  A    between atoms: C_17  and  C_21
REMARK   11  A    between atoms: C_31  and  C_32
REMARK                            x       y       z     vdW  Elec       q    Type
REMARK                         _______ _______ _______ _____ _____    ______ ____
ROOT
ATOM      9  C   UNL     1      16.624   8.787  21.667  0.00  0.00    +0.000 C 
ATOM     10  C   UNL     1      15.528   8.027  20.878  0.00  0.00    +0.030 C 
ATOM     11  C   UNL     1      17.926   8.848  20.852  0.00  0.00    +0.012 C 
ATOM     12  C   UNL     1      18.460   7.446  20.501  0.00  0.00    +0.023 C 
ATOM     14  C   UNL     1      17.367   6.545  19.964  0.00  0.00    -0.073 C 
ATOM     15  C   UNL     1      16.063   6.828  20.130  0.00  0.00    -0.023 C 
ATOM     20  C   UNL     1      17.807   5.334  19.191  0.00  0.00    +0.039 C 
ENDROOT
BRANCH   9  13
ATOM     13  C   UNL     1      16.178  10.205  22.037  0.00  0.00    -0.013 C 
ATOM     18  C   UNL     1      17.367  11.025  22.529  0.00  0.00    +0.007 C 
ATOM     19  C   UNL     1      15.510  10.881  20.845  0.00  0.00    +0.007 C 
ENDBRANCH   9  13
BRANCH  10  16
ATOM     16  C   UNL     1      14.387   7.586  21.803  0.00  0.00    +0.113 C 
BRANCH  16   6
ATOM      6  N   UNL     1      13.621   6.518  21.144  0.00  0.00    -0.189 NA
ATOM     33  H   UNL     1      14.160   5.767  20.697  0.00  0.00    +0.148 HD
BRANCH   6   1
ATOM      1  S   UNL     1      12.056   6.831  20.546  0.00  0.00    +0.058 S 
ATOM      4  O   UNL     1      11.113   5.928  21.179  0.00  0.00    -0.153 OA
ATOM      5  O   UNL     1      12.110   6.932  19.101  0.00  0.00    -0.153 OA
BRANCH   1  26
ATOM     26  C   UNL     1      11.752   8.458  21.166  0.00  0.00    +0.105 A 
ATOM     27  C   UNL     1      11.159   8.628  22.417  0.00  0.00    +0.030 A 
ATOM     28  C   UNL     1      12.104   9.572  20.404  0.00  0.00    +0.030 A 
ATOM     29  C   UNL     1      10.918   9.912  22.906  0.00  0.00    +0.021 A 
ATOM     30  C   UNL     1      11.864  10.856  20.893  0.00  0.00    +0.021 A 
ATOM     31  C   UNL     1      11.271  11.026  22.144  0.00  0.00    +0.052 A 
BRANCH  31  32
ATOM      8  N   UNL     1      10.824  13.410  23.052  0.00  0.00    -0.191 NA
ATOM     32  C   UNL     1      11.024  12.342  22.645  0.00  0.00    +0.099 C 
ENDBRANCH  31  32
ENDBRANCH   1  26
ENDBRANCH   6   1
ENDBRANCH  16   6
ENDBRANCH  10  16
BRANCH  12  17
ATOM     17  C   UNL     1      19.157   6.804  21.706  0.00  0.00    +0.103 C 
BRANCH  17  21
ATOM      2  O   UNL     1      21.083   8.160  21.973  0.00  0.00    -0.276 OA
ATOM      3  O   UNL     1      23.125   3.756  21.025  0.00  0.00    -0.377 OA
ATOM      7  N   UNL     1      21.433   6.003  21.187  0.00  0.00    -0.297 N 
ATOM     21  C   UNL     1      20.642   7.059  21.635  0.00  0.00    +0.216 C 
ATOM     22  C   UNL     1      22.883   6.164  21.091  0.00  0.00    +0.136 C 
ATOM     23  C   UNL     1      20.932   4.729  20.659  0.00  0.00    +0.136 C 
ATOM     24  C   UNL     1      23.591   4.945  21.666  0.00  0.00    +0.179 C 
ATOM     25  C   UNL     1      21.724   3.568  21.247  0.00  0.00    +0.179 C 
ENDBRANCH  17  21
ENDBRANCH  12  17
TORSDOF 8
ENDMDL
MODEL 3
REMARK VINA RESULT:      -6.4     28.882     31.421
REMARK  Name = 38028098
REMARK  11 active torsions:
REMARK  status: ('A' for Active; 'I' for Inactive)
REMARK    1  A    between atoms: S_1  and  N_6
REMARK    2  A    between atoms: S_1  and  C_26
REMARK    3  A    between atoms: N_6  and  C_16
REMARK    4  A    between atoms: C_9  and  C_13
REMARK    5  A    between atoms: C_10  and  C_16
REMARK    6  A    between atoms: C_12  and  C_17
REMARK    7  A    between atoms: C_13  and  C_18
REMARK    8  A    between atoms: C_13  and  C_19
REMARK    9  A    between atoms: C_14  and  C_20
REMARK   10  A    between atoms: C_17  and  C_21
REMARK   11  A    between atoms: C_31  and  C_32
REMARK                            x       y       z     vdW  Elec       q    Type
REMARK                         _______ _______ _______ _____ _____    ______ ____
ROOT
ATOM      9  C   UNL     1      -6.014 -11.315  14.813  0.00  0.00    +0.000 C 
ATOM     10  C   UNL     1      -4.650 -11.646  15.469  0.00  0.00    +0.030 C 
ATOM     11  C   UNL     1      -6.645 -10.083  15.481  0.00  0.00    +0.012 C 
ATOM     12  C   UNL     1      -6.867 -10.288  16.991  0.00  0.00    +0.023 C 
ATOM     14  C   UNL     1      -5.641 -10.870  17.667  0.00  0.00    -0.073 C 
ATOM     15  C   UNL     1      -4.655 -11.460  16.969  0.00  0.00    -0.023 C 
ATOM     20  C   UNL     1      -5.554 -10.717  19.159  0.00  0.00    +0.039 C 
ENDROOT
BRANCH   9  13
ATOM     13  C   UNL     1      -5.877 -11.075  13.307  0.00  0.00    -0.013 C 
ATOM     18  C   UNL     1      -6.874 -11.936  12.539  0.00  0.00    +0.007 C 
ATOM     19  C   UNL     1      -6.074  -9.599  12.983  0.00  0.00    +0.007 C 
ENDBRANCH   9  13
BRANCH  10  16
ATOM     16  C   UNL     1      -4.205 -13.074  15.132  0.00  0.00    +0.113 C 
BRANCH  16   6
ATOM      6  N   UNL     1      -2.743 -13.099  14.978  0.00  0.00    -0.189 NA
ATOM     33  H   UNL     1      -2.207 -12.417  15.527  0.00  0.00    +0.148 HD
BRANCH   6   1
ATOM      1  S   UNL     1      -2.044 -13.680  13.537  0.00  0.00    +0.058 S 
ATOM      4  O   UNL     1      -2.659 -14.946  13.184  0.00  0.00    -0.153 OA
ATOM      5  O   UNL     1      -0.601 -13.571  13.631  0.00  0.00    -0.153 OA
BRANCH   1  26
ATOM     26  C   UNL     1      -2.577 -12.469  12.364  0.00  0.00    +0.105 A 
ATOM     27  C   UNL     1      -3.375 -12.849  11.285  0.00  0.00    +0.030 A 
ATOM     28  C   UNL     1      -2.198 -11.136  12.517  0.00  0.00    +0.030 A 
ATOM     29  C   UNL     1      -3.796 -11.893  10.359  0.00  0.00    +0.021 A 
ATOM     30  C   UNL     1      -2.618 -10.181  11.591  0.00  0.00    +0.021 A 
ATOM     31  C   UNL     1      -3.417 -10.559  10.512  0.00  0.00    +0.052 A 
BRANCH  31  32
ATOM      8  N   UNL     1      -4.197  -8.786   8.793  0.00  0.00    -0.191 NA
ATOM     32  C   UNL     1      -3.848  -9.581   9.563  0.00  0.00    +0.099 C 
ENDBRANCH  31  32
ENDBRANCH   1  26
ENDBRANCH   6   1
ENDBRANCH  16   6
ENDBRANCH  10  16
BRANCH  12  17
ATOM     17  C   UNL     1      -8.102 -11.156  17.256  0.00  0.00    +0.103 C 
BRANCH  17  21
ATOM      2  O   UNL     1      -9.407  -9.229  17.709  0.00  0.00    -0.276 OA
ATOM      3  O   UNL     1     -11.343 -12.481  20.894  0.00  0.00    -0.377 OA
ATOM      7  N   UNL     1      -9.667 -11.024  19.159  0.00  0.00    -0.297 N 
ATOM     21  C   UNL     1      -9.114 -10.376  18.057  0.00  0.00    +0.216 C 
ATOM     22  C   UNL     1     -10.660 -10.341  19.989  0.00  0.00    +0.136 C 
ATOM     23  C   UNL     1      -9.251 -12.334  19.673  0.00  0.00    +0.136 C 
ATOM     24  C   UNL     1     -11.823 -11.274  20.298  0.00  0.00    +0.179 C 
ATOM     25  C   UNL     1     -10.472 -13.183  20.002  0.00  0.00    +0.179 C 
ENDBRANCH  17  21
ENDBRANCH  12  17
TORSDOF 8
ENDMDL
MODEL 4
REMARK VINA RESULT:      -6.3     29.883     32.748
REMARK  Name = 38028098
REMARK  11 active torsions:
REMARK  status: ('A' for Active; 'I' for Inactive)
REMARK    1  A    between atoms: S_1  and  N_6
REMARK    2  A    between atoms: S_1  and  C_26
REMARK    3  A    between atoms: N_6  and  C_16
REMARK    4  A    between atoms: C_9  and  C_13
REMARK    5  A    between atoms: C_10  and  C_16
REMARK    6  A    between atoms: C_12  and  C_17
REMARK    7  A    between atoms: C_13  and  C_18
REMARK    8  A    between atoms: C_13  and  C_19
REMARK    9  A    between atoms: C_14  and  C_20
REMARK   10  A    between atoms: C_17  and  C_21
REMARK   11  A    between atoms: C_31  and  C_32
REMARK                            x       y       z     vdW  Elec       q    Type
REMARK                         _______ _______ _______ _____ _____    ______ ____
ROOT
ATOM      9  C   UNL     1     -15.537   5.888  31.451  0.00  0.00    +0.000 C 
ATOM     10  C   UNL     1     -15.330   7.051  32.454  0.00  0.00    +0.030 C 
ATOM     11  C   UNL     1     -16.107   4.655  32.170  0.00  0.00    +0.012 C 
ATOM     12  C   UNL     1     -15.188   4.163  33.303  0.00  0.00    +0.023 C 
ATOM     14  C   UNL     1     -14.721   5.305  34.185  0.00  0.00    -0.073 C 
ATOM     15  C   UNL     1     -14.805   6.589  33.794  0.00  0.00    -0.023 C 
ATOM     20  C   UNL     1     -14.198   4.939  35.544  0.00  0.00    +0.039 C 
ENDROOT
BRANCH   9  13
ATOM     13  C   UNL     1     -16.462   6.290  30.298  0.00  0.00    -0.013 C 
ATOM     18  C   UNL     1     -16.601   5.142  29.303  0.00  0.00    +0.007 C 
ATOM     19  C   UNL     1     -17.826   6.712  30.832  0.00  0.00    +0.007 C 
ENDBRANCH   9  13
BRANCH  10  16
ATOM     16  C   UNL     1     -14.391   8.118  31.878  0.00  0.00    +0.113 C 
BRANCH  16   6
ATOM      6  N   UNL     1     -13.118   8.085  32.613  0.00  0.00    -0.189 NA
ATOM     33  H   UNL     1     -12.922   7.242  33.166  0.00  0.00    +0.148 HD
BRANCH   6   1
ATOM      1  S   UNL     1     -12.370   9.538  33.095  0.00  0.00    +0.058 S 
ATOM      4  O   UNL     1     -13.383  10.562  33.271  0.00  0.00    -0.153 OA
ATOM      5  O   UNL     1     -11.222   9.787  32.244  0.00  0.00    -0.153 OA
BRANCH   1  26
ATOM     26  C   UNL     1     -11.745   9.109  34.692  0.00  0.00    +0.105 A 
ATOM     27  C   UNL     1     -10.508   9.598  35.111  0.00  0.00    +0.030 A 
ATOM     28  C   UNL     1     -12.489   8.281  35.532  0.00  0.00    +0.030 A 
ATOM     29  C   UNL     1     -10.015   9.259  36.371  0.00  0.00    +0.021 A 
ATOM     30  C   UNL     1     -11.996   7.942  36.793  0.00  0.00    +0.021 A 
ATOM     31  C   UNL     1     -10.759   8.431  37.212  0.00  0.00    +0.052 A 
BRANCH  31  32
ATOM      8  N   UNL     1      -9.843   7.803  39.552  0.00  0.00    -0.191 NA
ATOM     32  C   UNL     1     -10.254   8.084  38.503  0.00  0.00    +0.099 C 
ENDBRANCH  31  32
ENDBRANCH   1  26
ENDBRANCH   6   1
ENDBRANCH  16   6
ENDBRANCH  10  16
BRANCH  12  17
ATOM     17  C   UNL     1     -13.996   3.378  32.746  0.00  0.00    +0.103 C 
BRANCH  17  21
ATOM      2  O   UNL     1     -14.435   1.313  33.824  0.00  0.00    -0.276 OA
ATOM      3  O   UNL     1     -15.445   0.181  29.116  0.00  0.00    -0.377 OA
ATOM      7  N   UNL     1     -14.440   1.294  31.502  0.00  0.00    -0.297 N 
ATOM     21  C   UNL     1     -14.308   1.903  32.748  0.00  0.00    +0.216 C 
ATOM     22  C   UNL     1     -14.746  -0.134  31.414  0.00  0.00    +0.136 C 
ATOM     23  C   UNL     1     -14.171   1.933  30.210  0.00  0.00    +0.136 C 
ATOM     24  C   UNL     1     -15.831  -0.379  30.373  0.00  0.00    +0.179 C 
ATOM     25  C   UNL     1     -15.276   1.598  29.216  0.00  0.00    +0.179 C 
ENDBRANCH  17  21
ENDBRANCH  12  17
TORSDOF 8
ENDMDL
MODEL 5
REMARK VINA RESULT:      -6.3      2.646      5.790
REMARK  Name = 38028098
REMARK  11 active torsions:
REMARK  status: ('A' for Active; 'I' for Inactive)
REMARK    1  A    between atoms: S_1  and  N_6
REMARK    2  A    between atoms: S_1  and  C_26
REMARK    3  A    between atoms: N_6  and  C_16
REMARK    4  A    between atoms: C_9  and  C_13
REMARK    5  A    between atoms: C_10  and  C_16
REMARK    6  A    between atoms: C_12  and  C_17
REMARK    7  A    between atoms: C_13  and  C_18
REMARK    8  A    between atoms: C_13  and  C_19
REMARK    9  A    between atoms: C_14  and  C_20
REMARK   10  A    between atoms: C_17  and  C_21
REMARK   11  A    between atoms: C_31  and  C_32
REMARK                            x       y       z     vdW  Elec       q    Type
REMARK                         _______ _______ _______ _____ _____    ______ ____
ROOT
ATOM      9  C   UNL     1      13.053  12.119  22.567  0.00  0.00    +0.000 C 
ATOM     10  C   UNL     1      12.225  11.738  21.314  0.00  0.00    +0.030 C 
ATOM     11  C   UNL     1      14.399  12.735  22.153  0.00  0.00    +0.012 C 
ATOM     12  C   UNL     1      15.237  11.776  21.287  0.00  0.00    +0.023 C 
ATOM     14  C   UNL     1      14.412  11.147  20.182  0.00  0.00    -0.073 C 
ATOM     15  C   UNL     1      13.067  11.152  20.205  0.00  0.00    -0.023 C 
ATOM     20  C   UNL     1      15.167  10.553  19.027  0.00  0.00    +0.039 C 
ENDROOT
BRANCH   9  13
ATOM     13  C   UNL     1      12.295  13.093  23.475  0.00  0.00    -0.013 C 
ATOM     18  C   UNL     1      12.103  12.486  24.861  0.00  0.00    +0.007 C 
ATOM     19  C   UNL     1      13.035  14.423  23.564  0.00  0.00    +0.007 C 
ENDBRANCH   9  13
BRANCH  10  16
ATOM     16  C   UNL     1      11.099  10.760  21.672  0.00  0.00    +0.113 C 
BRANCH  16   6
ATOM      6  N   UNL     1      11.685   9.450  21.992  0.00  0.00    -0.189 NA
ATOM     33  H   UNL     1      12.594   9.452  22.471  0.00  0.00    +0.148 HD
BRANCH   6   1
ATOM      1  S   UNL     1      11.287   8.082  21.057  0.00  0.00    +0.058 S 
ATOM      4  O   UNL     1      10.557   8.506  19.877  0.00  0.00    -0.153 OA
ATOM      5  O   UNL     1      10.740   7.057  21.924  0.00  0.00    -0.153 OA
BRANCH   1  26
ATOM     26  C   UNL     1      12.882   7.522  20.540  0.00  0.00    +0.105 A 
ATOM     27  C   UNL     1      13.886   7.310  21.484  0.00  0.00    +0.030 A 
ATOM     28  C   UNL     1      13.136   7.295  19.187  0.00  0.00    +0.030 A 
ATOM     29  C   UNL     1      15.145   6.868  21.075  0.00  0.00    +0.021 A 
ATOM     30  C   UNL     1      14.395   6.853  18.778  0.00  0.00    +0.021 A 
ATOM     31  C   UNL     1      15.399   6.640  19.722  0.00  0.00    +0.052 A 
BRANCH  31  32
ATOM      8  N   UNL     1      17.736   5.822  18.964  0.00  0.00    -0.191 NA
ATOM     32  C   UNL     1      16.689   6.188  19.304  0.00  0.00    +0.099 C 
ENDBRANCH  31  32
ENDBRANCH   1  26
ENDBRANCH   6   1
ENDBRANCH  16   6
ENDBRANCH  10  16
BRANCH  12  17
ATOM     17  C   UNL     1      15.910  10.700  22.147  0.00  0.00    +0.103 C 
BRANCH  17  21
ATOM      2  O   UNL     1      17.548  12.165  23.038  0.00  0.00    -0.276 OA
ATOM      3  O   UNL     1      20.293   8.202  21.930  0.00  0.00    -0.377 OA
ATOM      7  N   UNL     1      18.328  10.219  22.039  0.00  0.00    -0.297 N 
ATOM     21  C   UNL     1      17.332  11.102  22.450  0.00  0.00    +0.216 C 
ATOM     22  C   UNL     1      19.734  10.530  22.297  0.00  0.00    +0.136 C 
ATOM     23  C   UNL     1      18.116   9.014  21.230  0.00  0.00    +0.136 C 
ATOM     24  C   UNL     1      20.459   9.301  22.828  0.00  0.00    +0.179 C 
ATOM     25  C   UNL     1      18.913   7.848  21.801  0.00  0.00    +0.179 C 
ENDBRANCH  17  21
ENDBRANCH  12  17
TORSDOF 8
ENDMDL
MODEL 6
REMARK VINA RESULT:      -6.3      3.528      5.428
REMARK  Name = 38028098
REMARK  11 active torsions:
REMARK  status: ('A' for Active; 'I' for Inactive)
REMARK    1  A    between atoms: S_1  and  N_6
REMARK    2  A    between atoms: S_1  and  C_26
REMARK    3  A    between atoms: N_6  and  C_16
REMARK    4  A    between atoms: C_9  and  C_13
REMARK    5  A    between atoms: C_10  and  C_16
REMARK    6  A    between atoms: C_12  and  C_17
REMARK    7  A    between atoms: C_13  and  C_18
REMARK    8  A    between atoms: C_13  and  C_19
REMARK    9  A    between atoms: C_14  and  C_20
REMARK   10  A    between atoms: C_17  and  C_21
REMARK   11  A    between atoms: C_31  and  C_32
REMARK                            x       y       z     vdW  Elec       q    Type
REMARK                         _______ _______ _______ _____ _____    ______ ____
ROOT
ATOM      9  C   UNL     1      17.022   8.846  21.724  0.00  0.00    +0.000 C 
ATOM     10  C   UNL     1      16.021   7.979  20.920  0.00  0.00    +0.030 C 
ATOM     11  C   UNL     1      18.386   8.883  21.019  0.00  0.00    +0.012 C 
ATOM     12  C   UNL     1      18.990   7.477  20.844  0.00  0.00    +0.023 C 
ATOM     14  C   UNL     1      17.975   6.491  20.302  0.00  0.00    -0.073 C 
ATOM     15  C   UNL     1      16.653   6.738  20.332  0.00  0.00    -0.023 C 
ATOM     20  C   UNL     1      18.516   5.234  19.683  0.00  0.00    +0.039 C 
ENDROOT
BRANCH   9  13
ATOM     13  C   UNL     1      16.503  10.274  21.924  0.00  0.00    -0.013 C 
ATOM     18  C   UNL     1      17.627  11.185  22.406  0.00  0.00    +0.007 C 
ATOM     19  C   UNL     1      15.893  10.805  20.632  0.00  0.00    +0.007 C 
ENDBRANCH   9  13
BRANCH  10  16
ATOM     16  C   UNL     1      14.818   7.579  21.783  0.00  0.00    +0.113 C 
BRANCH  16   6
ATOM      6  N   UNL     1      13.977   6.638  21.028  0.00  0.00    -0.189 NA
ATOM     33  H   UNL     1      14.457   5.867  20.550  0.00  0.00    +0.148 HD
BRANCH   6   1
ATOM      1  S   UNL     1      12.475   7.143  20.403  0.00  0.00    +0.058 S 
ATOM      4  O   UNL     1      11.846   8.051  21.344  0.00  0.00    -0.153 OA
ATOM      5  O   UNL     1      11.751   5.987  19.911  0.00  0.00    -0.153 OA
BRANCH   1  26
ATOM     26  C   UNL     1      12.970   8.082  18.989  0.00  0.00    +0.105 A 
ATOM     27  C   UNL     1      12.794   9.465  18.975  0.00  0.00    +0.030 A 
ATOM     28  C   UNL     1      13.536   7.439  17.889  0.00  0.00    +0.030 A 
ATOM     29  C   UNL     1      13.185  10.207  17.859  0.00  0.00    +0.021 A 
ATOM     30  C   UNL     1      13.927   8.180  16.773  0.00  0.00    +0.021 A 
ATOM     31  C   UNL     1      13.752   9.563  16.758  0.00  0.00    +0.052 A 
BRANCH  31  32
ATOM      8  N   UNL     1      14.477  10.939  14.687  0.00  0.00    -0.191 NA
ATOM     32  C   UNL     1      14.152  10.323  15.615  0.00  0.00    +0.099 C 
ENDBRANCH  31  32
ENDBRANCH   1  26
ENDBRANCH   6   1
ENDBRANCH  16   6
ENDBRANCH  10  16
BRANCH  12  17
ATOM     17  C   UNL     1      19.599   6.970  22.156  0.00  0.00    +0.103 C 
BRANCH  17  21
ATOM      2  O   UNL     1      21.848   6.927  21.406  0.00  0.00    -0.276 OA
ATOM      3  O   UNL     1      22.027  10.527  24.794  0.00  0.00    -0.377 OA
ATOM      7  N   UNL     1      21.398   8.245  23.265  0.00  0.00    -0.297 N 
ATOM     21  C   UNL     1      21.051   7.372  22.236  0.00  0.00    +0.216 C 
ATOM     22  C   UNL     1      22.784   8.688  23.412  0.00  0.00    +0.136 C 
ATOM     23  C   UNL     1      20.506   8.691  24.340  0.00  0.00    +0.136 C 
ATOM     24  C   UNL     1      22.837  10.188  23.666  0.00  0.00    +0.179 C 
ATOM     25  C   UNL     1      20.656  10.191  24.561  0.00  0.00    +0.179 C 
ENDBRANCH  17  21
ENDBRANCH  12  17
TORSDOF 8
ENDMDL
MODEL 7
REMARK VINA RESULT:      -6.2     29.046     31.146
REMARK  Name = 38028098
REMARK  11 active torsions:
REMARK  status: ('A' for Active; 'I' for Inactive)
REMARK    1  A    between atoms: S_1  and  N_6
REMARK    2  A    between atoms: S_1  and  C_26
REMARK    3  A    between atoms: N_6  and  C_16
REMARK    4  A    between atoms: C_9  and  C_13
REMARK    5  A    between atoms: C_10  and  C_16
REMARK    6  A    between atoms: C_12  and  C_17
REMARK    7  A    between atoms: C_13  and  C_18
REMARK    8  A    between atoms: C_13  and  C_19
REMARK    9  A    between atoms: C_14  and  C_20
REMARK   10  A    between atoms: C_17  and  C_21
REMARK   11  A    between atoms: C_31  and  C_32
REMARK                            x       y       z     vdW  Elec       q    Type
REMARK                         _______ _______ _______ _____ _____    ______ ____
ROOT
ATOM      9  C   UNL     1      -5.805 -11.759  15.030  0.00  0.00    +0.000 C 
ATOM     10  C   UNL     1      -4.440 -12.246  15.578  0.00  0.00    +0.030 C 
ATOM     11  C   UNL     1      -6.302 -10.546  15.832  0.00  0.00    +0.012 C 
ATOM     12  C   UNL     1      -6.463 -10.863  17.330  0.00  0.00    +0.023 C 
ATOM     14  C   UNL     1      -5.255 -11.591  17.885  0.00  0.00    -0.073 C 
ATOM     15  C   UNL     1      -4.355 -12.191  17.086  0.00  0.00    -0.023 C 
ATOM     20  C   UNL     1      -5.080 -11.575  19.377  0.00  0.00    +0.039 C 
ENDROOT
BRANCH   9  13
ATOM     13  C   UNL     1      -5.725 -11.401  13.543  0.00  0.00    -0.013 C 
ATOM     18  C   UNL     1      -6.761 -12.192  12.750  0.00  0.00    +0.007 C 
ATOM     19  C   UNL     1      -5.922  -9.902  13.345  0.00  0.00    +0.007 C 
ENDBRANCH   9  13
BRANCH  10  16
ATOM     16  C   UNL     1      -4.128 -13.670  15.100  0.00  0.00    +0.113 C 
BRANCH  16   6
ATOM      6  N   UNL     1      -2.680 -13.796  14.880  0.00  0.00    -0.189 NA
ATOM     33  H   UNL     1      -2.068 -13.217  15.468  0.00  0.00    +0.148 HD
BRANCH   6   1
ATOM      1  S   UNL     1      -2.083 -14.285  13.361  0.00  0.00    +0.058 S 
ATOM      4  O   UNL     1      -2.813 -15.458  12.916  0.00  0.00    -0.153 OA
ATOM      5  O   UNL     1      -0.634 -14.301  13.401  0.00  0.00    -0.153 OA
BRANCH   1  26
ATOM     26  C   UNL     1      -2.557 -12.927  12.333  0.00  0.00    +0.105 A 
ATOM     27  C   UNL     1      -3.391 -13.141  11.236  0.00  0.00    +0.030 A 
ATOM     28  C   UNL     1      -2.095 -11.643  12.619  0.00  0.00    +0.030 A 
ATOM     29  C   UNL     1      -3.764 -12.069  10.425  0.00  0.00    +0.021 A 
ATOM     30  C   UNL     1      -2.468 -10.571  11.808  0.00  0.00    +0.021 A 
ATOM     31  C   UNL     1      -3.303 -10.784  10.711  0.00  0.00    +0.052 A 
BRANCH  31  32
ATOM      8  N   UNL     1      -3.995  -8.794   9.204  0.00  0.00    -0.191 NA
ATOM     32  C   UNL     1      -3.685  -9.686   9.880  0.00  0.00    +0.099 C 
ENDBRANCH  31  32
ENDBRANCH   1  26
ENDBRANCH   6   1
ENDBRANCH  16   6
ENDBRANCH  10  16
BRANCH  12  17
ATOM     17  C   UNL     1      -7.748 -11.656  17.592  0.00  0.00    +0.103 C 
BRANCH  17  21
ATOM      2  O   UNL     1      -8.670 -10.659  19.536  0.00  0.00    -0.276 OA
ATOM      3  O   UNL     1     -11.182  -8.327  15.970  0.00  0.00    -0.377 OA
ATOM      7  N   UNL     1      -9.714 -10.166  17.521  0.00  0.00    -0.297 N 
ATOM     21  C   UNL     1      -8.749 -10.786  18.311  0.00  0.00    +0.216 C 
ATOM     22  C   UNL     1     -10.720  -9.302  18.138  0.00  0.00    +0.136 C 
ATOM     23  C   UNL     1      -9.914 -10.393  16.086  0.00  0.00    +0.136 C 
ATOM     24  C   UNL     1     -10.883  -8.020  17.333  0.00  0.00    +0.179 C 
ATOM     25  C   UNL     1     -10.117  -9.067  15.365  0.00  0.00    +0.179 C 
ENDBRANCH  17  21
ENDBRANCH  12  17
TORSDOF 8
ENDMDL
MODEL 8
REMARK VINA RESULT:      -6.1     28.070     30.887
REMARK  Name = 38028098
REMARK  11 active torsions:
REMARK  status: ('A' for Active; 'I' for Inactive)
REMARK    1  A    between atoms: S_1  and  N_6
REMARK    2  A    between atoms: S_1  and  C_26
REMARK    3  A    between atoms: N_6  and  C_16
REMARK    4  A    between atoms: C_9  and  C_13
REMARK    5  A    between atoms: C_10  and  C_16
REMARK    6  A    between atoms: C_12  and  C_17
REMARK    7  A    between atoms: C_13  and  C_18
REMARK    8  A    between atoms: C_13  and  C_19
REMARK    9  A    between atoms: C_14  and  C_20
REMARK   10  A    between atoms: C_17  and  C_21
REMARK   11  A    between atoms: C_31  and  C_32
REMARK                            x       y       z     vdW  Elec       q    Type
REMARK                         _______ _______ _______ _____ _____    ______ ____
ROOT
ATOM      9  C   UNL     1      -5.660 -11.005  17.233  0.00  0.00    +0.000 C 
ATOM     10  C   UNL     1      -4.564 -11.985  16.745  0.00  0.00    +0.030 C 
ATOM     11  C   UNL     1      -7.056 -11.595  16.986  0.00  0.00    +0.012 C 
ATOM     12  C   UNL     1      -7.305 -11.903  15.498  0.00  0.00    +0.023 C 
ATOM     14  C   UNL     1      -6.138 -12.641  14.872  0.00  0.00    -0.073 C 
ATOM     15  C   UNL     1      -4.924 -12.678  15.451  0.00  0.00    -0.023 C 
ATOM     20  C   UNL     1      -6.410 -13.374  13.589  0.00  0.00    +0.039 C 
ENDROOT
BRANCH   9  13
ATOM     13  C   UNL     1      -5.496 -10.663  18.717  0.00  0.00    -0.013 C 
ATOM     18  C   UNL     1      -6.844 -10.297  19.330  0.00  0.00    +0.007 C 
ATOM     19  C   UNL     1      -4.860 -11.829  19.465  0.00  0.00    +0.007 C 
ENDBRANCH   9  13
BRANCH  10  16
ATOM     16  C   UNL     1      -3.215 -11.273  16.584  0.00  0.00    +0.113 C 
BRANCH  16   6
ATOM      6  N   UNL     1      -3.250 -10.449  15.367  0.00  0.00    -0.189 NA
ATOM     33  H   UNL     1      -4.170 -10.110  15.061  0.00  0.00    +0.148 HD
BRANCH   6   1
ATOM      1  S   UNL     1      -2.036 -10.618  14.183  0.00  0.00    +0.058 S 
ATOM      4  O   UNL     1      -1.592 -11.999  14.148  0.00  0.00    -0.153 OA
ATOM      5  O   UNL     1      -1.071  -9.546  14.335  0.00  0.00    -0.153 OA
BRANCH   1  26
ATOM     26  C   UNL     1      -2.935 -10.296  12.696  0.00  0.00    +0.105 A 
ATOM     27  C   UNL     1      -4.329 -10.320  12.705  0.00  0.00    +0.030 A 
ATOM     28  C   UNL     1      -2.249 -10.021  11.513  0.00  0.00    +0.030 A 
ATOM     29  C   UNL     1      -5.038 -10.067  11.531  0.00  0.00    +0.021 A 
ATOM     30  C   UNL     1      -2.959  -9.767  10.338  0.00  0.00    +0.021 A 
ATOM     31  C   UNL     1      -4.353  -9.790  10.347  0.00  0.00    +0.052 A 
BRANCH  31  32
ATOM      8  N   UNL     1      -5.671  -9.320   8.168  0.00  0.00    -0.191 NA
ATOM     32  C   UNL     1      -5.080  -9.531   9.145  0.00  0.00    +0.099 C 
ENDBRANCH  31  32
ENDBRANCH   1  26
ENDBRANCH   6   1
ENDBRANCH  16   6
ENDBRANCH  10  16
BRANCH  12  17
ATOM     17  C   UNL     1      -7.627 -10.624  14.716  0.00  0.00    +0.103 C 
BRANCH  17  21
ATOM      2  O   UNL     1      -9.690 -11.252  13.731  0.00  0.00    -0.276 OA
ATOM      3  O   UNL     1     -11.212  -8.154  17.274  0.00  0.00    -0.377 OA
ATOM      7  N   UNL     1      -9.763  -9.529  15.286  0.00  0.00    -0.297 N 
ATOM     21  C   UNL     1      -9.118 -10.502  14.526  0.00  0.00    +0.216 C 
ATOM     22  C   UNL     1     -11.210  -9.346  15.166  0.00  0.00    +0.136 C 
ATOM     23  C   UNL     1      -9.100  -8.540  16.142  0.00  0.00    +0.136 C 
ATOM     24  C   UNL     1     -11.842  -9.209  16.544  0.00  0.00    +0.179 C 
ATOM     25  C   UNL     1      -9.823  -8.430  17.479  0.00  0.00    +0.179 C 
ENDBRANCH  17  21
ENDBRANCH  12  17
TORSDOF 8
ENDMDL
MODEL 9
REMARK VINA RESULT:      -6.0      3.694      6.250
REMARK  Name = 38028098
REMARK  11 active torsions:
REMARK  status: ('A' for Active; 'I' for Inactive)
REMARK    1  A    between atoms: S_1  and  N_6
REMARK    2  A    between atoms: S_1  and  C_26
REMARK    3  A    between atoms: N_6  and  C_16
REMARK    4  A    between atoms: C_9  and  C_13
REMARK    5  A    between atoms: C_10  and  C_16
REMARK    6  A    between atoms: C_12  and  C_17
REMARK    7  A    between atoms: C_13  and  C_18
REMARK    8  A    between atoms: C_13  and  C_19
REMARK    9  A    between atoms: C_14  and  C_20
REMARK   10  A    between atoms: C_17  and  C_21
REMARK   11  A    between atoms: C_31  and  C_32
REMARK                            x       y       z     vdW  Elec       q    Type
REMARK                         _______ _______ _______ _____ _____    ______ ____
ROOT
ATOM      9  C   UNL     1      17.992   9.362  21.939  0.00  0.00    +0.000 C 
ATOM     10  C   UNL     1      16.728   8.993  21.122  0.00  0.00    +0.030 C 
ATOM     11  C   UNL     1      19.261   8.922  21.192  0.00  0.00    +0.012 C 
ATOM     12  C   UNL     1      19.282   7.406  20.920  0.00  0.00    +0.023 C 
ATOM     14  C   UNL     1      17.962   6.916  20.359  0.00  0.00    -0.073 C 
ATOM     15  C   UNL     1      16.834   7.645  20.446  0.00  0.00    -0.023 C 
ATOM     20  C   UNL     1      17.976   5.590  19.654  0.00  0.00    +0.039 C 
ENDROOT
BRANCH   9  13
ATOM     13  C   UNL     1      18.059  10.863  22.235  0.00  0.00    -0.013 C 
ATOM     18  C   UNL     1      19.277  11.182  23.096  0.00  0.00    +0.007 C 
ATOM     19  C   UNL     1      18.092  11.661  20.936  0.00  0.00    +0.007 C 
ENDBRANCH   9  13
BRANCH  10  16
ATOM     16  C   UNL     1      15.472   9.026  22.002  0.00  0.00    +0.113 C 
BRANCH  16   6
ATOM      6  N   UNL     1      14.701   7.793  21.784  0.00  0.00    -0.189 NA
ATOM     33  H   UNL     1      15.235   6.944  21.562  0.00  0.00    +0.148 HD
BRANCH   6   1
ATOM      1  S   UNL     1      13.087   7.876  21.245  0.00  0.00    +0.058 S 
ATOM      4  O   UNL     1      12.360   8.833  22.058  0.00  0.00    -0.153 OA
ATOM      5  O   UNL     1      12.575   6.530  21.070  0.00  0.00    -0.153 OA
BRANCH   1  26
ATOM     26  C   UNL     1      13.282   8.568  19.630  0.00  0.00    +0.105 A 
ATOM     27  C   UNL     1      13.026   9.922  19.417  0.00  0.00    +0.030 A 
ATOM     28  C   UNL     1      13.690   7.760  18.570  0.00  0.00    +0.030 A 
ATOM     29  C   UNL     1      13.179  10.469  18.143  0.00  0.00    +0.021 A 
ATOM     30  C   UNL     1      13.843   8.307  17.295  0.00  0.00    +0.021 A 
ATOM     31  C   UNL     1      13.588   9.661  17.082  0.00  0.00    +0.052 A 
BRANCH  31  32
ATOM      8  N   UNL     1      13.872  10.676  14.716  0.00  0.00    -0.191 NA
ATOM     32  C   UNL     1      13.744  10.221  15.776  0.00  0.00    +0.099 C 
ENDBRANCH  31  32
ENDBRANCH   1  26
ENDBRANCH   6   1
ENDBRANCH  16   6
ENDBRANCH  10  16
BRANCH  12  17
ATOM     17  C   UNL     1      19.664   6.624  22.182  0.00  0.00    +0.103 C 
BRANCH  17  21
ATOM      2  O   UNL     1      21.683   7.550  23.012  0.00  0.00    -0.276 OA
ATOM      3  O   UNL     1      23.260   3.199  21.268  0.00  0.00    -0.377 OA
ATOM      7  N   UNL     1      21.870   5.598  21.767  0.00  0.00    -0.297 N 
ATOM     21  C   UNL     1      21.162   6.641  22.361  0.00  0.00    +0.216 C 
ATOM     22  C   UNL     1      23.326   5.536  21.896  0.00  0.00    +0.136 C 
ATOM     23  C   UNL     1      21.299   4.576  20.884  0.00  0.00    +0.136 C 
ATOM     24  C   UNL     1      23.768   4.120  22.235  0.00  0.00    +0.179 C 
ATOM     25  C   UNL     1      21.829   3.198  21.260  0.00  0.00    +0.179 C 
ENDBRANCH  17  21
ENDBRANCH  12  17
TORSDOF 8
ENDMDL
MODEL 10
REMARK VINA RESULT:      -6.0      2.414      5.642
REMARK  Name = 38028098
REMARK  11 active torsions:
REMARK  status: ('A' for Active; 'I' for Inactive)
REMARK    1  A    between atoms: S_1  and  N_6
REMARK    2  A    between atoms: S_1  and  C_26
REMARK    3  A    between atoms: N_6  and  C_16
REMARK    4  A    between atoms: C_9  and  C_13
REMARK    5  A    between atoms: C_10  and  C_16
REMARK    6  A    between atoms: C_12  and  C_17
REMARK    7  A    between atoms: C_13  and  C_18
REMARK    8  A    between atoms: C_13  and  C_19
REMARK    9  A    between atoms: C_14  and  C_20
REMARK   10  A    between atoms: C_17  and  C_21
REMARK   11  A    between atoms: C_31  and  C_32
REMARK                            x       y       z     vdW  Elec       q    Type
REMARK                         _______ _______ _______ _____ _____    ______ ____
ROOT
ATOM      9  C   UNL     1      12.740  11.562  22.922  0.00  0.00    +0.000 C 
ATOM     10  C   UNL     1      11.886  11.169  21.690  0.00  0.00    +0.030 C 
ATOM     11  C   UNL     1      13.976  12.362  22.484  0.00  0.00    +0.012 C 
ATOM     12  C   UNL     1      14.866  11.572  21.506  0.00  0.00    +0.023 C 
ATOM     14  C   UNL     1      14.054  10.925  20.403  0.00  0.00    -0.073 C 
ATOM     15  C   UNL     1      12.722  10.766  20.497  0.00  0.00    -0.023 C 
ATOM     20  C   UNL     1      14.801  10.506  19.169  0.00  0.00    +0.039 C 
ENDROOT
BRANCH   9  13
ATOM     13  C   UNL     1      11.930  12.374  23.938  0.00  0.00    -0.013 C 
ATOM     18  C   UNL     1      10.872  13.212  23.228  0.00  0.00    +0.007 C 
ATOM     19  C   UNL     1      11.288  11.449  24.967  0.00  0.00    +0.007 C 
ENDBRANCH   9  13
BRANCH  10  16
ATOM     16  C   UNL     1      10.907  10.040  22.033  0.00  0.00    +0.113 C 
BRANCH  16   6
ATOM      6  N   UNL     1      11.665   8.806  22.283  0.00  0.00    -0.189 NA
ATOM     33  H   UNL     1      12.508   8.888  22.864  0.00  0.00    +0.148 HD
BRANCH   6   1
ATOM      1  S   UNL     1      11.594   7.517  21.170  0.00  0.00    +0.058 S 
ATOM      4  O   UNL     1      10.973   7.979  19.943  0.00  0.00    -0.153 OA
ATOM      5  O   UNL     1      11.089   6.336  21.843  0.00  0.00    -0.153 OA
BRANCH   1  26
ATOM     26  C   UNL     1      13.307   7.231  20.840  0.00  0.00    +0.105 A 
ATOM     27  C   UNL     1      14.237   7.294  21.877  0.00  0.00    +0.030 A 
ATOM     28  C   UNL     1      13.728   6.943  19.542  0.00  0.00    +0.030 A 
ATOM     29  C   UNL     1      15.589   7.068  21.617  0.00  0.00    +0.021 A 
ATOM     30  C   UNL     1      15.080   6.717  19.281  0.00  0.00    +0.021 A 
ATOM     31  C   UNL     1      16.010   6.780  20.318  0.00  0.00    +0.052 A 
BRANCH  31  32
ATOM      8  N   UNL     1      18.520   6.361  19.835  0.00  0.00    -0.191 NA
ATOM     32  C   UNL     1      17.395   6.549  20.052  0.00  0.00    +0.099 C 
ENDBRANCH  31  32
ENDBRANCH   1  26
ENDBRANCH   6   1
ENDBRANCH  16   6
ENDBRANCH  10  16
BRANCH  12  17
ATOM     17  C   UNL     1      15.711  10.530  22.247  0.00  0.00    +0.103 C 
BRANCH  17  21
ATOM      2  O   UNL     1      17.637  10.033  20.956  0.00  0.00    -0.276 OA
ATOM      3  O   UNL     1      19.203  13.931  23.567  0.00  0.00    -0.377 OA
ATOM      7  N   UNL     1      17.893  11.617  22.635  0.00  0.00    -0.297 N 
ATOM     21  C   UNL     1      17.166  10.697  21.883  0.00  0.00    +0.216 C 
ATOM     22  C   UNL     1      19.309  11.843  22.345  0.00  0.00    +0.136 C 
ATOM     23  C   UNL     1      17.400  12.327  23.820  0.00  0.00    +0.136 C 
ATOM     24  C   UNL     1      19.616  13.334  22.336  0.00  0.00    +0.179 C 
ATOM     25  C   UNL     1      17.791  13.798  23.754  0.00  0.00    +0.179 C 
ENDBRANCH  17  21
ENDBRANCH  12  17
TORSDOF 8
ENDMDL
