MODEL 1
REMARK VINA RESULT:      -7.7      0.000      0.000
REMARK  Name = 75536405
REMARK  10 active torsions:
REMARK  status: ('A' for Active; 'I' for Inactive)
REMARK    1  A    between atoms: O_2  and  C_10
REMARK    2  A    between atoms: O_4  and  C_29
REMARK    3  A    between atoms: O_4  and  C_30
REMARK    4  A    between atoms: N_5  and  C_9
REMARK    5  A    between atoms: N_5  and  C_11
REMARK    6  A    between atoms: N_6  and  C_20
REMARK    7  A    between atoms: C_8  and  C_11
REMARK    8  A    between atoms: C_12  and  C_19
REMARK    9  A    between atoms: C_19  and  C_21
REMARK   10  A    between atoms: C_23  and  C_24
REMARK                            x       y       z     vdW  Elec       q    Type
REMARK                         _______ _______ _______ _____ _____    ______ ____
ROOT
ATOM      1  O   UNL     1      10.644   8.410  19.719  0.00  0.00    -0.369 OA
ATOM      8  C   UNL     1      10.817   8.277  21.136  0.00  0.00    +0.161 C 
ATOM     10  C   UNL     1      11.594   7.001  21.487  0.00  0.00    +0.145 C 
ATOM     12  C   UNL     1      11.852   8.380  18.953  0.00  0.00    +0.125 C 
ATOM     13  C   UNL     1      12.876   6.858  20.670  0.00  0.00    +0.036 C 
ATOM     14  C   UNL     1      12.602   7.069  19.183  0.00  0.00    +0.034 C 
ENDROOT
BRANCH  10   2
ATOM      2  O   UNL     1      10.769   5.867  21.205  0.00  0.00    -0.389 OA
ATOM     32  H   UNL     1      11.285   5.070  21.416  0.00  0.00    +0.210 HD
ENDBRANCH  10   2
BRANCH   8  11
ATOM     11  C   UNL     1      11.438   9.536  21.735  0.00  0.00    +0.115 C 
BRANCH  11   5
ATOM      5  N   UNL     1      11.213   9.594  23.172  0.00  0.00    -0.311 NA
ATOM     31  H   UNL     1      12.091   9.393  23.651  0.00  0.00    +0.122 HD
BRANCH   5   9
ATOM      6  N   UNL     1      11.268  13.685  24.323  0.00  0.00    -0.305 NA
ATOM      9  C   UNL     1      10.721  10.909  23.573  0.00  0.00    +0.056 C 
ATOM     15  C   UNL     1      11.248  11.292  24.959  0.00  0.00    +0.034 C 
ATOM     16  C   UNL     1      11.135  11.966  22.546  0.00  0.00    +0.034 C 
ATOM     17  C   UNL     1      10.823  12.715  25.334  0.00  0.00    +0.085 C 
ATOM     18  C   UNL     1      10.713  13.366  23.000  0.00  0.00    +0.085 C 
ATOM     20  C   UNL     1      10.898  15.043  24.720  0.00  0.00    +0.104 C 
ENDBRANCH   5   9
ENDBRANCH  11   5
ENDBRANCH   8  11
BRANCH  12  19
ATOM     19  C   UNL     1      11.468   8.535  17.486  0.00  0.00    +0.090 C 
BRANCH  19  21
ATOM      3  O   UNL     1      13.777   9.704  14.978  0.00  0.00    -0.354 OA
ATOM      7  N   UNL     1      12.696   8.934  15.391  0.00  0.00    -0.083 NA
ATOM     21  C   UNL     1      12.560   9.202  16.693  0.00  0.00    +0.087 A 
ATOM     22  C   UNL     1      13.515  10.124  17.152  0.00  0.00    +0.076 A 
ATOM     23  C   UNL     1      14.256  10.408  16.036  0.00  0.00    +0.167 A 
BRANCH  23  24
ATOM     24  C   UNL     1      15.379  11.256  15.761  0.00  0.00    +0.020 A 
ATOM     25  C   UNL     1      15.824  12.159  16.726  0.00  0.00    +0.015 A 
ATOM     26  C   UNL     1      16.027  11.178  14.528  0.00  0.00    +0.015 A 
ATOM     27  C   UNL     1      16.916  12.985  16.459  0.00  0.00    +0.046 A 
ATOM     28  C   UNL     1      17.120  12.003  14.261  0.00  0.00    +0.046 A 
ATOM     29  C   UNL     1      17.565  12.906  15.226  0.00  0.00    +0.120 A 
BRANCH  29   4
ATOM      4  O   UNL     1      18.633  13.708  14.967  0.00  0.00    -0.495 OA
ATOM     30  C   UNL     1      19.896  13.070  14.783  0.00  0.00    +0.277 C 
ENDBRANCH  29   4
ENDBRANCH  23  24
ENDBRANCH  19  21
ENDBRANCH  12  19
TORSDOF 8
ENDMDL
MODEL 2
REMARK VINA RESULT:      -7.4      5.074      5.996
REMARK  Name = 75536405
REMARK  10 active torsions:
REMARK  status: ('A' for Active; 'I' for Inactive)
REMARK    1  A    between atoms: O_2  and  C_10
REMARK    2  A    between atoms: O_4  and  C_29
REMARK    3  A    between atoms: O_4  and  C_30
REMARK    4  A    between atoms: N_5  and  C_9
REMARK    5  A    between atoms: N_5  and  C_11
REMARK    6  A    between atoms: N_6  and  C_20
REMARK    7  A    between atoms: C_8  and  C_11
REMARK    8  A    between atoms: C_12  and  C_19
REMARK    9  A    between atoms: C_19  and  C_21
REMARK   10  A    between atoms: C_23  and  C_24
REMARK                            x       y       z     vdW  Elec       q    Type
REMARK                         _______ _______ _______ _____ _____    ______ ____
ROOT
ATOM      1  O   UNL     1      13.191   8.952  19.660  0.00  0.00    -0.369 OA
ATOM      8  C   UNL     1      12.287   9.365  20.694  0.00  0.00    +0.161 C 
ATOM     10  C   UNL     1      11.176   8.330  20.911  0.00  0.00    +0.145 C 
ATOM     12  C   UNL     1      13.788   7.666  19.853  0.00  0.00    +0.125 C 
ATOM     13  C   UNL     1      11.724   6.914  21.070  0.00  0.00    +0.036 C 
ATOM     14  C   UNL     1      12.715   6.584  19.957  0.00  0.00    +0.034 C 
ENDROOT
BRANCH  10   2
ATOM      2  O   UNL     1      10.310   8.338  19.773  0.00  0.00    -0.389 OA
ATOM     32  H   UNL     1      10.593   9.067  19.195  0.00  0.00    +0.210 HD
ENDBRANCH  10   2
BRANCH   8  11
ATOM     11  C   UNL     1      13.040   9.710  21.976  0.00  0.00    +0.115 C 
BRANCH  11   5
ATOM      5  N   UNL     1      12.123   9.834  23.100  0.00  0.00    -0.311 NA
ATOM     31  H   UNL     1      12.471   9.268  23.873  0.00  0.00    +0.122 HD
BRANCH   5   9
ATOM      6  N   UNL     1      10.298  13.520  24.169  0.00  0.00    -0.305 NA
ATOM      9  C   UNL     1      11.996  11.226  23.523  0.00  0.00    +0.056 C 
ATOM     15  C   UNL     1      11.316  12.069  22.441  0.00  0.00    +0.034 C 
ATOM     16  C   UNL     1      11.203  11.313  24.829  0.00  0.00    +0.034 C 
ATOM     17  C   UNL     1      11.083  13.502  22.927  0.00  0.00    +0.085 C 
ATOM     18  C   UNL     1      10.975  12.771  25.237  0.00  0.00    +0.085 C 
ATOM     20  C   UNL     1      10.043  14.897  24.592  0.00  0.00    +0.104 C 
ENDBRANCH   5   9
ENDBRANCH  11   5
ENDBRANCH   8  11
BRANCH  12  19
ATOM     19  C   UNL     1      14.708   7.406  18.666  0.00  0.00    +0.090 C 
BRANCH  19  21
ATOM      3  O   UNL     1      17.723   5.472  19.066  0.00  0.00    -0.354 OA
ATOM      7  N   UNL     1      16.537   5.780  18.410  0.00  0.00    -0.083 NA
ATOM     21  C   UNL     1      16.016   6.800  19.097  0.00  0.00    +0.087 A 
ATOM     22  C   UNL     1      16.820   7.175  20.187  0.00  0.00    +0.076 A 
ATOM     23  C   UNL     1      17.880   6.310  20.123  0.00  0.00    +0.167 A 
BRANCH  23  24
ATOM     24  C   UNL     1      19.068   6.114  20.902  0.00  0.00    +0.020 A 
ATOM     25  C   UNL     1      19.248   6.821  22.090  0.00  0.00    +0.015 A 
ATOM     26  C   UNL     1      20.044   5.215  20.471  0.00  0.00    +0.015 A 
ATOM     27  C   UNL     1      20.404   6.630  22.847  0.00  0.00    +0.046 A 
ATOM     28  C   UNL     1      21.199   5.024  21.228  0.00  0.00    +0.046 A 
ATOM     29  C   UNL     1      21.379   5.731  22.417  0.00  0.00    +0.120 A 
BRANCH  29   4
ATOM      4  O   UNL     1      22.506   5.542  23.157  0.00  0.00    -0.495 OA
ATOM     30  C   UNL     1      23.746   5.920  22.561  0.00  0.00    +0.277 C 
ENDBRANCH  29   4
ENDBRANCH  23  24
ENDBRANCH  19  21
ENDBRANCH  12  19
TORSDOF 8
ENDMDL
MODEL 3
REMARK VINA RESULT:      -6.8     27.272     29.683
REMARK  Name = 75536405
REMARK  10 active torsions:
REMARK  status: ('A' for Active; 'I' for Inactive)
REMARK    1  A    between atoms: O_2  and  C_10
REMARK    2  A    between atoms: O_4  and  C_29
REMARK    3  A    between atoms: O_4  and  C_30
REMARK    4  A    between atoms: N_5  and  C_9
REMARK    5  A    between atoms: N_5  and  C_11
REMARK    6  A    between atoms: N_6  and  C_20
REMARK    7  A    between atoms: C_8  and  C_11
REMARK    8  A    between atoms: C_12  and  C_19
REMARK    9  A    between atoms: C_19  and  C_21
REMARK   10  A    between atoms: C_23  and  C_24
REMARK                            x       y       z     vdW  Elec       q    Type
REMARK                         _______ _______ _______ _____ _____    ______ ____
ROOT
ATOM      1  O   UNL     1      -2.543 -11.114  15.529  0.00  0.00    -0.369 OA
ATOM      8  C   UNL     1      -2.039 -11.422  14.222  0.00  0.00    +0.161 C 
ATOM     10  C   UNL     1      -2.502 -12.809  13.758  0.00  0.00    +0.145 C 
ATOM     12  C   UNL     1      -3.964 -11.198  15.669  0.00  0.00    +0.125 C 
ATOM     13  C   UNL     1      -4.006 -13.007  13.927  0.00  0.00    +0.036 C 
ATOM     14  C   UNL     1      -4.456 -12.604  15.328  0.00  0.00    +0.034 C 
ENDROOT
BRANCH  10   2
ATOM      2  O   UNL     1      -1.840 -13.802  14.545  0.00  0.00    -0.389 OA
ATOM     32  H   UNL     1      -1.750 -14.600  13.996  0.00  0.00    +0.210 HD
ENDBRANCH  10   2
BRANCH   8  11
ATOM     11  C   UNL     1      -2.382 -10.315  13.227  0.00  0.00    +0.115 C 
BRANCH  11   5
ATOM      5  N   UNL     1      -2.083 -10.732  11.864  0.00  0.00    -0.311 NA
ATOM     31  H   UNL     1      -1.891 -11.733  11.860  0.00  0.00    +0.122 HD
BRANCH   5   9
ATOM      6  N   UNL     1      -5.321  -8.620  10.097  0.00  0.00    -0.305 NA
ATOM      9  C   UNL     1      -3.200 -10.438  10.969  0.00  0.00    +0.056 C 
ATOM     15  C   UNL     1      -4.502 -10.266  11.756  0.00  0.00    +0.034 C 
ATOM     16  C   UNL     1      -2.909  -9.174  10.157  0.00  0.00    +0.034 C 
ATOM     17  C   UNL     1      -5.650  -9.850  10.832  0.00  0.00    +0.085 C 
ATOM     18  C   UNL     1      -4.109  -8.795   9.285  0.00  0.00    +0.085 C 
ATOM     20  C   UNL     1      -6.446  -8.210   9.258  0.00  0.00    +0.104 C 
ENDBRANCH   5   9
ENDBRANCH  11   5
ENDBRANCH   8  11
BRANCH  12  19
ATOM     19  C   UNL     1      -4.304 -10.838  17.110  0.00  0.00    +0.090 C 
BRANCH  19  21
ATOM      3  O   UNL     1      -7.628  -9.921  18.160  0.00  0.00    -0.354 OA
ATOM      7  N   UNL     1      -6.384 -10.500  18.382  0.00  0.00    -0.083 NA
ATOM     21  C   UNL     1      -5.714 -10.329  17.238  0.00  0.00    +0.087 A 
ATOM     22  C   UNL     1      -6.477  -9.655  16.269  0.00  0.00    +0.076 A 
ATOM     23  C   UNL     1      -7.670  -9.422  16.898  0.00  0.00    +0.167 A 
BRANCH  23  24
ATOM     24  C   UNL     1      -8.900  -8.787  16.522  0.00  0.00    +0.020 A 
ATOM     25  C   UNL     1      -9.378  -8.909  15.218  0.00  0.00    +0.015 A 
ATOM     26  C   UNL     1      -9.620  -8.048  17.461  0.00  0.00    +0.015 A 
ATOM     27  C   UNL     1     -10.574  -8.292  14.851  0.00  0.00    +0.046 A 
ATOM     28  C   UNL     1     -10.816  -7.431  17.095  0.00  0.00    +0.046 A 
ATOM     29  C   UNL     1     -11.294  -7.554  15.791  0.00  0.00    +0.120 A 
BRANCH  29   4
ATOM      4  O   UNL     1     -12.463  -6.954  15.435  0.00  0.00    -0.495 OA
ATOM     30  C   UNL     1     -12.380  -5.859  14.523  0.00  0.00    +0.277 C 
ENDBRANCH  29   4
ENDBRANCH  23  24
ENDBRANCH  19  21
ENDBRANCH  12  19
TORSDOF 8
ENDMDL
MODEL 4
REMARK VINA RESULT:      -6.7     27.126     29.904
REMARK  Name = 75536405
REMARK  10 active torsions:
REMARK  status: ('A' for Active; 'I' for Inactive)
REMARK    1  A    between atoms: O_2  and  C_10
REMARK    2  A    between atoms: O_4  and  C_29
REMARK    3  A    between atoms: O_4  and  C_30
REMARK    4  A    between atoms: N_5  and  C_9
REMARK    5  A    between atoms: N_5  and  C_11
REMARK    6  A    between atoms: N_6  and  C_20
REMARK    7  A    between atoms: C_8  and  C_11
REMARK    8  A    between atoms: C_12  and  C_19
REMARK    9  A    between atoms: C_19  and  C_21
REMARK   10  A    between atoms: C_23  and  C_24
REMARK                            x       y       z     vdW  Elec       q    Type
REMARK                         _______ _______ _______ _____ _____    ______ ____
ROOT
ATOM      1  O   UNL     1     -16.486   2.271  23.119  0.00  0.00    -0.369 OA
ATOM      8  C   UNL     1     -17.671   1.576  22.710  0.00  0.00    +0.161 C 
ATOM     10  C   UNL     1     -18.276   0.773  23.870  0.00  0.00    +0.145 C 
ATOM     12  C   UNL     1     -16.647   3.138  24.245  0.00  0.00    +0.125 C 
ATOM     13  C   UNL     1     -18.431   1.610  25.137  0.00  0.00    +0.036 C 
ATOM     14  C   UNL     1     -17.138   2.354  25.461  0.00  0.00    +0.034 C 
ENDROOT
BRANCH  10   2
ATOM      2  O   UNL     1     -17.408  -0.322  24.174  0.00  0.00    -0.389 OA
ATOM     32  H   UNL     1     -16.598  -0.209  23.647  0.00  0.00    +0.210 HD
ENDBRANCH  10   2
BRANCH   8  11
ATOM     11  C   UNL     1     -18.671   2.528  22.059  0.00  0.00    +0.115 C 
BRANCH  11   5
ATOM      5  N   UNL     1     -18.341   2.749  20.658  0.00  0.00    -0.311 NA
ATOM     31  H   UNL     1     -18.915   2.132  20.083  0.00  0.00    +0.122 HD
BRANCH   5   9
ATOM      6  N   UNL     1     -17.716   6.936  20.287  0.00  0.00    -0.305 NA
ATOM      9  C   UNL     1     -18.577   4.139  20.277  0.00  0.00    +0.056 C 
ATOM     15  C   UNL     1     -18.714   5.031  21.513  0.00  0.00    +0.034 C 
ATOM     16  C   UNL     1     -17.436   4.646  19.391  0.00  0.00    +0.034 C 
ATOM     17  C   UNL     1     -18.850   6.504  21.116  0.00  0.00    +0.085 C 
ATOM     18  C   UNL     1     -17.614   6.130  19.062  0.00  0.00    +0.085 C 
ATOM     20  C   UNL     1     -17.836   8.356  19.957  0.00  0.00    +0.104 C 
ENDBRANCH   5   9
ENDBRANCH  11   5
ENDBRANCH   8  11
BRANCH  12  19
ATOM     19  C   UNL     1     -15.295   3.782  24.525  0.00  0.00    +0.090 C 
BRANCH  19  21
ATOM      3  O   UNL     1     -15.222   6.748  22.477  0.00  0.00    -0.354 OA
ATOM      7  N   UNL     1     -15.787   5.948  23.464  0.00  0.00    -0.083 NA
ATOM     21  C   UNL     1     -14.987   4.880  23.542  0.00  0.00    +0.087 A 
ATOM     22  C   UNL     1     -13.913   4.950  22.638  0.00  0.00    +0.076 A 
ATOM     23  C   UNL     1     -14.107   6.142  21.994  0.00  0.00    +0.167 A 
BRANCH  23  24
ATOM     24  C   UNL     1     -13.410   6.855  20.963  0.00  0.00    +0.020 A 
ATOM     25  C   UNL     1     -14.125   7.581  20.011  0.00  0.00    +0.015 A 
ATOM     26  C   UNL     1     -12.017   6.822  20.912  0.00  0.00    +0.015 A 
ATOM     27  C   UNL     1     -13.447   8.274  19.008  0.00  0.00    +0.046 A 
ATOM     28  C   UNL     1     -11.338   7.515  19.909  0.00  0.00    +0.046 A 
ATOM     29  C   UNL     1     -12.053   8.242  18.958  0.00  0.00    +0.120 A 
BRANCH  29   4
ATOM      4  O   UNL     1     -11.392   8.921  17.981  0.00  0.00    -0.495 OA
ATOM     30  C   UNL     1     -10.540   8.161  17.125  0.00  0.00    +0.277 C 
ENDBRANCH  29   4
ENDBRANCH  23  24
ENDBRANCH  19  21
ENDBRANCH  12  19
TORSDOF 8
ENDMDL
MODEL 5
REMARK VINA RESULT:      -6.7     27.510     31.476
REMARK  Name = 75536405
REMARK  10 active torsions:
REMARK  status: ('A' for Active; 'I' for Inactive)
REMARK    1  A    between atoms: O_2  and  C_10
REMARK    2  A    between atoms: O_4  and  C_29
REMARK    3  A    between atoms: O_4  and  C_30
REMARK    4  A    between atoms: N_5  and  C_9
REMARK    5  A    between atoms: N_5  and  C_11
REMARK    6  A    between atoms: N_6  and  C_20
REMARK    7  A    between atoms: C_8  and  C_11
REMARK    8  A    between atoms: C_12  and  C_19
REMARK    9  A    between atoms: C_19  and  C_21
REMARK   10  A    between atoms: C_23  and  C_24
REMARK                            x       y       z     vdW  Elec       q    Type
REMARK                         _______ _______ _______ _____ _____    ______ ____
ROOT
ATOM      1  O   UNL     1     -16.399   2.207  24.208  0.00  0.00    -0.369 OA
ATOM      8  C   UNL     1     -16.456   3.307  23.290  0.00  0.00    +0.161 C 
ATOM     10  C   UNL     1     -17.857   3.932  23.254  0.00  0.00    +0.145 C 
ATOM     12  C   UNL     1     -16.805   2.509  25.546  0.00  0.00    +0.125 C 
ATOM     13  C   UNL     1     -18.395   4.236  24.650  0.00  0.00    +0.036 C 
ATOM     14  C   UNL     1     -18.242   3.026  25.568  0.00  0.00    +0.034 C 
ENDROOT
BRANCH  10   2
ATOM      2  O   UNL     1     -18.756   3.011  22.631  0.00  0.00    -0.389 OA
ATOM     32  H   UNL     1     -18.244   2.220  22.389  0.00  0.00    +0.210 HD
ENDBRANCH  10   2
BRANCH   8  11
ATOM     11  C   UNL     1     -15.357   4.325  23.583  0.00  0.00    +0.115 C 
BRANCH  11   5
ATOM      5  N   UNL     1     -14.318   4.274  22.565  0.00  0.00    -0.311 NA
ATOM     31  H   UNL     1     -14.536   3.526  21.908  0.00  0.00    +0.122 HD
BRANCH   5   9
ATOM      6  N   UNL     1     -13.290   8.318  21.756  0.00  0.00    -0.305 NA
ATOM      9  C   UNL     1     -14.220   5.545  21.852  0.00  0.00    +0.056 C 
ATOM     15  C   UNL     1     -14.913   6.666  22.631  0.00  0.00    +0.034 C 
ATOM     16  C   UNL     1     -12.753   5.906  21.610  0.00  0.00    +0.034 C 
ATOM     17  C   UNL     1     -14.717   8.018  21.939  0.00  0.00    +0.085 C 
ATOM     18  C   UNL     1     -12.628   7.282  20.951  0.00  0.00    +0.085 C 
ATOM     20  C   UNL     1     -13.119   9.633  21.140  0.00  0.00    +0.104 C 
ENDBRANCH   5   9
ENDBRANCH  11   5
ENDBRANCH   8  11
BRANCH  12  19
ATOM     19  C   UNL     1     -16.676   1.230  26.364  0.00  0.00    +0.090 C 
BRANCH  19  21
ATOM      3  O   UNL     1     -16.249   1.189  29.943  0.00  0.00    -0.354 OA
ATOM      7  N   UNL     1     -16.644   0.606  28.745  0.00  0.00    -0.083 NA
ATOM     21  C   UNL     1     -16.375   1.521  27.810  0.00  0.00    +0.087 A 
ATOM     22  C   UNL     1     -15.816   2.691  28.353  0.00  0.00    +0.076 A 
ATOM     23  C   UNL     1     -15.758   2.431  29.696  0.00  0.00    +0.167 A 
BRANCH  23  24
ATOM     24  C   UNL     1     -15.307   3.161  30.845  0.00  0.00    +0.020 A 
ATOM     25  C   UNL     1     -15.395   4.552  30.866  0.00  0.00    +0.015 A 
ATOM     26  C   UNL     1     -14.780   2.479  31.941  0.00  0.00    +0.015 A 
ATOM     27  C   UNL     1     -14.955   5.262  31.983  0.00  0.00    +0.046 A 
ATOM     28  C   UNL     1     -14.341   3.189  33.059  0.00  0.00    +0.046 A 
ATOM     29  C   UNL     1     -14.429   4.580  33.081  0.00  0.00    +0.120 A 
BRANCH  29   4
ATOM      4  O   UNL     1     -14.004   5.273  34.172  0.00  0.00    -0.495 OA
ATOM     30  C   UNL     1     -14.297   4.713  35.451  0.00  0.00    +0.277 C 
ENDBRANCH  29   4
ENDBRANCH  23  24
ENDBRANCH  19  21
ENDBRANCH  12  19
TORSDOF 8
ENDMDL
MODEL 6
REMARK VINA RESULT:      -6.7     27.286     30.102
REMARK  Name = 75536405
REMARK  10 active torsions:
REMARK  status: ('A' for Active; 'I' for Inactive)
REMARK    1  A    between atoms: O_2  and  C_10
REMARK    2  A    between atoms: O_4  and  C_29
REMARK    3  A    between atoms: O_4  and  C_30
REMARK    4  A    between atoms: N_5  and  C_9
REMARK    5  A    between atoms: N_5  and  C_11
REMARK    6  A    between atoms: N_6  and  C_20
REMARK    7  A    between atoms: C_8  and  C_11
REMARK    8  A    between atoms: C_12  and  C_19
REMARK    9  A    between atoms: C_19  and  C_21
REMARK   10  A    between atoms: C_23  and  C_24
REMARK                            x       y       z     vdW  Elec       q    Type
REMARK                         _______ _______ _______ _____ _____    ______ ____
ROOT
ATOM      1  O   UNL     1      -2.247 -10.601  14.003  0.00  0.00    -0.369 OA
ATOM      8  C   UNL     1      -2.230 -11.033  12.637  0.00  0.00    +0.161 C 
ATOM     10  C   UNL     1      -2.353 -12.559  12.532  0.00  0.00    +0.145 C 
ATOM     12  C   UNL     1      -3.383 -11.025  14.762  0.00  0.00    +0.125 C 
ATOM     13  C   UNL     1      -3.512 -13.107  13.362  0.00  0.00    +0.036 C 
ATOM     14  C   UNL     1      -3.477 -12.549  14.782  0.00  0.00    +0.034 C 
ENDROOT
BRANCH  10   2
ATOM      2  O   UNL     1      -1.148 -13.153  13.021  0.00  0.00    -0.389 OA
ATOM     32  H   UNL     1      -0.570 -13.317  12.256  0.00  0.00    +0.210 HD
ENDBRANCH  10   2
BRANCH   8  11
ATOM     11  C   UNL     1      -3.280 -10.293  11.812  0.00  0.00    +0.115 C 
BRANCH  11   5
ATOM      5  N   UNL     1      -2.672  -9.640  10.662  0.00  0.00    -0.311 NA
ATOM     31  H   UNL     1      -2.015 -10.287  10.225  0.00  0.00    +0.122 HD
BRANCH   5   9
ATOM      6  N   UNL     1      -6.459  -9.319   8.760  0.00  0.00    -0.305 NA
ATOM      9  C   UNL     1      -3.686  -9.235   9.692  0.00  0.00    +0.056 C 
ATOM     15  C   UNL     1      -4.267 -10.451   8.966  0.00  0.00    +0.034 C 
ATOM     16  C   UNL     1      -4.806  -8.459  10.389  0.00  0.00    +0.034 C 
ATOM     17  C   UNL     1      -5.407 -10.039   8.029  0.00  0.00    +0.085 C 
ATOM     18  C   UNL     1      -5.926  -8.111   9.406  0.00  0.00    +0.085 C 
ATOM     20  C   UNL     1      -7.561  -8.976   7.862  0.00  0.00    +0.104 C 
ENDBRANCH   5   9
ENDBRANCH  11   5
ENDBRANCH   8  11
BRANCH  12  19
ATOM     19  C   UNL     1      -3.224 -10.472  16.173  0.00  0.00    +0.090 C 
BRANCH  19  21
ATOM      3  O   UNL     1      -5.891 -11.017  18.536  0.00  0.00    -0.354 OA
ATOM      7  N   UNL     1      -4.577 -11.167  18.108  0.00  0.00    -0.083 NA
ATOM     21  C   UNL     1      -4.519 -10.522  16.939  0.00  0.00    +0.087 A 
ATOM     22  C   UNL     1      -5.752  -9.951  16.582  0.00  0.00    +0.076 A 
ATOM     23  C   UNL     1      -6.580 -10.292  17.618  0.00  0.00    +0.167 A 
BRANCH  23  24
ATOM     24  C   UNL     1      -7.961 -10.052  17.925  0.00  0.00    +0.020 A 
ATOM     25  C   UNL     1      -8.614 -10.846  18.866  0.00  0.00    +0.015 A 
ATOM     26  C   UNL     1      -8.650  -9.024  17.281  0.00  0.00    +0.015 A 
ATOM     27  C   UNL     1      -9.957 -10.613  19.165  0.00  0.00    +0.046 A 
ATOM     28  C   UNL     1      -9.992  -8.790  17.580  0.00  0.00    +0.046 A 
ATOM     29  C   UNL     1     -10.646  -9.584  18.522  0.00  0.00    +0.120 A 
BRANCH  29   4
ATOM      4  O   UNL     1     -11.954  -9.354  18.816  0.00  0.00    -0.495 OA
ATOM     30  C   UNL     1     -12.451  -9.899  20.037  0.00  0.00    +0.277 C 
ENDBRANCH  29   4
ENDBRANCH  23  24
ENDBRANCH  19  21
ENDBRANCH  12  19
TORSDOF 8
ENDMDL
MODEL 7
REMARK VINA RESULT:      -6.7     27.013     29.803
REMARK  Name = 75536405
REMARK  10 active torsions:
REMARK  status: ('A' for Active; 'I' for Inactive)
REMARK    1  A    between atoms: O_2  and  C_10
REMARK    2  A    between atoms: O_4  and  C_29
REMARK    3  A    between atoms: O_4  and  C_30
REMARK    4  A    between atoms: N_5  and  C_9
REMARK    5  A    between atoms: N_5  and  C_11
REMARK    6  A    between atoms: N_6  and  C_20
REMARK    7  A    between atoms: C_8  and  C_11
REMARK    8  A    between atoms: C_12  and  C_19
REMARK    9  A    between atoms: C_19  and  C_21
REMARK   10  A    between atoms: C_23  and  C_24
REMARK                            x       y       z     vdW  Elec       q    Type
REMARK                         _______ _______ _______ _____ _____    ______ ____
ROOT
ATOM      1  O   UNL     1     -17.494   3.348  26.488  0.00  0.00    -0.369 OA
ATOM      8  C   UNL     1     -17.228   2.322  27.454  0.00  0.00    +0.161 C 
ATOM     10  C   UNL     1     -17.758   0.961  26.984  0.00  0.00    +0.145 C 
ATOM     12  C   UNL     1     -16.998   3.088  25.171  0.00  0.00    +0.125 C 
ATOM     13  C   UNL     1     -17.322   0.628  25.559  0.00  0.00    +0.036 C 
ATOM     14  C   UNL     1     -17.596   1.796  24.617  0.00  0.00    +0.034 C 
ENDROOT
BRANCH  10   2
ATOM      2  O   UNL     1     -19.187   0.992  27.006  0.00  0.00    -0.389 OA
ATOM     32  H   UNL     1     -19.480   0.451  27.760  0.00  0.00    +0.210 HD
ENDBRANCH  10   2
BRANCH   8  11
ATOM     11  C   UNL     1     -15.747   2.289  27.825  0.00  0.00    +0.115 C 
BRANCH  11   5
ATOM      5  N   UNL     1     -15.328   3.559  28.401  0.00  0.00    -0.311 NA
ATOM     31  H   UNL     1     -16.114   4.207  28.378  0.00  0.00    +0.122 HD
BRANCH   5   9
ATOM      6  N   UNL     1     -14.972   1.904  32.299  0.00  0.00    -0.305 NA
ATOM      9  C   UNL     1     -14.870   3.385  29.777  0.00  0.00    +0.056 C 
ATOM     15  C   UNL     1     -16.032   3.530  30.764  0.00  0.00    +0.034 C 
ATOM     16  C   UNL     1     -14.210   2.014  29.947  0.00  0.00    +0.034 C 
ATOM     17  C   UNL     1     -15.576   3.239  32.196  0.00  0.00    +0.085 C 
ATOM     18  C   UNL     1     -13.812   1.774  31.406  0.00  0.00    +0.085 C 
ATOM     20  C   UNL     1     -14.587   1.622  33.682  0.00  0.00    +0.104 C 
ENDBRANCH   5   9
ENDBRANCH  11   5
ENDBRANCH   8  11
BRANCH  12  19
ATOM     19  C   UNL     1     -17.374   4.279  24.297  0.00  0.00    +0.090 C 
BRANCH  19  21
ATOM      3  O   UNL     1     -14.596   4.495  22.010  0.00  0.00    -0.354 OA
ATOM      7  N   UNL     1     -15.560   3.779  22.711  0.00  0.00    -0.083 NA
ATOM     21  C   UNL     1     -16.234   4.698  23.408  0.00  0.00    +0.087 A 
ATOM     22  C   UNL     1     -15.746   5.998  23.190  0.00  0.00    +0.076 A 
ATOM     23  C   UNL     1     -14.718   5.815  22.305  0.00  0.00    +0.167 A 
BRANCH  23  24
ATOM     24  C   UNL     1     -13.785   6.686  21.650  0.00  0.00    +0.020 A 
ATOM     25  C   UNL     1     -14.139   8.007  21.376  0.00  0.00    +0.015 A 
ATOM     26  C   UNL     1     -12.525   6.212  21.288  0.00  0.00    +0.015 A 
ATOM     27  C   UNL     1     -13.232   8.854  20.740  0.00  0.00    +0.046 A 
ATOM     28  C   UNL     1     -11.617   7.060  20.652  0.00  0.00    +0.046 A 
ATOM     29  C   UNL     1     -11.970   8.381  20.378  0.00  0.00    +0.120 A 
BRANCH  29   4
ATOM      4  O   UNL     1     -11.084   9.209  19.760  0.00  0.00    -0.495 OA
ATOM     30  C   UNL     1     -11.268  10.611  19.946  0.00  0.00    +0.277 C 
ENDBRANCH  29   4
ENDBRANCH  23  24
ENDBRANCH  19  21
ENDBRANCH  12  19
TORSDOF 8
ENDMDL
MODEL 8
REMARK VINA RESULT:      -6.5     17.274     20.898
REMARK  Name = 75536405
REMARK  10 active torsions:
REMARK  status: ('A' for Active; 'I' for Inactive)
REMARK    1  A    between atoms: O_2  and  C_10
REMARK    2  A    between atoms: O_4  and  C_29
REMARK    3  A    between atoms: O_4  and  C_30
REMARK    4  A    between atoms: N_5  and  C_9
REMARK    5  A    between atoms: N_5  and  C_11
REMARK    6  A    between atoms: N_6  and  C_20
REMARK    7  A    between atoms: C_8  and  C_11
REMARK    8  A    between atoms: C_12  and  C_19
REMARK    9  A    between atoms: C_19  and  C_21
REMARK   10  A    between atoms: C_23  and  C_24
REMARK                            x       y       z     vdW  Elec       q    Type
REMARK                         _______ _______ _______ _____ _____    ______ ____
ROOT
ATOM      1  O   UNL     1      12.860   2.890   0.593  0.00  0.00    -0.369 OA
ATOM      8  C   UNL     1      13.202   3.568   1.809  0.00  0.00    +0.161 C 
ATOM     10  C   UNL     1      14.623   4.145   1.745  0.00  0.00    +0.145 C 
ATOM     12  C   UNL     1      12.987   3.673  -0.597  0.00  0.00    +0.125 C 
ATOM     13  C   UNL     1      14.866   4.952   0.472  0.00  0.00    +0.036 C 
ATOM     14  C   UNL     1      14.422   4.172  -0.762  0.00  0.00    +0.034 C 
ENDROOT
BRANCH  10   2
ATOM      2  O   UNL     1      15.560   3.065   1.763  0.00  0.00    -0.389 OA
ATOM     32  H   UNL     1      15.161   2.323   1.276  0.00  0.00    +0.210 HD
ENDBRANCH  10   2
BRANCH   8  11
ATOM     11  C   UNL     1      12.150   4.613   2.171  0.00  0.00    +0.115 C 
BRANCH  11   5
ATOM      5  N   UNL     1      11.242   4.106   3.189  0.00  0.00    -0.311 NA
ATOM     31  H   UNL     1      11.767   3.512   3.831  0.00  0.00    +0.122 HD
BRANCH   5   9
ATOM      6  N   UNL     1      10.422   6.809   6.365  0.00  0.00    -0.305 NA
ATOM      9  C   UNL     1      10.618   5.201   3.928  0.00  0.00    +0.056 C 
ATOM     15  C   UNL     1       9.927   4.685   5.193  0.00  0.00    +0.034 C 
ATOM     16  C   UNL     1      11.665   6.255   4.297  0.00  0.00    +0.034 C 
ATOM     17  C   UNL     1       9.368   5.843   6.024  0.00  0.00    +0.085 C 
ATOM     18  C   UNL     1      11.048   7.362   5.156  0.00  0.00    +0.085 C 
ATOM     20  C   UNL     1       9.882   7.882   7.199  0.00  0.00    +0.104 C 
ENDBRANCH   5   9
ENDBRANCH  11   5
ENDBRANCH   8  11
BRANCH  12  19
ATOM     19  C   UNL     1      12.581   2.790  -1.772  0.00  0.00    +0.090 C 
BRANCH  19  21
ATOM      3  O   UNL     1       9.319   3.029  -3.285  0.00  0.00    -0.354 OA
ATOM      7  N   UNL     1      10.408   2.302  -2.819  0.00  0.00    -0.083 NA
ATOM     21  C   UNL     1      11.266   3.220  -2.362  0.00  0.00    +0.087 A 
ATOM     22  C   UNL     1      10.777   4.529  -2.512  0.00  0.00    +0.076 A 
ATOM     23  C   UNL     1       9.551   4.353  -3.096  0.00  0.00    +0.167 A 
BRANCH  23  24
ATOM     24  C   UNL     1       8.506   5.235  -3.529  0.00  0.00    +0.020 A 
ATOM     25  C   UNL     1       7.964   5.099  -4.807  0.00  0.00    +0.015 A 
ATOM     26  C   UNL     1       8.032   6.229  -2.673  0.00  0.00    +0.015 A 
ATOM     27  C   UNL     1       6.948   5.957  -5.229  0.00  0.00    +0.046 A 
ATOM     28  C   UNL     1       7.015   7.086  -3.094  0.00  0.00    +0.046 A 
ATOM     29  C   UNL     1       6.473   6.950  -4.372  0.00  0.00    +0.120 A 
BRANCH  29   4
ATOM      4  O   UNL     1       5.479   7.785  -4.782  0.00  0.00    -0.495 OA
ATOM     30  C   UNL     1       4.139   7.392  -4.489  0.00  0.00    +0.277 C 
ENDBRANCH  29   4
ENDBRANCH  23  24
ENDBRANCH  19  21
ENDBRANCH  12  19
TORSDOF 8
ENDMDL
MODEL 9
REMARK VINA RESULT:      -6.5     27.383     29.180
REMARK  Name = 75536405
REMARK  10 active torsions:
REMARK  status: ('A' for Active; 'I' for Inactive)
REMARK    1  A    between atoms: O_2  and  C_10
REMARK    2  A    between atoms: O_4  and  C_29
REMARK    3  A    between atoms: O_4  and  C_30
REMARK    4  A    between atoms: N_5  and  C_9
REMARK    5  A    between atoms: N_5  and  C_11
REMARK    6  A    between atoms: N_6  and  C_20
REMARK    7  A    between atoms: C_8  and  C_11
REMARK    8  A    between atoms: C_12  and  C_19
REMARK    9  A    between atoms: C_19  and  C_21
REMARK   10  A    between atoms: C_23  and  C_24
REMARK                            x       y       z     vdW  Elec       q    Type
REMARK                         _______ _______ _______ _____ _____    ______ ____
ROOT
ATOM      1  O   UNL     1      -5.989 -12.211  17.075  0.00  0.00    -0.369 OA
ATOM      8  C   UNL     1      -7.386 -12.111  17.381  0.00  0.00    +0.161 C 
ATOM     10  C   UNL     1      -7.611 -11.781  18.863  0.00  0.00    +0.145 C 
ATOM     12  C   UNL     1      -5.208 -11.061  17.415  0.00  0.00    +0.125 C 
ATOM     13  C   UNL     1      -6.768 -10.596  19.329  0.00  0.00    +0.036 C 
ATOM     14  C   UNL     1      -5.310 -10.766  18.911  0.00  0.00    +0.034 C 
ENDROOT
BRANCH  10   2
ATOM      2  O   UNL     1      -7.239 -12.916  19.649  0.00  0.00    -0.389 OA
ATOM     32  H   UNL     1      -6.275 -12.885  19.772  0.00  0.00    +0.210 HD
ENDBRANCH  10   2
BRANCH   8  11
ATOM     11  C   UNL     1      -8.087 -11.135  16.440  0.00  0.00    +0.115 C 
BRANCH  11   5
ATOM      5  N   UNL     1      -9.524 -11.369  16.425  0.00  0.00    -0.311 NA
ATOM     31  H   UNL     1      -9.780 -11.899  17.257  0.00  0.00    +0.122 HD
BRANCH   5   9
ATOM      6  N   UNL     1     -10.365  -7.265  15.707  0.00  0.00    -0.305 NA
ATOM      9  C   UNL     1     -10.260 -10.107  16.396  0.00  0.00    +0.056 C 
ATOM     15  C   UNL     1      -9.548  -9.038  17.230  0.00  0.00    +0.034 C 
ATOM     16  C   UNL     1     -10.423  -9.622  14.954  0.00  0.00    +0.034 C 
ATOM     17  C   UNL     1     -10.259  -7.687  17.111  0.00  0.00    +0.085 C 
ATOM     18  C   UNL     1     -11.106  -8.253  14.910  0.00  0.00    +0.085 C 
ATOM     20  C   UNL     1     -11.001  -5.951  15.615  0.00  0.00    +0.104 C 
ENDBRANCH   5   9
ENDBRANCH  11   5
ENDBRANCH   8  11
BRANCH  12  19
ATOM     19  C   UNL     1      -3.766 -11.353  17.017  0.00  0.00    +0.090 C 
BRANCH  19  21
ATOM      3  O   UNL     1      -2.376 -10.523  13.796  0.00  0.00    -0.354 OA
ATOM      7  N   UNL     1      -2.255 -10.815  15.150  0.00  0.00    -0.083 NA
ATOM     21  C   UNL     1      -3.507 -11.009  15.575  0.00  0.00    +0.087 A 
ATOM     22  C   UNL     1      -4.451 -10.855  14.545  0.00  0.00    +0.076 A 
ATOM     23  C   UNL     1      -3.688 -10.549  13.449  0.00  0.00    +0.167 A 
BRANCH  23  24
ATOM     24  C   UNL     1      -3.972 -10.267  12.072  0.00  0.00    +0.020 A 
ATOM     25  C   UNL     1      -3.013  -9.641  11.276  0.00  0.00    +0.015 A 
ATOM     26  C   UNL     1      -5.208 -10.618  11.528  0.00  0.00    +0.015 A 
ATOM     27  C   UNL     1      -3.289  -9.366   9.937  0.00  0.00    +0.046 A 
ATOM     28  C   UNL     1      -5.483 -10.343  10.188  0.00  0.00    +0.046 A 
ATOM     29  C   UNL     1      -4.524  -9.718   9.392  0.00  0.00    +0.120 A 
BRANCH  29   4
ATOM      4  O   UNL     1      -4.792  -9.452   8.085  0.00  0.00    -0.495 OA
ATOM     30  C   UNL     1      -5.600 -10.396   7.383  0.00  0.00    +0.277 C 
ENDBRANCH  29   4
ENDBRANCH  23  24
ENDBRANCH  19  21
ENDBRANCH  12  19
TORSDOF 8
ENDMDL
MODEL 10
REMARK VINA RESULT:      -6.4     27.535     29.878
REMARK  Name = 75536405
REMARK  10 active torsions:
REMARK  status: ('A' for Active; 'I' for Inactive)
REMARK    1  A    between atoms: O_2  and  C_10
REMARK    2  A    between atoms: O_4  and  C_29
REMARK    3  A    between atoms: O_4  and  C_30
REMARK    4  A    between atoms: N_5  and  C_9
REMARK    5  A    between atoms: N_5  and  C_11
REMARK    6  A    between atoms: N_6  and  C_20
REMARK    7  A    between atoms: C_8  and  C_11
REMARK    8  A    between atoms: C_12  and  C_19
REMARK    9  A    between atoms: C_19  and  C_21
REMARK   10  A    between atoms: C_23  and  C_24
REMARK                            x       y       z     vdW  Elec       q    Type
REMARK                         _______ _______ _______ _____ _____    ______ ____
ROOT
ATOM      1  O   UNL     1      -4.006  -9.613   9.173  0.00  0.00    -0.369 OA
ATOM      8  C   UNL     1      -5.184  -9.557   8.357  0.00  0.00    +0.161 C 
ATOM     10  C   UNL     1      -5.555 -10.944   7.817  0.00  0.00    +0.145 C 
ATOM     12  C   UNL     1      -4.067 -10.533  10.267  0.00  0.00    +0.125 C 
ATOM     13  C   UNL     1      -5.587 -12.006   8.914  0.00  0.00    +0.036 C 
ATOM     14  C   UNL     1      -4.319 -11.953   9.761  0.00  0.00    +0.034 C 
ENDROOT
BRANCH  10   2
ATOM      2  O   UNL     1      -4.575 -11.341   6.854  0.00  0.00    -0.389 OA
ATOM     32  H   UNL     1      -5.027 -11.877   6.180  0.00  0.00    +0.210 HD
ENDBRANCH  10   2
BRANCH   8  11
ATOM     11  C   UNL     1      -6.333  -8.878   9.098  0.00  0.00    +0.115 C 
BRANCH  11   5
ATOM      5  N   UNL     1      -6.655  -7.594   8.492  0.00  0.00    -0.311 NA
ATOM     31  H   UNL     1      -6.173  -7.522   7.596  0.00  0.00    +0.122 HD
BRANCH   5   9
ATOM      6  N   UNL     1     -10.694  -6.504   9.244  0.00  0.00    -0.305 NA
ATOM      9  C   UNL     1      -8.095  -7.455   8.291  0.00  0.00    +0.056 C 
ATOM     15  C   UNL     1      -8.875  -8.177   9.392  0.00  0.00    +0.034 C 
ATOM     16  C   UNL     1      -8.485  -5.975   8.259  0.00  0.00    +0.034 C 
ATOM     17  C   UNL     1     -10.381  -7.940   9.245  0.00  0.00    +0.085 C 
ATOM     18  C   UNL     1     -10.003  -5.810   8.148  0.00  0.00    +0.085 C 
ATOM     20  C   UNL     1     -12.138  -6.296   9.152  0.00  0.00    +0.104 C 
ENDBRANCH   5   9
ENDBRANCH  11   5
ENDBRANCH   8  11
BRANCH  12  19
ATOM     19  C   UNL     1      -2.738 -10.450  11.010  0.00  0.00    +0.090 C 
BRANCH  19  21
ATOM      3  O   UNL     1      -2.404 -10.421  14.599  0.00  0.00    -0.354 OA
ATOM      7  N   UNL     1      -1.876 -10.380  13.313  0.00  0.00    -0.083 NA
ATOM     21  C   UNL     1      -2.933 -10.465  12.502  0.00  0.00    +0.087 A 
ATOM     22  C   UNL     1      -4.144 -10.562  13.210  0.00  0.00    +0.076 A 
ATOM     23  C   UNL     1      -3.756 -10.530  14.523  0.00  0.00    +0.167 A 
BRANCH  23  24
ATOM     24  C   UNL     1      -4.446 -10.582  15.779  0.00  0.00    +0.020 A 
ATOM     25  C   UNL     1      -5.694  -9.974  15.915  0.00  0.00    +0.015 A 
ATOM     26  C   UNL     1      -3.870 -11.242  16.864  0.00  0.00    +0.015 A 
ATOM     27  C   UNL     1      -6.366 -10.025  17.136  0.00  0.00    +0.046 A 
ATOM     28  C   UNL     1      -4.542 -11.294  18.086  0.00  0.00    +0.046 A 
ATOM     29  C   UNL     1      -5.790 -10.686  18.222  0.00  0.00    +0.120 A 
BRANCH  29   4
ATOM      4  O   UNL     1      -6.447 -10.738  19.412  0.00  0.00    -0.495 OA
ATOM     30  C   UNL     1      -7.125 -11.953  19.726  0.00  0.00    +0.277 C 
ENDBRANCH  29   4
ENDBRANCH  23  24
ENDBRANCH  19  21
ENDBRANCH  12  19
TORSDOF 8
ENDMDL
