MODEL 1
REMARK VINA RESULT:      -6.3      0.000      0.000
REMARK  Name = 25338208
REMARK  4 active torsions:
REMARK  status: ('A' for Active; 'I' for Inactive)
REMARK    1  A    between atoms: O_3  and  C_9
REMARK    2  A    between atoms: N_5  and  C_8
REMARK    3  A    between atoms: N_6  and  C_10
REMARK    4  A    between atoms: N_7  and  C_19
REMARK                            x       y       z     vdW  Elec       q    Type
REMARK                         _______ _______ _______ _____ _____    ______ ____
ROOT
ATOM      1  O   UNL     1      10.180   8.308   5.544  0.00  0.00    -0.342 OA
ATOM      2  O   UNL     1       9.370   7.864   7.672  0.00  0.00    -0.347 OA
ATOM      8  C   UNL     1      11.760   7.826   7.302  0.00  0.00    +0.143 C 
ATOM      9  C   UNL     1      11.705   6.318   6.964  0.00  0.00    +0.159 C 
ATOM     10  C   UNL     1      10.847   5.997   5.720  0.00  0.00    +0.136 C 
ATOM     11  C   UNL     1       9.667   6.973   5.528  0.00  0.00    +0.170 C 
ATOM     12  C   UNL     1      10.427   8.508   6.942  0.00  0.00    +0.270 C 
ATOM     13  C   UNL     1       8.712   7.030   6.706  0.00  0.00    +0.196 C 
ENDROOT
BRANCH  10   6
ATOM      4  O   UNL     1      10.631   4.202   3.486  0.00  0.00    -0.253 OA
ATOM      6  N   UNL     1      11.674   5.990   4.532  0.00  0.00    -0.291 N 
ATOM      7  N   UNL     1      12.419   5.289   2.478  0.00  0.00    -0.297 N 
ATOM     20  C   UNL     1      11.494   5.079   3.498  0.00  0.00    +0.300 C 
ATOM     26  H   UNL     1      12.463   6.627   4.488  0.00  0.00    +0.151 HD
ATOM     28  H   UNL     1      13.134   5.994   2.623  0.00  0.00    +0.151 HD
BRANCH   7  19
ATOM     19  C   UNL     1      12.466   4.487   1.275  0.00  0.00    +0.074 C 
ATOM     21  C   UNL     1      12.965   5.312   0.083  0.00  0.00    +0.022 C 
ATOM     22  C   UNL     1      13.323   3.234   1.482  0.00  0.00    +0.022 C 
ATOM     23  C   UNL     1      14.457   5.628   0.175  0.00  0.00    +0.002 C 
ATOM     24  C   UNL     1      14.815   3.554   1.571  0.00  0.00    +0.002 C 
ATOM     25  C   UNL     1      15.290   4.364   0.369  0.00  0.00    +0.000 C 
ENDBRANCH   7  19
ENDBRANCH  10   6
BRANCH   8   5
ATOM      5  N   UNL     1      12.855   8.466   6.573  0.00  0.00    -0.293 NA
ATOM     14  C   UNL     1      14.090   7.680   6.709  0.00  0.00    +0.085 C 
ATOM     15  C   UNL     1      13.048   9.845   7.041  0.00  0.00    +0.085 C 
ATOM     16  C   UNL     1      15.235   8.310   5.913  0.00  0.00    +0.015 C 
ATOM     17  C   UNL     1      14.158  10.544   6.255  0.00  0.00    +0.015 C 
ATOM     18  C   UNL     1      15.463   9.760   6.321  0.00  0.00    +0.002 C 
ENDBRANCH   8   5
BRANCH   9   3
ATOM      3  O   UNL     1      11.149   5.637   8.096  0.00  0.00    -0.388 OA
ATOM     27  H   UNL     1      11.799   4.977   8.390  0.00  0.00    +0.210 HD
ENDBRANCH   9   3
TORSDOF 4
ENDMDL
MODEL 2
REMARK VINA RESULT:      -6.0     23.245     25.775
REMARK  Name = 25338208
REMARK  4 active torsions:
REMARK  status: ('A' for Active; 'I' for Inactive)
REMARK    1  A    between atoms: O_3  and  C_9
REMARK    2  A    between atoms: N_5  and  C_8
REMARK    3  A    between atoms: N_6  and  C_10
REMARK    4  A    between atoms: N_7  and  C_19
REMARK                            x       y       z     vdW  Elec       q    Type
REMARK                         _______ _______ _______ _____ _____    ______ ____
ROOT
ATOM      1  O   UNL     1      -1.125 -15.346  -5.244  0.00  0.00    -0.342 OA
ATOM      2  O   UNL     1      -2.699 -13.889  -6.127  0.00  0.00    -0.347 OA
ATOM      8  C   UNL     1      -0.356 -13.312  -6.288  0.00  0.00    +0.143 C 
ATOM      9  C   UNL     1      -0.424 -12.569  -4.934  0.00  0.00    +0.159 C 
ATOM     10  C   UNL     1      -0.790 -13.486  -3.746  0.00  0.00    +0.136 C 
ATOM     11  C   UNL     1      -1.719 -14.652  -4.143  0.00  0.00    +0.170 C 
ATOM     12  C   UNL     1      -1.392 -14.450  -6.331  0.00  0.00    +0.270 C 
ATOM     13  C   UNL     1      -3.030 -14.215  -4.768  0.00  0.00    +0.196 C 
ENDROOT
BRANCH  10   6
ATOM      4  O   UNL     1      -0.112 -13.395  -0.955  0.00  0.00    -0.253 OA
ATOM      6  N   UNL     1       0.413 -14.005  -3.130  0.00  0.00    -0.291 N 
ATOM      7  N   UNL     1       1.878 -14.492  -1.432  0.00  0.00    -0.297 N 
ATOM     20  C   UNL     1       0.654 -13.916  -1.764  0.00  0.00    +0.300 C 
ATOM     26  H   UNL     1       1.140 -14.383  -3.729  0.00  0.00    +0.151 HD
ATOM     28  H   UNL     1       2.466 -14.828  -2.189  0.00  0.00    +0.151 HD
BRANCH   7  19
ATOM     19  C   UNL     1       2.389 -14.541  -0.080  0.00  0.00    +0.074 C 
ATOM     21  C   UNL     1       2.825 -15.963   0.292  0.00  0.00    +0.022 C 
ATOM     22  C   UNL     1       3.533 -13.541   0.113  0.00  0.00    +0.022 C 
ATOM     23  C   UNL     1       4.106 -16.388  -0.426  0.00  0.00    +0.002 C 
ATOM     24  C   UNL     1       4.813 -13.971  -0.603  0.00  0.00    +0.002 C 
ATOM     25  C   UNL     1       5.233 -15.383  -0.208  0.00  0.00    +0.000 C 
ENDBRANCH   7  19
ENDBRANCH  10   6
BRANCH   8   5
ATOM      5  N   UNL     1       0.985 -13.857  -6.497  0.00  0.00    -0.293 NA
ATOM     14  C   UNL     1       2.005 -12.870  -6.114  0.00  0.00    +0.085 C 
ATOM     15  C   UNL     1       1.156 -14.283  -7.893  0.00  0.00    +0.085 C 
ATOM     16  C   UNL     1       3.415 -13.441  -6.280  0.00  0.00    +0.015 C 
ATOM     17  C   UNL     1       2.537 -14.900  -8.117  0.00  0.00    +0.015 C 
ATOM     18  C   UNL     1       3.647 -13.941  -7.701  0.00  0.00    +0.002 C 
ENDBRANCH   8   5
BRANCH   9   3
ATOM      3  O   UNL     1      -1.419 -11.544  -5.049  0.00  0.00    -0.388 OA
ATOM     27  H   UNL     1      -1.622 -11.229  -4.151  0.00  0.00    +0.210 HD
ENDBRANCH   9   3
TORSDOF 4
ENDMDL
MODEL 3
REMARK VINA RESULT:      -5.7      2.995      4.064
REMARK  Name = 25338208
REMARK  4 active torsions:
REMARK  status: ('A' for Active; 'I' for Inactive)
REMARK    1  A    between atoms: O_3  and  C_9
REMARK    2  A    between atoms: N_5  and  C_8
REMARK    3  A    between atoms: N_6  and  C_10
REMARK    4  A    between atoms: N_7  and  C_19
REMARK                            x       y       z     vdW  Elec       q    Type
REMARK                         _______ _______ _______ _____ _____    ______ ____
ROOT
ATOM      1  O   UNL     1      10.582   9.627   5.873  0.00  0.00    -0.342 OA
ATOM      2  O   UNL     1       8.566  10.714   6.243  0.00  0.00    -0.347 OA
ATOM      8  C   UNL     1       8.605   8.296   6.249  0.00  0.00    +0.143 C 
ATOM      9  C   UNL     1       8.313   8.266   4.731  0.00  0.00    +0.159 C 
ATOM     10  C   UNL     1       9.415   8.935   3.879  0.00  0.00    +0.136 C 
ATOM     11  C   UNL     1      10.120  10.100   4.604  0.00  0.00    +0.170 C 
ATOM     12  C   UNL     1       9.363   9.582   6.628  0.00  0.00    +0.270 C 
ATOM     13  C   UNL     1       9.186  11.210   5.047  0.00  0.00    +0.196 C 
ENDROOT
BRANCH  10   6
ATOM      4  O   UNL     1       9.449   7.472   1.405  0.00  0.00    -0.253 OA
ATOM      6  N   UNL     1      10.393   7.950   3.469  0.00  0.00    -0.291 N 
ATOM      7  N   UNL     1      11.387   6.399   2.100  0.00  0.00    -0.297 N 
ATOM     20  C   UNL     1      10.328   7.291   2.247  0.00  0.00    +0.300 C 
ATOM     26  H   UNL     1      11.113   7.677   4.131  0.00  0.00    +0.151 HD
ATOM     28  H   UNL     1      12.015   6.274   2.887  0.00  0.00    +0.151 HD
BRANCH   7  19
ATOM     19  C   UNL     1      11.572   5.576   0.925  0.00  0.00    +0.074 C 
ATOM     21  C   UNL     1      13.057   5.453   0.567  0.00  0.00    +0.022 C 
ATOM     22  C   UNL     1      10.929   4.198   1.111  0.00  0.00    +0.022 C 
ATOM     23  C   UNL     1      13.825   4.574   1.554  0.00  0.00    +0.002 C 
ATOM     24  C   UNL     1      11.700   3.320   2.097  0.00  0.00    +0.002 C 
ATOM     25  C   UNL     1      13.172   3.203   1.713  0.00  0.00    +0.000 C 
ENDBRANCH   7  19
ENDBRANCH  10   6
BRANCH   8   5
ATOM      5  N   UNL     1       9.395   7.126   6.633  0.00  0.00    -0.293 NA
ATOM     14  C   UNL     1       8.939   5.937   5.899  0.00  0.00    +0.085 C 
ATOM     15  C   UNL     1       9.326   6.914   8.085  0.00  0.00    +0.085 C 
ATOM     16  C   UNL     1       9.787   4.713   6.253  0.00  0.00    +0.015 C 
ATOM     17  C   UNL     1      10.186   5.722   8.510  0.00  0.00    +0.015 C 
ATOM     18  C   UNL     1       9.793   4.458   7.755  0.00  0.00    +0.002 C 
ENDBRANCH   8   5
BRANCH   9   3
ATOM      3  O   UNL     1       7.077   8.958   4.510  0.00  0.00    -0.388 OA
ATOM     27  H   UNL     1       7.037   9.697   5.140  0.00  0.00    +0.210 HD
ENDBRANCH   9   3
TORSDOF 4
ENDMDL
MODEL 4
REMARK VINA RESULT:      -5.7     15.319     17.813
REMARK  Name = 25338208
REMARK  4 active torsions:
REMARK  status: ('A' for Active; 'I' for Inactive)
REMARK    1  A    between atoms: O_3  and  C_9
REMARK    2  A    between atoms: N_5  and  C_8
REMARK    3  A    between atoms: N_6  and  C_10
REMARK    4  A    between atoms: N_7  and  C_19
REMARK                            x       y       z     vdW  Elec       q    Type
REMARK                         _______ _______ _______ _____ _____    ______ ____
ROOT
ATOM      1  O   UNL     1      11.943  13.732  22.776  0.00  0.00    -0.342 OA
ATOM      2  O   UNL     1      11.412  13.769  25.034  0.00  0.00    -0.347 OA
ATOM      8  C   UNL     1      13.180  12.303  24.276  0.00  0.00    +0.143 C 
ATOM      9  C   UNL     1      12.164  11.159  24.053  0.00  0.00    +0.159 C 
ATOM     10  C   UNL     1      11.089  11.487  22.993  0.00  0.00    +0.136 C 
ATOM     11  C   UNL     1      10.732  12.987  22.935  0.00  0.00    +0.170 C 
ATOM     12  C   UNL     1      12.497  13.672  24.097  0.00  0.00    +0.270 C 
ATOM     13  C   UNL     1      10.229  13.556  24.249  0.00  0.00    +0.196 C 
ENDROOT
BRANCH  10   6
ATOM      4  O   UNL     1      10.773   8.851  21.893  0.00  0.00    -0.253 OA
ATOM      6  N   UNL     1      11.523  11.036  21.688  0.00  0.00    -0.291 N 
ATOM      7  N   UNL     1      11.833   9.564  19.954  0.00  0.00    -0.297 N 
ATOM     20  C   UNL     1      11.324   9.736  21.240  0.00  0.00    +0.300 C 
ATOM     26  H   UNL     1      12.058  11.675  21.108  0.00  0.00    +0.151 HD
ATOM     28  H   UNL     1      12.334  10.341  19.535  0.00  0.00    +0.151 HD
BRANCH   7  19
ATOM     19  C   UNL     1      11.767   8.311  19.237  0.00  0.00    +0.074 C 
ATOM     21  C   UNL     1      11.565   8.545  17.736  0.00  0.00    +0.022 C 
ATOM     22  C   UNL     1      13.011   7.457  19.504  0.00  0.00    +0.022 C 
ATOM     23  C   UNL     1      12.817   9.101  17.058  0.00  0.00    +0.002 C 
ATOM     24  C   UNL     1      14.260   8.015  18.822  0.00  0.00    +0.002 C 
ATOM     25  C   UNL     1      14.039   8.228  17.328  0.00  0.00    +0.000 C 
ENDBRANCH   7  19
ENDBRANCH  10   6
BRANCH   8   5
ATOM      5  N   UNL     1      14.293  12.180  23.334  0.00  0.00    -0.293 NA
ATOM     14  C   UNL     1      14.739  10.782  23.249  0.00  0.00    +0.085 C 
ATOM     15  C   UNL     1      15.396  13.068  23.723  0.00  0.00    +0.085 C 
ATOM     16  C   UNL     1      15.872  10.626  22.232  0.00  0.00    +0.015 C 
ATOM     17  C   UNL     1      16.549  12.987  22.721  0.00  0.00    +0.015 C 
ATOM     18  C   UNL     1      17.037  11.553  22.553  0.00  0.00    +0.002 C 
ENDBRANCH   8   5
BRANCH   9   3
ATOM      3  O   UNL     1      11.514  10.902  25.305  0.00  0.00    -0.388 OA
ATOM     27  H   UNL     1      11.692  11.659  25.889  0.00  0.00    +0.210 HD
ENDBRANCH   9   3
TORSDOF 4
ENDMDL
MODEL 5
REMARK VINA RESULT:      -5.5     24.335     26.663
REMARK  Name = 25338208
REMARK  4 active torsions:
REMARK  status: ('A' for Active; 'I' for Inactive)
REMARK    1  A    between atoms: O_3  and  C_9
REMARK    2  A    between atoms: N_5  and  C_8
REMARK    3  A    between atoms: N_6  and  C_10
REMARK    4  A    between atoms: N_7  and  C_19
REMARK                            x       y       z     vdW  Elec       q    Type
REMARK                         _______ _______ _______ _____ _____    ______ ____
ROOT
ATOM      1  O   UNL     1      -6.052  -9.190  16.889  0.00  0.00    -0.342 OA
ATOM      2  O   UNL     1      -6.909 -10.727  18.401  0.00  0.00    -0.347 OA
ATOM      8  C   UNL     1      -5.418 -11.507  16.664  0.00  0.00    +0.143 C 
ATOM      9  C   UNL     1      -6.616 -11.763  15.721  0.00  0.00    +0.159 C 
ATOM     10  C   UNL     1      -7.410 -10.485  15.373  0.00  0.00    +0.136 C 
ATOM     11  C   UNL     1      -7.409  -9.442  16.510  0.00  0.00    +0.170 C 
ATOM     12  C   UNL     1      -5.740 -10.367  17.647  0.00  0.00    +0.270 C 
ATOM     13  C   UNL     1      -7.972  -9.953  17.822  0.00  0.00    +0.196 C 
ENDROOT
BRANCH  10   6
ATOM      4  O   UNL     1      -7.553 -11.582  12.721  0.00  0.00    -0.253 OA
ATOM      6  N   UNL     1      -6.890  -9.889  14.161  0.00  0.00    -0.291 N 
ATOM      7  N   UNL     1      -6.425  -9.717  11.920  0.00  0.00    -0.297 N 
ATOM     20  C   UNL     1      -7.007 -10.497  12.917  0.00  0.00    +0.300 C 
ATOM     26  H   UNL     1      -6.353  -9.031  14.235  0.00  0.00    +0.151 HD
ATOM     28  H   UNL     1      -5.936  -8.873  12.203  0.00  0.00    +0.151 HD
BRANCH   7  19
ATOM     19  C   UNL     1      -6.398 -10.103  10.527  0.00  0.00    +0.074 C 
ATOM     21  C   UNL     1      -6.489  -8.875   9.614  0.00  0.00    +0.022 C 
ATOM     22  C   UNL     1      -5.155 -10.940  10.211  0.00  0.00    +0.022 C 
ATOM     23  C   UNL     1      -5.205  -8.046   9.620  0.00  0.00    +0.002 C 
ATOM     24  C   UNL     1      -3.873 -10.107  10.214  0.00  0.00    +0.002 C 
ATOM     25  C   UNL     1      -3.983  -8.898   9.290  0.00  0.00    +0.000 C 
ENDBRANCH   7  19
ENDBRANCH  10   6
BRANCH   8   5
ATOM      5  N   UNL     1      -4.227 -11.166  15.885  0.00  0.00    -0.293 NA
ATOM     14  C   UNL     1      -4.048 -12.119  14.780  0.00  0.00    +0.085 C 
ATOM     15  C   UNL     1      -3.041 -11.126  16.750  0.00  0.00    +0.085 C 
ATOM     16  C   UNL     1      -2.834 -11.749  13.925  0.00  0.00    +0.015 C 
ATOM     17  C   UNL     1      -1.795 -10.723  15.959  0.00  0.00    +0.015 C 
ATOM     18  C   UNL     1      -1.570 -11.649  14.770  0.00  0.00    +0.002 C 
ENDBRANCH   8   5
BRANCH   9   3
ATOM      3  O   UNL     1      -7.495 -12.689  16.373  0.00  0.00    -0.388 OA
ATOM     27  H   UNL     1      -8.329 -12.703  15.875  0.00  0.00    +0.210 HD
ENDBRANCH   9   3
TORSDOF 4
ENDMDL
MODEL 6
REMARK VINA RESULT:      -5.4     35.053     37.749
REMARK  Name = 25338208
REMARK  4 active torsions:
REMARK  status: ('A' for Active; 'I' for Inactive)
REMARK    1  A    between atoms: O_3  and  C_9
REMARK    2  A    between atoms: N_5  and  C_8
REMARK    3  A    between atoms: N_6  and  C_10
REMARK    4  A    between atoms: N_7  and  C_19
REMARK                            x       y       z     vdW  Elec       q    Type
REMARK                         _______ _______ _______ _____ _____    ______ ____
ROOT
ATOM      1  O   UNL     1     -16.077   2.529  31.835  0.00  0.00    -0.342 OA
ATOM      2  O   UNL     1     -14.481   1.797  33.352  0.00  0.00    -0.347 OA
ATOM      8  C   UNL     1     -14.388   4.085  32.575  0.00  0.00    +0.143 C 
ATOM      9  C   UNL     1     -13.467   3.673  31.404  0.00  0.00    +0.159 C 
ATOM     10  C   UNL     1     -14.126   2.677  30.424  0.00  0.00    +0.136 C 
ATOM     11  C   UNL     1     -15.138   1.733  31.106  0.00  0.00    +0.170 C 
ATOM     12  C   UNL     1     -15.304   2.915  32.980  0.00  0.00    +0.270 C 
ATOM     13  C   UNL     1     -14.549   0.902  32.231  0.00  0.00    +0.196 C 
ENDROOT
BRANCH  10   6
ATOM      4  O   UNL     1     -15.738   1.546  28.331  0.00  0.00    -0.253 OA
ATOM      6  N   UNL     1     -14.776   3.395  29.347  0.00  0.00    -0.291 N 
ATOM      7  N   UNL     1     -16.051   3.675  27.460  0.00  0.00    -0.297 N 
ATOM     20  C   UNL     1     -15.540   2.759  28.376  0.00  0.00    +0.300 C 
ATOM     26  H   UNL     1     -14.604   4.391  29.257  0.00  0.00    +0.151 HD
ATOM     28  H   UNL     1     -15.764   4.645  27.549  0.00  0.00    +0.151 HD
BRANCH   7  19
ATOM     19  C   UNL     1     -16.883   3.295  26.340  0.00  0.00    +0.074 C 
ATOM     21  C   UNL     1     -17.924   4.377  26.035  0.00  0.00    +0.022 C 
ATOM     22  C   UNL     1     -16.032   2.978  25.105  0.00  0.00    +0.022 C 
ATOM     23  C   UNL     1     -17.302   5.627  25.411  0.00  0.00    +0.002 C 
ATOM     24  C   UNL     1     -15.415   4.230  24.483  0.00  0.00    +0.002 C 
ATOM     25  C   UNL     1     -16.471   5.287  24.177  0.00  0.00    +0.000 C 
ENDBRANCH   7  19
ENDBRANCH  10   6
BRANCH   8   5
ATOM      5  N   UNL     1     -15.201   5.240  32.194  0.00  0.00    -0.293 NA
ATOM     14  C   UNL     1     -14.366   6.445  32.094  0.00  0.00    +0.085 C 
ATOM     15  C   UNL     1     -16.301   5.432  33.149  0.00  0.00    +0.085 C 
ATOM     16  C   UNL     1     -15.192   7.654  31.649  0.00  0.00    +0.015 C 
ATOM     17  C   UNL     1     -17.190   6.607  32.737  0.00  0.00    +0.015 C 
ATOM     18  C   UNL     1     -16.378   7.887  32.576  0.00  0.00    +0.002 C 
ENDBRANCH   8   5
BRANCH   9   3
ATOM      3  O   UNL     1     -12.297   3.062  31.963  0.00  0.00    -0.388 OA
ATOM     27  H   UNL     1     -12.489   2.117  32.088  0.00  0.00    +0.210 HD
ENDBRANCH   9   3
TORSDOF 4
ENDMDL
MODEL 7
REMARK VINA RESULT:      -5.4     36.411     38.525
REMARK  Name = 25338208
REMARK  4 active torsions:
REMARK  status: ('A' for Active; 'I' for Inactive)
REMARK    1  A    between atoms: O_3  and  C_9
REMARK    2  A    between atoms: N_5  and  C_8
REMARK    3  A    between atoms: N_6  and  C_10
REMARK    4  A    between atoms: N_7  and  C_19
REMARK                            x       y       z     vdW  Elec       q    Type
REMARK                         _______ _______ _______ _____ _____    ______ ____
ROOT
ATOM      1  O   UNL     1     -13.772   2.842  30.940  0.00  0.00    -0.342 OA
ATOM      2  O   UNL     1     -15.037   1.253  32.063  0.00  0.00    -0.347 OA
ATOM      8  C   UNL     1     -16.116   3.281  31.305  0.00  0.00    +0.143 C 
ATOM      9  C   UNL     1     -15.796   3.978  32.648  0.00  0.00    +0.159 C 
ATOM     10  C   UNL     1     -14.282   4.110  32.927  0.00  0.00    +0.136 C 
ATOM     11  C   UNL     1     -13.452   2.955  32.330  0.00  0.00    +0.170 C 
ATOM     12  C   UNL     1     -15.058   2.208  30.989  0.00  0.00    +0.270 C 
ATOM     13  C   UNL     1     -13.861   1.579  32.820  0.00  0.00    +0.196 C 
ENDROOT
BRANCH  10   6
ATOM      4  O   UNL     1     -14.272   6.623  34.321  0.00  0.00    -0.253 OA
ATOM      6  N   UNL     1     -13.791   5.376  32.426  0.00  0.00    -0.291 N 
ATOM      7  N   UNL     1     -13.295   7.617  32.463  0.00  0.00    -0.297 N 
ATOM     20  C   UNL     1     -13.827   6.545  33.177  0.00  0.00    +0.300 C 
ATOM     26  H   UNL     1     -13.478   5.426  31.462  0.00  0.00    +0.151 HD
ATOM     28  H   UNL     1     -13.024   7.456  31.498  0.00  0.00    +0.151 HD
BRANCH   7  19
ATOM     19  C   UNL     1     -13.205   8.957  32.998  0.00  0.00    +0.074 C 
ATOM     21  C   UNL     1     -11.797   9.244  33.530  0.00  0.00    +0.022 C 
ATOM     22  C   UNL     1     -13.628   9.996  31.954  0.00  0.00    +0.022 C 
ATOM     23  C   UNL     1     -10.770   9.403  32.409  0.00  0.00    +0.002 C 
ATOM     24  C   UNL     1     -12.598  10.154  30.836  0.00  0.00    +0.002 C 
ATOM     25  C   UNL     1     -11.207  10.451  31.389  0.00  0.00    +0.000 C 
ENDBRANCH   7  19
ENDBRANCH  10   6
BRANCH   8   5
ATOM      5  N   UNL     1     -16.160   4.266  30.224  0.00  0.00    -0.293 NA
ATOM     14  C   UNL     1     -16.833   5.492  30.675  0.00  0.00    +0.085 C 
ATOM     15  C   UNL     1     -16.821   3.700  29.041  0.00  0.00    +0.085 C 
ATOM     16  C   UNL     1     -16.845   6.552  29.571  0.00  0.00    +0.015 C 
ATOM     17  C   UNL     1     -16.832   4.702  27.884  0.00  0.00    +0.015 C 
ATOM     18  C   UNL     1     -17.484   6.017  28.295  0.00  0.00    +0.002 C 
ENDBRANCH   8   5
BRANCH   9   3
ATOM      3  O   UNL     1     -16.392   3.203  33.695  0.00  0.00    -0.388 OA
ATOM     27  H   UNL     1     -15.741   2.539  33.977  0.00  0.00    +0.210 HD
ENDBRANCH   9   3
TORSDOF 4
ENDMDL
MODEL 8
REMARK VINA RESULT:      -5.4     28.265     30.974
REMARK  Name = 25338208
REMARK  4 active torsions:
REMARK  status: ('A' for Active; 'I' for Inactive)
REMARK    1  A    between atoms: O_3  and  C_9
REMARK    2  A    between atoms: N_5  and  C_8
REMARK    3  A    between atoms: N_6  and  C_10
REMARK    4  A    between atoms: N_7  and  C_19
REMARK                            x       y       z     vdW  Elec       q    Type
REMARK                         _______ _______ _______ _____ _____    ______ ____
ROOT
ATOM      1  O   UNL     1     -11.669 -12.438  18.389  0.00  0.00    -0.342 OA
ATOM      2  O   UNL     1     -12.831 -11.437  20.130  0.00  0.00    -0.347 OA
ATOM      8  C   UNL     1     -11.410 -10.064  18.735  0.00  0.00    +0.143 C 
ATOM      9  C   UNL     1     -10.210 -10.313  19.677  0.00  0.00    +0.159 C 
ATOM     10  C   UNL     1      -9.796 -11.798  19.768  0.00  0.00    +0.136 C 
ATOM     11  C   UNL     1     -10.982 -12.770  19.599  0.00  0.00    +0.170 C 
ATOM     12  C   UNL     1     -12.384 -11.256  18.776  0.00  0.00    +0.270 C 
ATOM     13  C   UNL     1     -12.095 -12.572  20.611  0.00  0.00    +0.196 C 
ENDROOT
BRANCH  10   6
ATOM      4  O   UNL     1      -6.963 -11.965  20.219  0.00  0.00    -0.253 OA
ATOM      6  N   UNL     1      -8.778 -12.093  18.782  0.00  0.00    -0.291 N 
ATOM      7  N   UNL     1      -6.662 -12.453  17.969  0.00  0.00    -0.297 N 
ATOM     20  C   UNL     1      -7.425 -12.153  19.095  0.00  0.00    +0.300 C 
ATOM     26  H   UNL     1      -9.057 -12.185  17.810  0.00  0.00    +0.151 HD
ATOM     28  H   UNL     1      -7.139 -12.516  17.075  0.00  0.00    +0.151 HD
BRANCH   7  19
ATOM     19  C   UNL     1      -5.221 -12.579  18.000  0.00  0.00    +0.074 C 
ATOM     21  C   UNL     1      -4.702 -13.262  16.730  0.00  0.00    +0.022 C 
ATOM     22  C   UNL     1      -4.554 -11.216  18.211  0.00  0.00    +0.022 C 
ATOM     23  C   UNL     1      -4.801 -12.361  15.499  0.00  0.00    +0.002 C 
ATOM     24  C   UNL     1      -4.653 -10.319  16.977  0.00  0.00    +0.002 C 
ATOM     25  C   UNL     1      -4.119 -11.015  15.730  0.00  0.00    +0.000 C 
ENDBRANCH   7  19
ENDBRANCH  10   6
BRANCH   8   5
ATOM      5  N   UNL     1     -10.941  -9.856  17.365  0.00  0.00    -0.293 NA
ATOM     14  C   UNL     1      -9.837  -8.886  17.343  0.00  0.00    +0.085 C 
ATOM     15  C   UNL     1     -12.048  -9.421  16.504  0.00  0.00    +0.085 C 
ATOM     16  C   UNL     1      -9.302  -8.693  15.923  0.00  0.00    +0.015 C 
ATOM     17  C   UNL     1     -11.585  -9.246  15.056  0.00  0.00    +0.015 C 
ATOM     18  C   UNL     1     -10.411  -8.278  14.964  0.00  0.00    +0.002 C 
ENDBRANCH   8   5
BRANCH   9   3
ATOM      3  O   UNL     1     -10.579  -9.857  20.985  0.00  0.00    -0.388 OA
ATOM     27  H   UNL     1      -9.770  -9.550  21.429  0.00  0.00    +0.210 HD
ENDBRANCH   9   3
TORSDOF 4
ENDMDL
MODEL 9
REMARK VINA RESULT:      -5.2     25.804     28.350
REMARK  Name = 25338208
REMARK  4 active torsions:
REMARK  status: ('A' for Active; 'I' for Inactive)
REMARK    1  A    between atoms: O_3  and  C_9
REMARK    2  A    between atoms: N_5  and  C_8
REMARK    3  A    between atoms: N_6  and  C_10
REMARK    4  A    between atoms: N_7  and  C_19
REMARK                            x       y       z     vdW  Elec       q    Type
REMARK                         _______ _______ _______ _____ _____    ______ ____
ROOT
ATOM      1  O   UNL     1      -7.973 -13.068  17.493  0.00  0.00    -0.342 OA
ATOM      2  O   UNL     1      -8.853 -11.838  19.253  0.00  0.00    -0.347 OA
ATOM      8  C   UNL     1      -8.411 -10.720  17.154  0.00  0.00    +0.143 C 
ATOM      9  C   UNL     1      -6.979 -10.367  17.619  0.00  0.00    +0.159 C 
ATOM     10  C   UNL     1      -6.099 -11.605  17.897  0.00  0.00    +0.136 C 
ATOM     11  C   UNL     1      -6.902 -12.819  18.409  0.00  0.00    +0.170 C 
ATOM     12  C   UNL     1      -8.891 -12.019  17.828  0.00  0.00    +0.270 C 
ATOM     13  C   UNL     1      -7.684 -12.553  19.682  0.00  0.00    +0.196 C 
ENDROOT
BRANCH  10   6
ATOM      4  O   UNL     1      -3.336 -11.043  17.339  0.00  0.00    -0.253 OA
ATOM      6  N   UNL     1      -5.364 -11.972  16.705  0.00  0.00    -0.291 N 
ATOM      7  N   UNL     1      -3.559 -12.122  15.295  0.00  0.00    -0.297 N 
ATOM     20  C   UNL     1      -4.023 -11.656  16.523  0.00  0.00    +0.300 C 
ATOM     26  H   UNL     1      -5.869 -12.411  15.941  0.00  0.00    +0.151 HD
ATOM     28  H   UNL     1      -4.231 -12.551  14.666  0.00  0.00    +0.151 HD
BRANCH   7  19
ATOM     19  C   UNL     1      -2.200 -11.935  14.839  0.00  0.00    +0.074 C 
ATOM     21  C   UNL     1      -1.818 -12.994  13.798  0.00  0.00    +0.022 C 
ATOM     22  C   UNL     1      -1.992 -10.519  14.295  0.00  0.00    +0.022 C 
ATOM     23  C   UNL     1      -2.514 -12.771  12.456  0.00  0.00    +0.002 C 
ATOM     24  C   UNL     1      -2.687 -10.300  12.951  0.00  0.00    +0.002 C 
ATOM     25  C   UNL     1      -2.282 -11.357  11.929  0.00  0.00    +0.000 C 
ENDBRANCH   7  19
ENDBRANCH  10   6
BRANCH   8   5
ATOM      5  N   UNL     1      -8.444 -10.877  15.700  0.00  0.00    -0.293 NA
ATOM     14  C   UNL     1      -7.691  -9.794  15.051  0.00  0.00    +0.085 C 
ATOM     15  C   UNL     1      -9.831 -10.923  15.219  0.00  0.00    +0.085 C 
ATOM     16  C   UNL     1      -7.674  -9.969  13.531  0.00  0.00    +0.015 C 
ATOM     17  C   UNL     1      -9.883 -11.135  13.705  0.00  0.00    +0.015 C 
ATOM     18  C   UNL     1      -9.087 -10.065  12.968  0.00  0.00    +0.002 C 
ENDBRANCH   8   5
BRANCH   9   3
ATOM      3  O   UNL     1      -7.089  -9.600  18.825  0.00  0.00    -0.388 OA
ATOM     27  H   UNL     1      -6.647 -10.099  19.533  0.00  0.00    +0.210 HD
ENDBRANCH   9   3
TORSDOF 4
ENDMDL
MODEL 10
REMARK VINA RESULT:      -5.1     27.581     30.156
REMARK  Name = 25338208
REMARK  4 active torsions:
REMARK  status: ('A' for Active; 'I' for Inactive)
REMARK    1  A    between atoms: O_3  and  C_9
REMARK    2  A    between atoms: N_5  and  C_8
REMARK    3  A    between atoms: N_6  and  C_10
REMARK    4  A    between atoms: N_7  and  C_19
REMARK                            x       y       z     vdW  Elec       q    Type
REMARK                         _______ _______ _______ _____ _____    ______ ____
ROOT
ATOM      1  O   UNL     1     -10.917  -6.895  16.932  0.00  0.00    -0.342 OA
ATOM      2  O   UNL     1     -12.726  -6.957  15.480  0.00  0.00    -0.347 OA
ATOM      8  C   UNL     1     -12.031  -9.003  16.565  0.00  0.00    +0.143 C 
ATOM      9  C   UNL     1     -11.076  -9.326  15.393  0.00  0.00    +0.159 C 
ATOM     10  C   UNL     1      -9.959  -8.276  15.202  0.00  0.00    +0.136 C 
ATOM     11  C   UNL     1     -10.391  -6.850  15.602  0.00  0.00    +0.170 C 
ATOM     12  C   UNL     1     -12.208  -7.481  16.714  0.00  0.00    +0.270 C 
ATOM     13  C   UNL     1     -11.599  -6.333  14.845  0.00  0.00    +0.196 C 
ENDROOT
BRANCH  10   6
ATOM      4  O   UNL     1      -8.047 -10.300  14.487  0.00  0.00    -0.253 OA
ATOM      6  N   UNL     1      -8.782  -8.660  15.953  0.00  0.00    -0.291 N 
ATOM      7  N   UNL     1      -6.864  -9.826  16.428  0.00  0.00    -0.297 N 
ATOM     20  C   UNL     1      -7.911  -9.654  15.526  0.00  0.00    +0.300 C 
ATOM     26  H   UNL     1      -8.629  -8.237  16.863  0.00  0.00    +0.151 HD
ATOM     28  H   UNL     1      -6.888  -9.291  17.291  0.00  0.00    +0.151 HD
BRANCH   7  19
ATOM     19  C   UNL     1      -5.807 -10.795  16.239  0.00  0.00    +0.074 C 
ATOM     21  C   UNL     1      -4.586 -10.454  17.102  0.00  0.00    +0.022 C 
ATOM     22  C   UNL     1      -6.306 -12.216  16.520  0.00  0.00    +0.022 C 
ATOM     23  C   UNL     1      -4.832 -10.708  18.588  0.00  0.00    +0.002 C 
ATOM     24  C   UNL     1      -6.548 -12.468  18.008  0.00  0.00    +0.002 C 
ATOM     25  C   UNL     1      -5.317 -12.133  18.844  0.00  0.00    +0.000 C 
ENDBRANCH   7  19
ENDBRANCH  10   6
BRANCH   8   5
ATOM      5  N   UNL     1     -11.507  -9.564  17.811  0.00  0.00    -0.293 NA
ATOM     14  C   UNL     1     -10.998 -10.925  17.586  0.00  0.00    +0.085 C 
ATOM     15  C   UNL     1     -12.538  -9.547  18.856  0.00  0.00    +0.085 C 
ATOM     16  C   UNL     1     -10.402 -11.508  18.869  0.00  0.00    +0.015 C 
ATOM     17  C   UNL     1     -11.991 -10.085  20.180  0.00  0.00    +0.015 C 
ATOM     18  C   UNL     1     -11.410 -11.484  20.011  0.00  0.00    +0.002 C 
ENDBRANCH   8   5
BRANCH   9   3
ATOM      3  O   UNL     1     -11.861  -9.386  14.194  0.00  0.00    -0.388 OA
ATOM     27  H   UNL     1     -12.756  -9.076  14.413  0.00  0.00    +0.210 HD
ENDBRANCH   9   3
TORSDOF 4
ENDMDL
