MODEL 1
REMARK VINA RESULT:      -5.5      0.000      0.000
REMARK  Name = 75367736
REMARK  5 active torsions:
REMARK  status: ('A' for Active; 'I' for Inactive)
REMARK    1  A    between atoms: O_2  and  C_7
REMARK    2  A    between atoms: O_2  and  C_14
REMARK    3  A    between atoms: N_3  and  C_9
REMARK    4  A    between atoms: N_4  and  C_15
REMARK    5  A    between atoms: C_9  and  C_12
REMARK                            x       y       z     vdW  Elec       q    Type
REMARK                         _______ _______ _______ _____ _____    ______ ____
ROOT
ATOM      1  O   UNL     1      10.698   8.171  22.791  0.00  0.00    -0.376 OA
ATOM      3  N   UNL     1      11.885   8.014  19.911  0.00  0.00    -0.291 NA
ATOM      6  C   UNL     1      12.513   9.266  20.348  0.00  0.00    +0.118 C 
ATOM      7  C   UNL     1      12.252   9.734  21.789  0.00  0.00    +0.157 C 
ATOM      8  C   UNL     1      11.823   6.977  20.942  0.00  0.00    +0.113 C 
ATOM     10  C   UNL     1      10.830   9.493  22.279  0.00  0.00    +0.192 C 
ATOM     11  C   UNL     1      10.568   7.165  21.796  0.00  0.00    +0.175 C 
ENDROOT
BRANCH   7   2
ATOM      2  O   UNL     1      12.508  11.137  21.853  0.00  0.00    -0.376 OA
ATOM     14  C   UNL     1      11.301  11.879  21.922  0.00  0.00    +0.194 C 
ENDBRANCH   7   2
BRANCH   3   9
ATOM      9  C   UNL     1      12.536   7.522  18.695  0.00  0.00    +0.159 C 
BRANCH   9  12
ATOM      4  N   UNL     1      12.814   9.041  16.710  0.00  0.00    -0.336 N 
ATOM      5  N   UNL     1      10.804   8.135  16.978  0.00  0.00    -0.239 NA
ATOM     12  C   UNL     1      12.023   8.220  17.464  0.00  0.00    +0.124 A 
ATOM     13  C   UNL     1      12.050   9.509  15.677  0.00  0.00    +0.106 A 
ATOM     15  C   UNL     1      14.201   9.366  16.944  0.00  0.00    +0.150 C 
ATOM     16  C   UNL     1      10.815   8.937  15.865  0.00  0.00    +0.130 A 
ENDBRANCH   9  12
ENDBRANCH   3   9
TORSDOF 3
ENDMDL
MODEL 2
REMARK VINA RESULT:      -4.8     15.361     17.594
REMARK  Name = 75367736
REMARK  5 active torsions:
REMARK  status: ('A' for Active; 'I' for Inactive)
REMARK    1  A    between atoms: O_2  and  C_7
REMARK    2  A    between atoms: O_2  and  C_14
REMARK    3  A    between atoms: N_3  and  C_9
REMARK    4  A    between atoms: N_4  and  C_15
REMARK    5  A    between atoms: C_9  and  C_12
REMARK                            x       y       z     vdW  Elec       q    Type
REMARK                         _______ _______ _______ _____ _____    ______ ____
ROOT
ATOM      1  O   UNL     1      -1.597  -2.194  24.972  0.00  0.00    -0.376 OA
ATOM      3  N   UNL     1      -2.397   0.682  24.068  0.00  0.00    -0.291 NA
ATOM      6  C   UNL     1      -1.009   0.672  23.594  0.00  0.00    +0.118 C 
ATOM      7  C   UNL     1      -0.198  -0.621  23.777  0.00  0.00    +0.157 C 
ATOM      8  C   UNL     1      -3.111  -0.581  23.871  0.00  0.00    +0.113 C 
ATOM     10  C   UNL     1      -0.460  -1.345  25.091  0.00  0.00    +0.192 C 
ATOM     11  C   UNL     1      -2.845  -1.520  25.049  0.00  0.00    +0.175 C 
ENDROOT
BRANCH   7   2
ATOM      2  O   UNL     1       1.189  -0.285  23.729  0.00  0.00    -0.376 OA
ATOM     14  C   UNL     1       1.638  -0.140  22.391  0.00  0.00    +0.194 C 
ENDBRANCH   7   2
BRANCH   3   9
ATOM      9  C   UNL     1      -3.124   1.806  23.475  0.00  0.00    +0.159 C 
BRANCH   9  12
ATOM      4  N   UNL     1      -3.672   3.475  25.276  0.00  0.00    -0.336 N 
ATOM      5  N   UNL     1      -5.320   2.120  24.659  0.00  0.00    -0.239 NA
ATOM     12  C   UNL     1      -4.062   2.448  24.461  0.00  0.00    +0.124 A 
ATOM     13  C   UNL     1      -4.750   3.822  26.041  0.00  0.00    +0.106 A 
ATOM     15  C   UNL     1      -2.368   4.090  25.331  0.00  0.00    +0.150 C 
ATOM     16  C   UNL     1      -5.754   2.973  25.642  0.00  0.00    +0.130 A 
ENDBRANCH   9  12
ENDBRANCH   3   9
TORSDOF 3
ENDMDL
MODEL 3
REMARK VINA RESULT:      -4.8      3.013      5.625
REMARK  Name = 75367736
REMARK  5 active torsions:
REMARK  status: ('A' for Active; 'I' for Inactive)
REMARK    1  A    between atoms: O_2  and  C_7
REMARK    2  A    between atoms: O_2  and  C_14
REMARK    3  A    between atoms: N_3  and  C_9
REMARK    4  A    between atoms: N_4  and  C_15
REMARK    5  A    between atoms: C_9  and  C_12
REMARK                            x       y       z     vdW  Elec       q    Type
REMARK                         _______ _______ _______ _____ _____    ______ ____
ROOT
ATOM      1  O   UNL     1      11.805   6.439  20.456  0.00  0.00    -0.376 OA
ATOM      3  N   UNL     1      12.038   9.454  21.220  0.00  0.00    -0.291 NA
ATOM      6  C   UNL     1      13.181   9.362  20.306  0.00  0.00    +0.118 C 
ATOM      7  C   UNL     1      13.435   8.016  19.609  0.00  0.00    +0.157 C 
ATOM      8  C   UNL     1      10.860   8.698  20.793  0.00  0.00    +0.113 C 
ATOM     10  C   UNL     1      13.182   6.797  20.486  0.00  0.00    +0.192 C 
ATOM     11  C   UNL     1      10.968   7.248  21.270  0.00  0.00    +0.175 C 
ENDROOT
BRANCH   7   2
ATOM      2  O   UNL     1      14.800   7.983  19.192  0.00  0.00    -0.376 OA
ATOM     14  C   UNL     1      15.369   6.698  19.390  0.00  0.00    +0.194 C 
ENDBRANCH   7   2
BRANCH   3   9
ATOM      9  C   UNL     1      11.710  10.857  21.477  0.00  0.00    +0.159 C 
BRANCH   9  12
ATOM      4  N   UNL     1      12.831  11.674  23.575  0.00  0.00    -0.336 N 
ATOM      5  N   UNL     1      10.718  11.021  23.782  0.00  0.00    -0.239 NA
ATOM     12  C   UNL     1      11.723  11.175  22.948  0.00  0.00    +0.124 A 
ATOM     13  C   UNL     1      12.511  11.849  24.893  0.00  0.00    +0.106 A 
ATOM     15  C   UNL     1      14.109  11.969  22.974  0.00  0.00    +0.150 C 
ATOM     16  C   UNL     1      11.203  11.439  24.996  0.00  0.00    +0.130 A 
ENDBRANCH   9  12
ENDBRANCH   3   9
TORSDOF 3
ENDMDL
MODEL 4
REMARK VINA RESULT:      -4.7      2.617      5.388
REMARK  Name = 75367736
REMARK  5 active torsions:
REMARK  status: ('A' for Active; 'I' for Inactive)
REMARK    1  A    between atoms: O_2  and  C_7
REMARK    2  A    between atoms: O_2  and  C_14
REMARK    3  A    between atoms: N_3  and  C_9
REMARK    4  A    between atoms: N_4  and  C_15
REMARK    5  A    between atoms: C_9  and  C_12
REMARK                            x       y       z     vdW  Elec       q    Type
REMARK                         _______ _______ _______ _____ _____    ______ ____
ROOT
ATOM      1  O   UNL     1      14.235   9.970  16.716  0.00  0.00    -0.376 OA
ATOM      3  N   UNL     1      13.412   9.179  19.618  0.00  0.00    -0.291 NA
ATOM      6  C   UNL     1      12.458   8.348  18.877  0.00  0.00    +0.118 C 
ATOM      7  C   UNL     1      12.533   8.366  17.342  0.00  0.00    +0.157 C 
ATOM      8  C   UNL     1      14.747   9.244  19.022  0.00  0.00    +0.113 C 
ATOM     10  C   UNL     1      12.831   9.735  16.744  0.00  0.00    +0.192 C 
ATOM     11  C   UNL     1      14.793  10.350  17.965  0.00  0.00    +0.175 C 
ENDROOT
BRANCH   7   2
ATOM      2  O   UNL     1      11.273   7.927  16.831  0.00  0.00    -0.376 OA
ATOM     14  C   UNL     1      10.676   8.918  16.010  0.00  0.00    +0.194 C 
ENDBRANCH   7   2
BRANCH   3   9
ATOM      9  C   UNL     1      13.471   8.752  21.017  0.00  0.00    +0.159 C 
BRANCH   9  12
ATOM      4  N   UNL     1      11.179   8.275  21.937  0.00  0.00    -0.336 N 
ATOM      5  N   UNL     1      12.318   6.524  21.181  0.00  0.00    -0.239 NA
ATOM     12  C   UNL     1      12.338   7.825  21.368  0.00  0.00    +0.124 A 
ATOM     13  C   UNL     1      10.368   7.191  22.125  0.00  0.00    +0.106 A 
ATOM     15  C   UNL     1      10.853   9.638  22.281  0.00  0.00    +0.150 C 
ATOM     16  C   UNL     1      11.092   6.123  21.652  0.00  0.00    +0.130 A 
ENDBRANCH   9  12
ENDBRANCH   3   9
TORSDOF 3
ENDMDL
MODEL 5
REMARK VINA RESULT:      -4.7     28.886     30.116
REMARK  Name = 75367736
REMARK  5 active torsions:
REMARK  status: ('A' for Active; 'I' for Inactive)
REMARK    1  A    between atoms: O_2  and  C_7
REMARK    2  A    between atoms: O_2  and  C_14
REMARK    3  A    between atoms: N_3  and  C_9
REMARK    4  A    between atoms: N_4  and  C_15
REMARK    5  A    between atoms: C_9  and  C_12
REMARK                            x       y       z     vdW  Elec       q    Type
REMARK                         _______ _______ _______ _____ _____    ______ ____
ROOT
ATOM      1  O   UNL     1     -16.581   1.936  28.717  0.00  0.00    -0.376 OA
ATOM      3  N   UNL     1     -14.340   2.643  30.768  0.00  0.00    -0.291 NA
ATOM      6  C   UNL     1     -13.929   1.273  30.445  0.00  0.00    +0.118 C 
ATOM      7  C   UNL     1     -14.741   0.511  29.385  0.00  0.00    +0.157 C 
ATOM      8  C   UNL     1     -14.821   3.416  29.622  0.00  0.00    +0.113 C 
ATOM     10  C   UNL     1     -16.242   0.761  29.446  0.00  0.00    +0.192 C 
ATOM     11  C   UNL     1     -16.312   3.151  29.401  0.00  0.00    +0.175 C 
ENDROOT
BRANCH   7   2
ATOM      2  O   UNL     1     -14.518  -0.886  29.575  0.00  0.00    -0.376 OA
ATOM     14  C   UNL     1     -13.197  -1.252  29.210  0.00  0.00    +0.194 C 
ENDBRANCH   7   2
BRANCH   3   9
ATOM      9  C   UNL     1     -13.262   3.341  31.470  0.00  0.00    +0.159 C 
BRANCH   9  12
ATOM      4  N   UNL     1     -14.363   3.593  33.718  0.00  0.00    -0.336 N 
ATOM      5  N   UNL     1     -13.747   5.474  32.710  0.00  0.00    -0.239 NA
ATOM     12  C   UNL     1     -13.782   4.163  32.619  0.00  0.00    +0.124 A 
ATOM     13  C   UNL     1     -14.721   4.606  34.563  0.00  0.00    +0.106 A 
ATOM     15  C   UNL     1     -14.569   2.184  33.959  0.00  0.00    +0.150 C 
ATOM     16  C   UNL     1     -14.331   5.756  33.920  0.00  0.00    +0.130 A 
ENDBRANCH   9  12
ENDBRANCH   3   9
TORSDOF 3
ENDMDL
MODEL 6
REMARK VINA RESULT:      -4.7      2.016      3.541
REMARK  Name = 75367736
REMARK  5 active torsions:
REMARK  status: ('A' for Active; 'I' for Inactive)
REMARK    1  A    between atoms: O_2  and  C_7
REMARK    2  A    between atoms: O_2  and  C_14
REMARK    3  A    between atoms: N_3  and  C_9
REMARK    4  A    between atoms: N_4  and  C_15
REMARK    5  A    between atoms: C_9  and  C_12
REMARK                            x       y       z     vdW  Elec       q    Type
REMARK                         _______ _______ _______ _____ _____    ______ ____
ROOT
ATOM      1  O   UNL     1      13.006  12.406  22.404  0.00  0.00    -0.376 OA
ATOM      3  N   UNL     1      11.576   9.677  21.919  0.00  0.00    -0.291 NA
ATOM      6  C   UNL     1      10.752  10.173  23.027  0.00  0.00    +0.118 C 
ATOM      7  C   UNL     1      11.063  11.572  23.582  0.00  0.00    +0.157 C 
ATOM      8  C   UNL     1      11.963  10.703  20.949  0.00  0.00    +0.113 C 
ATOM     10  C   UNL     1      12.547  11.903  23.655  0.00  0.00    +0.192 C 
ATOM     11  C   UNL     1      13.236  11.411  21.418  0.00  0.00    +0.175 C 
ENDROOT
BRANCH   7   2
ATOM      2  O   UNL     1      10.528  11.654  24.903  0.00  0.00    -0.376 OA
ATOM     14  C   UNL     1      10.755  12.933  25.473  0.00  0.00    +0.194 C 
ENDBRANCH   7   2
BRANCH   3   9
ATOM      9  C   UNL     1      10.916   8.545  21.267  0.00  0.00    +0.159 C 
BRANCH   9  12
ATOM      4  N   UNL     1      12.763   7.565  19.869  0.00  0.00    -0.336 N 
ATOM      5  N   UNL     1      11.068   8.473  18.758  0.00  0.00    -0.239 NA
ATOM     12  C   UNL     1      11.558   8.207  19.948  0.00  0.00    +0.124 A 
ATOM     13  C   UNL     1      13.058   7.412  18.543  0.00  0.00    +0.106 A 
ATOM     15  C   UNL     1      13.585   7.122  20.970  0.00  0.00    +0.150 C 
ATOM     16  C   UNL     1      11.998   7.980  17.878  0.00  0.00    +0.130 A 
ENDBRANCH   9  12
ENDBRANCH   3   9
TORSDOF 3
ENDMDL
MODEL 7
REMARK VINA RESULT:      -4.6      2.584      5.274
REMARK  Name = 75367736
REMARK  5 active torsions:
REMARK  status: ('A' for Active; 'I' for Inactive)
REMARK    1  A    between atoms: O_2  and  C_7
REMARK    2  A    between atoms: O_2  and  C_14
REMARK    3  A    between atoms: N_3  and  C_9
REMARK    4  A    between atoms: N_4  and  C_15
REMARK    5  A    between atoms: C_9  and  C_12
REMARK                            x       y       z     vdW  Elec       q    Type
REMARK                         _______ _______ _______ _____ _____    ______ ____
ROOT
ATOM      1  O   UNL     1      11.660   6.293  20.156  0.00  0.00    -0.376 OA
ATOM      3  N   UNL     1      11.608   8.976  21.745  0.00  0.00    -0.291 NA
ATOM      6  C   UNL     1      11.717   9.518  20.386  0.00  0.00    +0.118 C 
ATOM      7  C   UNL     1      11.718   8.522  19.215  0.00  0.00    +0.157 C 
ATOM      8  C   UNL     1      10.724   7.815  21.863  0.00  0.00    +0.113 C 
ATOM     10  C   UNL     1      12.488   7.237  19.485  0.00  0.00    +0.192 C 
ATOM     11  C   UNL     1      11.499   6.535  21.546  0.00  0.00    +0.175 C 
ENDROOT
BRANCH   7   2
ATOM      2  O   UNL     1      12.314   9.165  18.087  0.00  0.00    -0.376 OA
ATOM     14  C   UNL     1      11.649   8.815  16.884  0.00  0.00    +0.194 C 
ENDBRANCH   7   2
BRANCH   3   9
ATOM      9  C   UNL     1      11.228  10.036  22.681  0.00  0.00    +0.159 C 
BRANCH   9  12
ATOM      4  N   UNL     1      12.087  12.392  22.482  0.00  0.00    -0.336 N 
ATOM      5  N   UNL     1      13.532  10.880  23.229  0.00  0.00    -0.239 NA
ATOM     12  C   UNL     1      12.303  11.081  22.808  0.00  0.00    +0.124 A 
ATOM     13  C   UNL     1      13.253  13.068  22.710  0.00  0.00    +0.106 A 
ATOM     15  C   UNL     1      10.861  12.972  21.988  0.00  0.00    +0.150 C 
ATOM     16  C   UNL     1      14.129  12.114  23.170  0.00  0.00    +0.130 A 
ENDBRANCH   9  12
ENDBRANCH   3   9
TORSDOF 3
ENDMDL
MODEL 8
REMARK VINA RESULT:      -4.4     28.854     30.143
REMARK  Name = 75367736
REMARK  5 active torsions:
REMARK  status: ('A' for Active; 'I' for Inactive)
REMARK    1  A    between atoms: O_2  and  C_7
REMARK    2  A    between atoms: O_2  and  C_14
REMARK    3  A    between atoms: N_3  and  C_9
REMARK    4  A    between atoms: N_4  and  C_15
REMARK    5  A    between atoms: C_9  and  C_12
REMARK                            x       y       z     vdW  Elec       q    Type
REMARK                         _______ _______ _______ _____ _____    ______ ____
ROOT
ATOM      1  O   UNL     1     -17.212   1.531  24.269  0.00  0.00    -0.376 OA
ATOM      3  N   UNL     1     -16.700   1.837  27.330  0.00  0.00    -0.291 NA
ATOM      6  C   UNL     1     -16.751   3.257  26.965  0.00  0.00    +0.118 C 
ATOM      7  C   UNL     1     -17.054   3.609  25.500  0.00  0.00    +0.157 C 
ATOM      8  C   UNL     1     -17.679   1.000  26.637  0.00  0.00    +0.113 C 
ATOM     10  C   UNL     1     -16.402   2.681  24.483  0.00  0.00    +0.192 C 
ATOM     11  C   UNL     1     -17.117   0.546  25.288  0.00  0.00    +0.175 C 
ENDROOT
BRANCH   7   2
ATOM      2  O   UNL     1     -16.579   4.934  25.255  0.00  0.00    -0.376 OA
ATOM     14  C   UNL     1     -15.994   5.042  23.967  0.00  0.00    +0.194 C 
ENDBRANCH   7   2
BRANCH   3   9
ATOM      9  C   UNL     1     -16.799   1.688  28.783  0.00  0.00    +0.159 C 
BRANCH   9  12
ATOM      4  N   UNL     1     -14.602   1.922  29.986  0.00  0.00    -0.336 N 
ATOM      5  N   UNL     1     -15.176  -0.137  29.383  0.00  0.00    -0.239 NA
ATOM     12  C   UNL     1     -15.534   1.128  29.376  0.00  0.00    +0.124 A 
ATOM     13  C   UNL     1     -13.587   1.110  30.409  0.00  0.00    +0.106 A 
ATOM     15  C   UNL     1     -14.663   3.353  30.162  0.00  0.00    +0.150 C 
ATOM     16  C   UNL     1     -13.964  -0.155  30.025  0.00  0.00    +0.130 A 
ENDBRANCH   9  12
ENDBRANCH   3   9
TORSDOF 3
ENDMDL
MODEL 9
REMARK VINA RESULT:      -4.4      2.614      5.309
REMARK  Name = 75367736
REMARK  5 active torsions:
REMARK  status: ('A' for Active; 'I' for Inactive)
REMARK    1  A    between atoms: O_2  and  C_7
REMARK    2  A    between atoms: O_2  and  C_14
REMARK    3  A    between atoms: N_3  and  C_9
REMARK    4  A    between atoms: N_4  and  C_15
REMARK    5  A    between atoms: C_9  and  C_12
REMARK                            x       y       z     vdW  Elec       q    Type
REMARK                         _______ _______ _______ _____ _____    ______ ____
ROOT
ATOM      1  O   UNL     1      13.385   7.627  16.941  0.00  0.00    -0.376 OA
ATOM      3  N   UNL     1      13.532   9.767  19.205  0.00  0.00    -0.291 NA
ATOM      6  C   UNL     1      13.040   8.632  19.995  0.00  0.00    +0.118 C 
ATOM      7  C   UNL     1      12.863   7.284  19.279  0.00  0.00    +0.157 C 
ATOM      8  C   UNL     1      14.537   9.413  18.202  0.00  0.00    +0.113 C 
ATOM     10  C   UNL     1      12.324   7.392  17.859  0.00  0.00    +0.192 C 
ATOM     11  C   UNL     1      13.850   8.969  16.909  0.00  0.00    +0.175 C 
ENDROOT
BRANCH   7   2
ATOM      2  O   UNL     1      11.947   6.495  20.040  0.00  0.00    -0.376 OA
ATOM     14  C   UNL     1      11.857   6.957  21.378  0.00  0.00    +0.194 C 
ENDBRANCH   7   2
BRANCH   3   9
ATOM      9  C   UNL     1      14.010  10.828  20.092  0.00  0.00    +0.159 C 
BRANCH   9  12
ATOM      4  N   UNL     1      13.366  10.839  22.524  0.00  0.00    -0.336 N 
ATOM      5  N   UNL     1      11.831  11.578  21.099  0.00  0.00    -0.239 NA
ATOM     12  C   UNL     1      13.047  11.093  21.219  0.00  0.00    +0.124 A 
ATOM     13  C   UNL     1      12.284  11.186  23.284  0.00  0.00    +0.106 A 
ATOM     15  C   UNL     1      14.610  10.306  23.026  0.00  0.00    +0.150 C 
ATOM     16  C   UNL     1      11.350  11.638  22.383  0.00  0.00    +0.130 A 
ENDBRANCH   9  12
ENDBRANCH   3   9
TORSDOF 3
ENDMDL
MODEL 10
REMARK VINA RESULT:      -4.3      2.868      4.976
REMARK  Name = 75367736
REMARK  5 active torsions:
REMARK  status: ('A' for Active; 'I' for Inactive)
REMARK    1  A    between atoms: O_2  and  C_7
REMARK    2  A    between atoms: O_2  and  C_14
REMARK    3  A    between atoms: N_3  and  C_9
REMARK    4  A    between atoms: N_4  and  C_15
REMARK    5  A    between atoms: C_9  and  C_12
REMARK                            x       y       z     vdW  Elec       q    Type
REMARK                         _______ _______ _______ _____ _____    ______ ____
ROOT
ATOM      1  O   UNL     1      13.683  10.158  15.695  0.00  0.00    -0.376 OA
ATOM      3  N   UNL     1      14.517   8.396  18.130  0.00  0.00    -0.291 NA
ATOM      6  C   UNL     1      14.022   9.570  18.857  0.00  0.00    +0.118 C 
ATOM      7  C   UNL     1      13.429  10.725  18.035  0.00  0.00    +0.157 C 
ATOM      8  C   UNL     1      13.721   8.033  16.956  0.00  0.00    +0.113 C 
ATOM     10  C   UNL     1      14.163  11.009  16.731  0.00  0.00    +0.192 C 
ATOM     11  C   UNL     1      14.191   8.832  15.739  0.00  0.00    +0.175 C 
ENDROOT
BRANCH   7   2
ATOM      2  O   UNL     1      13.477  11.908  18.833  0.00  0.00    -0.376 OA
ATOM     14  C   UNL     1      13.792  13.047  18.049  0.00  0.00    +0.194 C 
ENDBRANCH   7   2
BRANCH   3   9
ATOM      9  C   UNL     1      14.669   7.264  19.045  0.00  0.00    +0.159 C 
BRANCH   9  12
ATOM      4  N   UNL     1      13.563   7.399  21.301  0.00  0.00    -0.336 N 
ATOM      5  N   UNL     1      12.278   6.735  19.615  0.00  0.00    -0.239 NA
ATOM     12  C   UNL     1      13.484   7.123  19.963  0.00  0.00    +0.124 A 
ATOM     13  C   UNL     1      12.327   7.172  21.838  0.00  0.00    +0.106 A 
ATOM     15  C   UNL     1      14.727   7.848  22.027  0.00  0.00    +0.150 C 
ATOM     16  C   UNL     1      11.552   6.763  20.780  0.00  0.00    +0.130 A 
ENDBRANCH   9  12
ENDBRANCH   3   9
TORSDOF 3
ENDMDL
