MODEL 1
REMARK VINA RESULT:      -6.9      0.000      0.000
REMARK  Name = 11912908
REMARK  5 active torsions:
REMARK  status: ('A' for Active; 'I' for Inactive)
REMARK    1  A    between atoms: N_4  and  C_10
REMARK    2  A    between atoms: N_4  and  C_15
REMARK    3  A    between atoms: N_5  and  C_11
REMARK    4  A    between atoms: C_14  and  C_15
REMARK    5  A    between atoms: C_22  and  C_25
REMARK                            x       y       z     vdW  Elec       q    Type
REMARK                         _______ _______ _______ _____ _____    ______ ____
ROOT
ATOM      2  O   UNL     1      -2.750 -12.812  12.601  0.00  0.00    -0.370 OA
ATOM      3  O   UNL     1      -1.699  -9.902  12.804  0.00  0.00    -0.370 OA
ATOM      8  C   UNL     1      -2.581 -10.679  13.634  0.00  0.00    +0.168 C 
ATOM      9  C   UNL     1      -3.419 -11.543  12.712  0.00  0.00    +0.171 C 
ATOM     10  C   UNL     1      -1.789 -11.673  14.455  0.00  0.00    +0.111 C 
ATOM     11  C   UNL     1      -3.376 -10.815  11.388  0.00  0.00    +0.130 C 
ATOM     12  C   UNL     1      -1.607 -12.817  13.470  0.00  0.00    +0.181 C 
ATOM     13  C   UNL     1      -2.017 -10.139  11.425  0.00  0.00    +0.185 C 
ENDROOT
BRANCH  11   5
ATOM      5  N   UNL     1      -4.429  -9.824  11.333  0.00  0.00    -0.306 N 
ATOM      6  N   UNL     1      -4.912 -10.300   9.087  0.00  0.00    -0.214 NA
ATOM      7  N   UNL     1      -6.145  -8.614  10.288  0.00  0.00    -0.223 NA
ATOM     21  C   UNL     1      -5.184  -9.571  10.202  0.00  0.00    +0.216 A 
ATOM     22  C   UNL     1      -5.668 -10.027   8.003  0.00  0.00    +0.083 A 
ATOM     23  C   UNL     1      -6.863  -8.393   9.167  0.00  0.00    +0.116 A 
ATOM     24  C   UNL     1      -6.667  -9.076   7.985  0.00  0.00    +0.049 A 
ATOM     30  H   UNL     1      -4.675  -9.314  12.174  0.00  0.00    +0.149 HD
BRANCH  22  25
ATOM      1  S   UNL     1      -6.274 -10.584   5.409  0.00  0.00    -0.095 S 
ATOM     25  C   UNL     1      -5.355 -10.812   6.839  0.00  0.00    +0.038 A 
ATOM     26  C   UNL     1      -4.379 -11.775   6.670  0.00  0.00    +0.017 A 
ATOM     27  C   UNL     1      -4.389 -12.329   5.358  0.00  0.00    +0.008 A 
ATOM     28  C   UNL     1      -5.370 -11.769   4.568  0.00  0.00    +0.046 A 
ENDBRANCH  22  25
ENDBRANCH  11   5
BRANCH  10   4
ATOM      4  N   UNL     1      -2.571 -12.128  15.602  0.00  0.00    -0.309 NA
ATOM     29  H   UNL     1      -2.029 -12.806  16.140  0.00  0.00    +0.122 HD
BRANCH   4  15
ATOM     15  C   UNL     1      -2.937 -11.009  16.457  0.00  0.00    +0.084 C 
BRANCH  15  14
ATOM     14  C   UNL     1      -4.276 -11.256  17.147  0.00  0.00    +0.003 C 
ATOM     16  C   UNL     1      -5.211 -10.053  16.963  0.00  0.00    +0.005 C 
ATOM     17  C   UNL     1      -4.069 -11.564  18.637  0.00  0.00    +0.005 C 
ATOM     18  C   UNL     1      -6.538 -10.255  17.691  0.00  0.00    +0.000 C 
ATOM     19  C   UNL     1      -5.398 -11.764  19.361  0.00  0.00    +0.000 C 
ATOM     20  C   UNL     1      -6.329 -10.569  19.168  0.00  0.00    +0.000 C 
ENDBRANCH  15  14
ENDBRANCH   4  15
ENDBRANCH  10   4
TORSDOF 5
ENDMDL
MODEL 2
REMARK VINA RESULT:      -6.7      4.066      7.012
REMARK  Name = 11912908
REMARK  5 active torsions:
REMARK  status: ('A' for Active; 'I' for Inactive)
REMARK    1  A    between atoms: N_4  and  C_10
REMARK    2  A    between atoms: N_4  and  C_15
REMARK    3  A    between atoms: N_5  and  C_11
REMARK    4  A    between atoms: C_14  and  C_15
REMARK    5  A    between atoms: C_22  and  C_25
REMARK                            x       y       z     vdW  Elec       q    Type
REMARK                         _______ _______ _______ _____ _____    ______ ____
ROOT
ATOM      2  O   UNL     1      -7.400 -11.369  15.985  0.00  0.00    -0.370 OA
ATOM      3  O   UNL     1      -6.459 -11.760  18.913  0.00  0.00    -0.370 OA
ATOM      8  C   UNL     1      -6.655 -10.589  18.101  0.00  0.00    +0.168 C 
ATOM      9  C   UNL     1      -6.222 -10.942  16.692  0.00  0.00    +0.171 C 
ATOM     10  C   UNL     1      -8.131 -10.281  17.970  0.00  0.00    +0.111 C 
ATOM     11  C   UNL     1      -5.278 -12.107  16.879  0.00  0.00    +0.130 C 
ATOM     12  C   UNL     1      -8.543 -11.210  16.839  0.00  0.00    +0.181 C 
ATOM     13  C   UNL     1      -5.822 -12.779  18.127  0.00  0.00    +0.185 C 
ENDROOT
BRANCH  11   5
ATOM      5  N   UNL     1      -3.935 -11.622  17.115  0.00  0.00    -0.306 N 
ATOM      6  N   UNL     1      -3.613 -11.082  14.855  0.00  0.00    -0.214 NA
ATOM      7  N   UNL     1      -1.876 -10.695  16.480  0.00  0.00    -0.223 NA
ATOM     21  C   UNL     1      -3.117 -11.119  16.120  0.00  0.00    +0.216 A 
ATOM     22  C   UNL     1      -2.788 -10.584  13.910  0.00  0.00    +0.083 A 
ATOM     23  C   UNL     1      -1.105 -10.209  15.485  0.00  0.00    +0.116 A 
ATOM     24  C   UNL     1      -1.512 -10.128  14.170  0.00  0.00    +0.049 A 
ATOM     30  H   UNL     1      -3.575 -11.596  18.063  0.00  0.00    +0.149 HD
BRANCH  22  25
ATOM      1  S   UNL     1      -4.928 -11.155  12.329  0.00  0.00    -0.095 S 
ATOM     25  C   UNL     1      -3.340 -10.561  12.582  0.00  0.00    +0.038 A 
ATOM     26  C   UNL     1      -2.769 -10.111  11.407  0.00  0.00    +0.017 A 
ATOM     27  C   UNL     1      -3.644 -10.258  10.292  0.00  0.00    +0.008 A 
ATOM     28  C   UNL     1      -4.853 -10.812  10.653  0.00  0.00    +0.046 A 
ENDBRANCH  22  25
ENDBRANCH  11   5
BRANCH  10   4
ATOM      4  N   UNL     1      -8.331  -8.892  17.567  0.00  0.00    -0.309 NA
ATOM     29  H   UNL     1      -7.967  -8.753  16.623  0.00  0.00    +0.122 HD
BRANCH   4  15
ATOM     15  C   UNL     1      -9.742  -8.541  17.600  0.00  0.00    +0.084 C 
BRANCH  15  14
ATOM     14  C   UNL     1     -10.175  -7.868  16.300  0.00  0.00    +0.003 C 
ATOM     16  C   UNL     1     -10.990  -6.600  16.590  0.00  0.00    +0.005 C 
ATOM     17  C   UNL     1     -10.977  -8.843  15.426  0.00  0.00    +0.005 C 
ATOM     18  C   UNL     1     -11.479  -5.938  15.304  0.00  0.00    +0.000 C 
ATOM     19  C   UNL     1     -11.466  -8.178  14.142  0.00  0.00    +0.000 C 
ATOM     20  C   UNL     1     -12.268  -6.912  14.435  0.00  0.00    +0.000 C 
ENDBRANCH  15  14
ENDBRANCH   4  15
ENDBRANCH  10   4
TORSDOF 5
ENDMDL
MODEL 3
REMARK VINA RESULT:      -6.5      2.799      9.613
REMARK  Name = 11912908
REMARK  5 active torsions:
REMARK  status: ('A' for Active; 'I' for Inactive)
REMARK    1  A    between atoms: N_4  and  C_10
REMARK    2  A    between atoms: N_4  and  C_15
REMARK    3  A    between atoms: N_5  and  C_11
REMARK    4  A    between atoms: C_14  and  C_15
REMARK    5  A    between atoms: C_22  and  C_25
REMARK                            x       y       z     vdW  Elec       q    Type
REMARK                         _______ _______ _______ _____ _____    ______ ____
ROOT
ATOM      2  O   UNL     1      -6.356 -11.151  10.026  0.00  0.00    -0.370 OA
ATOM      3  O   UNL     1      -5.405  -8.391  11.068  0.00  0.00    -0.370 OA
ATOM      8  C   UNL     1      -4.997  -9.205   9.955  0.00  0.00    +0.168 C 
ATOM      9  C   UNL     1      -5.063 -10.650  10.407  0.00  0.00    +0.171 C 
ATOM     10  C   UNL     1      -6.016  -9.118   8.839  0.00  0.00    +0.111 C 
ATOM     11  C   UNL     1      -4.960 -10.568  11.912  0.00  0.00    +0.130 C 
ATOM     12  C   UNL     1      -7.052 -10.138   9.284  0.00  0.00    +0.181 C 
ATOM     13  C   UNL     1      -5.605  -9.228  12.217  0.00  0.00    +0.185 C 
ENDROOT
BRANCH  11   5
ATOM      5  N   UNL     1      -3.570 -10.559  12.314  0.00  0.00    -0.306 N 
ATOM      6  N   UNL     1      -4.114 -10.595  14.596  0.00  0.00    -0.214 NA
ATOM      7  N   UNL     1      -1.816 -10.565  13.872  0.00  0.00    -0.223 NA
ATOM     21  C   UNL     1      -3.154 -10.573  13.633  0.00  0.00    +0.216 A 
ATOM     22  C   UNL     1      -3.673 -10.609  15.871  0.00  0.00    +0.083 A 
ATOM     23  C   UNL     1      -1.446 -10.579  15.170  0.00  0.00    +0.116 A 
ATOM     24  C   UNL     1      -2.338 -10.602  16.221  0.00  0.00    +0.049 A 
ATOM     30  H   UNL     1      -2.847 -10.597  11.604  0.00  0.00    +0.149 HD
BRANCH  22  25
ATOM      1  S   UNL     1      -6.224  -9.905  16.509  0.00  0.00    -0.095 S 
ATOM     25  C   UNL     1      -4.711 -10.630  16.867  0.00  0.00    +0.038 A 
ATOM     26  C   UNL     1      -4.691 -11.170  18.138  0.00  0.00    +0.017 A 
ATOM     27  C   UNL     1      -5.928 -10.984  18.821  0.00  0.00    +0.008 A 
ATOM     28  C   UNL     1      -6.850 -10.312  18.049  0.00  0.00    +0.046 A 
ENDBRANCH  22  25
ENDBRANCH  11   5
BRANCH  10   4
ATOM      4  N   UNL     1      -5.424  -9.536   7.571  0.00  0.00    -0.309 NA
ATOM     29  H   UNL     1      -4.952 -10.433   7.691  0.00  0.00    +0.122 HD
BRANCH   4  15
ATOM     15  C   UNL     1      -6.443  -9.657   6.539  0.00  0.00    +0.084 C 
BRANCH  15  14
ATOM     14  C   UNL     1      -6.251 -10.930   5.720  0.00  0.00    +0.003 C 
ATOM     16  C   UNL     1      -4.780 -11.370   5.735  0.00  0.00    +0.005 C 
ATOM     17  C   UNL     1      -6.745 -10.728   4.280  0.00  0.00    +0.005 C 
ATOM     18  C   UNL     1      -4.554 -12.612   4.878  0.00  0.00    +0.000 C 
ATOM     19  C   UNL     1      -6.516 -11.973   3.425  0.00  0.00    +0.000 C 
ATOM     20  C   UNL     1      -5.054 -12.411   3.451  0.00  0.00    +0.000 C 
ENDBRANCH  15  14
ENDBRANCH   4  15
ENDBRANCH  10   4
TORSDOF 5
ENDMDL
MODEL 4
REMARK VINA RESULT:      -6.4      7.530     11.762
REMARK  Name = 11912908
REMARK  5 active torsions:
REMARK  status: ('A' for Active; 'I' for Inactive)
REMARK    1  A    between atoms: N_4  and  C_10
REMARK    2  A    between atoms: N_4  and  C_15
REMARK    3  A    between atoms: N_5  and  C_11
REMARK    4  A    between atoms: C_14  and  C_15
REMARK    5  A    between atoms: C_22  and  C_25
REMARK                            x       y       z     vdW  Elec       q    Type
REMARK                         _______ _______ _______ _____ _____    ______ ____
ROOT
ATOM      2  O   UNL     1     -12.168  -7.961  14.569  0.00  0.00    -0.370 OA
ATOM      3  O   UNL     1     -10.868  -6.497  16.973  0.00  0.00    -0.370 OA
ATOM      8  C   UNL     1     -10.818  -6.273  15.553  0.00  0.00    +0.168 C 
ATOM      9  C   UNL     1     -10.803  -7.633  14.884  0.00  0.00    +0.171 C 
ATOM     10  C   UNL     1     -12.106  -5.638  15.076  0.00  0.00    +0.111 C 
ATOM     11  C   UNL     1     -10.279  -8.562  15.953  0.00  0.00    +0.130 C 
ATOM     12  C   UNL     1     -13.010  -6.850  14.914  0.00  0.00    +0.181 C 
ATOM     13  C   UNL     1     -10.766  -7.905  17.233  0.00  0.00    +0.185 C 
ENDROOT
BRANCH  11   5
ATOM      5  N   UNL     1      -8.832  -8.588  15.921  0.00  0.00    -0.306 N 
ATOM      6  N   UNL     1      -8.715 -10.277  17.545  0.00  0.00    -0.214 NA
ATOM      7  N   UNL     1      -6.713  -9.354  16.573  0.00  0.00    -0.223 NA
ATOM     21  C   UNL     1      -8.064  -9.431  16.704  0.00  0.00    +0.216 A 
ATOM     22  C   UNL     1      -7.935 -11.086  18.292  0.00  0.00    +0.083 A 
ATOM     23  C   UNL     1      -5.994 -10.191  17.350  0.00  0.00    +0.116 A 
ATOM     24  C   UNL     1      -6.557 -11.087  18.235  0.00  0.00    +0.049 A 
ATOM     30  H   UNL     1      -8.339  -7.999  15.260  0.00  0.00    +0.149 HD
BRANCH  22  25
ATOM      1  S   UNL     1     -10.214 -11.513  19.718  0.00  0.00    -0.095 S 
ATOM     25  C   UNL     1      -8.652 -11.968  19.173  0.00  0.00    +0.038 A 
ATOM     26  C   UNL     1      -8.270 -13.193  19.684  0.00  0.00    +0.017 A 
ATOM     27  C   UNL     1      -9.268 -13.760  20.528  0.00  0.00    +0.008 A 
ATOM     28  C   UNL     1     -10.378 -12.951  20.633  0.00  0.00    +0.046 A 
ENDBRANCH  22  25
ENDBRANCH  11   5
BRANCH  10   4
ATOM      4  N   UNL     1     -11.909  -4.992  13.780  0.00  0.00    -0.309 NA
ATOM     29  H   UNL     1     -11.406  -5.623  13.155  0.00  0.00    +0.122 HD
BRANCH   4  15
ATOM     15  C   UNL     1     -13.186  -4.631  13.182  0.00  0.00    +0.084 C 
BRANCH  15  14
ATOM     14  C   UNL     1     -12.988  -3.801  11.916  0.00  0.00    +0.003 C 
ATOM     16  C   UNL     1     -14.307  -3.669  11.142  0.00  0.00    +0.005 C 
ATOM     17  C   UNL     1     -11.894  -4.415  11.032  0.00  0.00    +0.005 C 
ATOM     18  C   UNL     1     -14.122  -2.888   9.843  0.00  0.00    +0.000 C 
ATOM     19  C   UNL     1     -11.713  -3.632   9.733  0.00  0.00    +0.000 C 
ATOM     20  C   UNL     1     -13.029  -3.496   8.971  0.00  0.00    +0.000 C 
ENDBRANCH  15  14
ENDBRANCH   4  15
ENDBRANCH  10   4
TORSDOF 5
ENDMDL
MODEL 5
REMARK VINA RESULT:      -6.1     23.983     27.717
REMARK  Name = 11912908
REMARK  5 active torsions:
REMARK  status: ('A' for Active; 'I' for Inactive)
REMARK    1  A    between atoms: N_4  and  C_10
REMARK    2  A    between atoms: N_4  and  C_15
REMARK    3  A    between atoms: N_5  and  C_11
REMARK    4  A    between atoms: C_14  and  C_15
REMARK    5  A    between atoms: C_22  and  C_25
REMARK                            x       y       z     vdW  Elec       q    Type
REMARK                         _______ _______ _______ _____ _____    ______ ____
ROOT
ATOM      2  O   UNL     1     -15.397   6.496  31.652  0.00  0.00    -0.370 OA
ATOM      3  O   UNL     1     -15.824   5.466  34.545  0.00  0.00    -0.370 OA
ATOM      8  C   UNL     1     -14.642   5.753  33.778  0.00  0.00    +0.168 C 
ATOM      9  C   UNL     1     -14.921   5.331  32.349  0.00  0.00    +0.171 C 
ATOM     10  C   UNL     1     -14.423   7.247  33.688  0.00  0.00    +0.111 C 
ATOM     11  C   UNL     1     -16.029   4.312  32.477  0.00  0.00    +0.130 C 
ATOM     12  C   UNL     1     -15.338   7.627  32.535  0.00  0.00    +0.181 C 
ATOM     13  C   UNL     1     -16.775   4.786  33.712  0.00  0.00    +0.185 C 
ENDROOT
BRANCH  11   5
ATOM      5  N   UNL     1     -15.470   2.997  32.702  0.00  0.00    -0.306 N 
ATOM      6  N   UNL     1     -15.811   2.349  30.473  0.00  0.00    -0.214 NA
ATOM      7  N   UNL     1     -14.814   0.837  32.062  0.00  0.00    -0.223 NA
ATOM     21  C   UNL     1     -15.362   2.032  31.717  0.00  0.00    +0.216 A 
ATOM     22  C   UNL     1     -15.690   1.385  29.537  0.00  0.00    +0.083 A 
ATOM     23  C   UNL     1     -14.724  -0.081  31.077  0.00  0.00    +0.116 A 
ATOM     24  C   UNL     1     -15.149   0.140  29.784  0.00  0.00    +0.049 A 
ATOM     30  H   UNL     1     -15.084   2.770  33.611  0.00  0.00    +0.149 HD
BRANCH  22  25
ATOM      1  S   UNL     1     -16.163   3.400  27.769  0.00  0.00    -0.095 S 
ATOM     25  C   UNL     1     -16.176   1.748  28.232  0.00  0.00    +0.038 A 
ATOM     26  C   UNL     1     -16.679   0.941  27.231  0.00  0.00    +0.017 A 
ATOM     27  C   UNL     1     -17.057   1.686  26.077  0.00  0.00    +0.008 A 
ATOM     28  C   UNL     1     -16.828   3.036  26.234  0.00  0.00    +0.046 A 
ENDBRANCH  22  25
ENDBRANCH  11   5
BRANCH  10   4
ATOM      4  N   UNL     1     -13.036   7.542  33.335  0.00  0.00    -0.309 NA
ATOM     29  H   UNL     1     -12.694   6.844  32.674  0.00  0.00    +0.122 HD
BRANCH   4  15
ATOM     15  C   UNL     1     -12.922   8.868  32.746  0.00  0.00    +0.084 C 
BRANCH  15  14
ATOM     14  C   UNL     1     -11.797   9.667  33.397  0.00  0.00    +0.003 C 
ATOM     16  C   UNL     1     -10.503   9.549  32.580  0.00  0.00    +0.005 C 
ATOM     17  C   UNL     1     -11.572   9.206  34.844  0.00  0.00    +0.005 C 
ATOM     18  C   UNL     1      -9.348  10.298  33.241  0.00  0.00    +0.000 C 
ATOM     19  C   UNL     1     -10.415   9.956  35.502  0.00  0.00    +0.000 C 
ATOM     20  C   UNL     1      -9.134   9.844  34.681  0.00  0.00    +0.000 C 
ENDBRANCH  15  14
ENDBRANCH   4  15
ENDBRANCH  10   4
TORSDOF 5
ENDMDL
MODEL 6
REMARK VINA RESULT:      -6.1      5.026      7.636
REMARK  Name = 11912908
REMARK  5 active torsions:
REMARK  status: ('A' for Active; 'I' for Inactive)
REMARK    1  A    between atoms: N_4  and  C_10
REMARK    2  A    between atoms: N_4  and  C_15
REMARK    3  A    between atoms: N_5  and  C_11
REMARK    4  A    between atoms: C_14  and  C_15
REMARK    5  A    between atoms: C_22  and  C_25
REMARK                            x       y       z     vdW  Elec       q    Type
REMARK                         _______ _______ _______ _____ _____    ______ ____
ROOT
ATOM      2  O   UNL     1      -8.147 -11.592  16.543  0.00  0.00    -0.370 OA
ATOM      3  O   UNL     1      -6.652 -11.814  19.249  0.00  0.00    -0.370 OA
ATOM      8  C   UNL     1      -7.253 -10.706  18.557  0.00  0.00    +0.168 C 
ATOM      9  C   UNL     1      -6.998 -10.911  17.076  0.00  0.00    +0.171 C 
ATOM     10  C   UNL     1      -8.760 -10.761  18.685  0.00  0.00    +0.111 C 
ATOM     11  C   UNL     1      -5.790 -11.817  17.034  0.00  0.00    +0.130 C 
ATOM     12  C   UNL     1      -9.132 -11.734  17.578  0.00  0.00    +0.181 C 
ATOM     13  C   UNL     1      -5.940 -12.630  18.308  0.00  0.00    +0.185 C 
ENDROOT
BRANCH  11   5
ATOM      5  N   UNL     1      -4.577 -11.028  17.081  0.00  0.00    -0.306 N 
ATOM      6  N   UNL     1      -3.592 -12.236  15.328  0.00  0.00    -0.214 NA
ATOM      7  N   UNL     1      -2.420 -10.419  16.392  0.00  0.00    -0.223 NA
ATOM     21  C   UNL     1      -3.497 -11.235  16.243  0.00  0.00    +0.216 A 
ATOM     22  C   UNL     1      -2.520 -12.408  14.527  0.00  0.00    +0.083 A 
ATOM     23  C   UNL     1      -1.384 -10.648  15.557  0.00  0.00    +0.116 A 
ATOM     24  C   UNL     1      -1.378 -11.636  14.596  0.00  0.00    +0.049 A 
ATOM     30  H   UNL     1      -4.518 -10.246  17.723  0.00  0.00    +0.149 HD
BRANCH  22  25
ATOM      1  S   UNL     1      -3.669 -13.258  12.210  0.00  0.00    -0.095 S 
ATOM     25  C   UNL     1      -2.648 -13.476  13.571  0.00  0.00    +0.038 A 
ATOM     26  C   UNL     1      -2.050 -14.721  13.567  0.00  0.00    +0.017 A 
ATOM     27  C   UNL     1      -2.435 -15.500  12.438  0.00  0.00    +0.008 A 
ATOM     28  C   UNL     1      -3.312 -14.824  11.617  0.00  0.00    +0.046 A 
ENDBRANCH  22  25
ENDBRANCH  11   5
BRANCH  10   4
ATOM      4  N   UNL     1      -9.346  -9.451  18.409  0.00  0.00    -0.309 NA
ATOM     29  H   UNL     1      -8.835  -9.000  17.649  0.00  0.00    +0.122 HD
BRANCH   4  15
ATOM     15  C   UNL     1     -10.749  -9.578  18.044  0.00  0.00    +0.084 C 
BRANCH  15  14
ATOM     14  C   UNL     1     -11.097  -8.673  16.865  0.00  0.00    +0.003 C 
ATOM     16  C   UNL     1     -10.392  -7.316  16.996  0.00  0.00    +0.005 C 
ATOM     17  C   UNL     1     -12.617  -8.490  16.753  0.00  0.00    +0.005 C 
ATOM     18  C   UNL     1     -10.767  -6.373  15.855  0.00  0.00    +0.000 C 
ATOM     19  C   UNL     1     -12.988  -7.545  15.612  0.00  0.00    +0.000 C 
ATOM     20  C   UNL     1     -12.278  -6.200  15.741  0.00  0.00    +0.000 C 
ENDBRANCH  15  14
ENDBRANCH   4  15
ENDBRANCH  10   4
TORSDOF 5
ENDMDL
MODEL 7
REMARK VINA RESULT:      -6.1     27.949     29.520
REMARK  Name = 11912908
REMARK  5 active torsions:
REMARK  status: ('A' for Active; 'I' for Inactive)
REMARK    1  A    between atoms: N_4  and  C_10
REMARK    2  A    between atoms: N_4  and  C_15
REMARK    3  A    between atoms: N_5  and  C_11
REMARK    4  A    between atoms: C_14  and  C_15
REMARK    5  A    between atoms: C_22  and  C_25
REMARK                            x       y       z     vdW  Elec       q    Type
REMARK                         _______ _______ _______ _____ _____    ______ ____
ROOT
ATOM      2  O   UNL     1      11.645   8.986  19.786  0.00  0.00    -0.370 OA
ATOM      3  O   UNL     1      13.436   7.710  21.971  0.00  0.00    -0.370 OA
ATOM      8  C   UNL     1      12.666   8.924  21.930  0.00  0.00    +0.168 C 
ATOM      9  C   UNL     1      12.778   9.478  20.523  0.00  0.00    +0.171 C 
ATOM     10  C   UNL     1      11.193   8.618  22.092  0.00  0.00    +0.111 C 
ATOM     11  C   UNL     1      14.052   8.867  19.988  0.00  0.00    +0.130 C 
ATOM     12  C   UNL     1      10.794   8.244  20.673  0.00  0.00    +0.181 C 
ATOM     13  C   UNL     1      14.114   7.537  20.718  0.00  0.00    +0.185 C 
ENDROOT
BRANCH  11   5
ATOM      5  N   UNL     1      15.186   9.691  20.348  0.00  0.00    -0.306 N 
ATOM      6  N   UNL     1      15.048  10.940  18.366  0.00  0.00    -0.214 NA
ATOM      7  N   UNL     1      16.746  11.409  20.010  0.00  0.00    -0.223 NA
ATOM     21  C   UNL     1      15.675  10.710  19.551  0.00  0.00    +0.216 A 
ATOM     22  C   UNL     1      15.552  11.941  17.615  0.00  0.00    +0.083 A 
ATOM     23  C   UNL     1      17.198  12.396  19.208  0.00  0.00    +0.116 A 
ATOM     24  C   UNL     1      16.635  12.710  17.989  0.00  0.00    +0.049 A 
ATOM     30  H   UNL     1      15.626   9.563  21.252  0.00  0.00    +0.149 HD
BRANCH  22  25
ATOM      1  S   UNL     1      14.496  13.764  15.892  0.00  0.00    -0.095 S 
ATOM     25  C   UNL     1      14.870  12.159  16.367  0.00  0.00    +0.038 A 
ATOM     26  C   UNL     1      14.441  11.236  15.433  0.00  0.00    +0.017 A 
ATOM     27  C   UNL     1      13.801  11.854  14.320  0.00  0.00    +0.008 A 
ATOM     28  C   UNL     1      13.764  13.226  14.441  0.00  0.00    +0.046 A 
ENDBRANCH  22  25
ENDBRANCH  11   5
BRANCH  10   4
ATOM      4  N   UNL     1      10.464   9.813  22.511  0.00  0.00    -0.309 NA
ATOM     29  H   UNL     1       9.497   9.568  22.726  0.00  0.00    +0.122 HD
BRANCH   4  15
ATOM     15  C   UNL     1      11.085  10.414  23.681  0.00  0.00    +0.084 C 
BRANCH  15  14
ATOM     14  C   UNL     1      10.526  11.810  23.948  0.00  0.00    +0.003 C 
ATOM     16  C   UNL     1      10.906  12.772  22.815  0.00  0.00    +0.005 C 
ATOM     17  C   UNL     1      11.016  12.340  25.302  0.00  0.00    +0.005 C 
ATOM     18  C   UNL     1      10.402  14.188  23.085  0.00  0.00    +0.000 C 
ATOM     19  C   UNL     1      10.512  13.757  25.569  0.00  0.00    +0.000 C 
ATOM     20  C   UNL     1      10.884  14.709  24.435  0.00  0.00    +0.000 C 
ENDBRANCH  15  14
ENDBRANCH   4  15
ENDBRANCH  10   4
TORSDOF 5
ENDMDL
MODEL 8
REMARK VINA RESULT:      -6.1     21.116     23.586
REMARK  Name = 11912908
REMARK  5 active torsions:
REMARK  status: ('A' for Active; 'I' for Inactive)
REMARK    1  A    between atoms: N_4  and  C_10
REMARK    2  A    between atoms: N_4  and  C_15
REMARK    3  A    between atoms: N_5  and  C_11
REMARK    4  A    between atoms: C_14  and  C_15
REMARK    5  A    between atoms: C_22  and  C_25
REMARK                            x       y       z     vdW  Elec       q    Type
REMARK                         _______ _______ _______ _____ _____    ______ ____
ROOT
ATOM      2  O   UNL     1     -14.985   7.579  22.442  0.00  0.00    -0.370 OA
ATOM      3  O   UNL     1     -13.155   5.082  22.281  0.00  0.00    -0.370 OA
ATOM      8  C   UNL     1     -13.908   5.803  21.290  0.00  0.00    +0.168 C 
ATOM      9  C   UNL     1     -15.201   6.247  21.944  0.00  0.00    +0.171 C 
ATOM     10  C   UNL     1     -13.207   7.097  20.938  0.00  0.00    +0.111 C 
ATOM     11  C   UNL     1     -15.380   5.285  23.095  0.00  0.00    +0.130 C 
ATOM     12  C   UNL     1     -13.674   8.019  22.053  0.00  0.00    +0.181 C 
ATOM     13  C   UNL     1     -13.948   4.946  23.470  0.00  0.00    +0.185 C 
ENDROOT
BRANCH  11   5
ATOM      5  N   UNL     1     -16.075   4.098  22.644  0.00  0.00    -0.306 N 
ATOM      6  N   UNL     1     -16.318   3.277  24.829  0.00  0.00    -0.214 NA
ATOM      7  N   UNL     1     -17.176   2.048  22.942  0.00  0.00    -0.223 NA
ATOM     21  C   UNL     1     -16.536   3.111  23.497  0.00  0.00    +0.216 A 
ATOM     22  C   UNL     1     -16.783   2.296  25.631  0.00  0.00    +0.083 A 
ATOM     23  C   UNL     1     -17.613   1.105  23.802  0.00  0.00    +0.116 A 
ATOM     24  C   UNL     1     -17.444   1.177  25.169  0.00  0.00    +0.049 A 
ATOM     30  H   UNL     1     -16.288   3.991  21.659  0.00  0.00    +0.149 HD
BRANCH  22  25
ATOM      1  S   UNL     1     -16.602   1.151  28.093  0.00  0.00    -0.095 S 
ATOM     25  C   UNL     1     -16.536   2.498  27.034  0.00  0.00    +0.038 A 
ATOM     26  C   UNL     1     -16.236   3.665  27.709  0.00  0.00    +0.017 A 
ATOM     27  C   UNL     1     -16.060   3.449  29.106  0.00  0.00    +0.008 A 
ATOM     28  C   UNL     1     -16.230   2.126  29.451  0.00  0.00    +0.046 A 
ENDBRANCH  22  25
ENDBRANCH  11   5
BRANCH  10   4
ATOM      4  N   UNL     1     -13.678   7.601  19.650  0.00  0.00    -0.309 NA
ATOM     29  H   UNL     1     -14.681   7.433  19.562  0.00  0.00    +0.122 HD
BRANCH   4  15
ATOM     15  C   UNL     1     -13.411   9.026  19.522  0.00  0.00    +0.084 C 
BRANCH  15  14
ATOM     14  C   UNL     1     -12.479   9.310  18.347  0.00  0.00    +0.003 C 
ATOM     16  C   UNL     1     -12.850   8.440  17.138  0.00  0.00    +0.005 C 
ATOM     17  C   UNL     1     -11.015   9.089  18.750  0.00  0.00    +0.005 C 
ATOM     18  C   UNL     1     -11.898   8.668  15.966  0.00  0.00    +0.000 C 
ATOM     19  C   UNL     1     -10.065   9.316  17.576  0.00  0.00    +0.000 C 
ATOM     20  C   UNL     1     -10.443   8.455  16.373  0.00  0.00    +0.000 C 
ENDBRANCH  15  14
ENDBRANCH   4  15
ENDBRANCH  10   4
TORSDOF 5
ENDMDL
MODEL 9
REMARK VINA RESULT:      -5.9      5.269      9.003
REMARK  Name = 11912908
REMARK  5 active torsions:
REMARK  status: ('A' for Active; 'I' for Inactive)
REMARK    1  A    between atoms: N_4  and  C_10
REMARK    2  A    between atoms: N_4  and  C_15
REMARK    3  A    between atoms: N_5  and  C_11
REMARK    4  A    between atoms: C_14  and  C_15
REMARK    5  A    between atoms: C_22  and  C_25
REMARK                            x       y       z     vdW  Elec       q    Type
REMARK                         _______ _______ _______ _____ _____    ______ ____
ROOT
ATOM      2  O   UNL     1      -9.252  -6.758   6.340  0.00  0.00    -0.370 OA
ATOM      3  O   UNL     1      -9.865  -8.320   8.947  0.00  0.00    -0.370 OA
ATOM      8  C   UNL     1      -9.779  -6.916   8.651  0.00  0.00    +0.168 C 
ATOM      9  C   UNL     1      -8.656  -6.736   7.649  0.00  0.00    +0.171 C 
ATOM     10  C   UNL     1     -11.016  -6.459   7.908  0.00  0.00    +0.111 C 
ATOM     11  C   UNL     1      -7.789  -7.957   7.847  0.00  0.00    +0.130 C 
ATOM     12  C   UNL     1     -10.679  -6.844   6.476  0.00  0.00    +0.181 C 
ATOM     13  C   UNL     1      -8.792  -9.009   8.286  0.00  0.00    +0.185 C 
ENDROOT
BRANCH  11   5
ATOM      5  N   UNL     1      -6.823  -7.715   8.896  0.00  0.00    -0.306 N 
ATOM      6  N   UNL     1      -5.655  -9.696   8.431  0.00  0.00    -0.214 NA
ATOM      7  N   UNL     1      -4.936  -8.220  10.195  0.00  0.00    -0.223 NA
ATOM     21  C   UNL     1      -5.774  -8.569   9.183  0.00  0.00    +0.216 A 
ATOM     22  C   UNL     1      -4.620 -10.505   8.738  0.00  0.00    +0.083 A 
ATOM     23  C   UNL     1      -3.924  -9.076  10.448  0.00  0.00    +0.116 A 
ATOM     24  C   UNL     1      -3.714 -10.243   9.745  0.00  0.00    +0.049 A 
ATOM     30  H   UNL     1      -6.872  -6.852   9.427  0.00  0.00    +0.149 HD
BRANCH  22  25
ATOM      1  S   UNL     1      -4.851 -11.579   6.248  0.00  0.00    -0.095 S 
ATOM     25  C   UNL     1      -4.522 -11.690   7.927  0.00  0.00    +0.038 A 
ATOM     26  C   UNL     1      -4.185 -12.977   8.298  0.00  0.00    +0.017 A 
ATOM     27  C   UNL     1      -4.199 -13.877   7.194  0.00  0.00    +0.008 A 
ATOM     28  C   UNL     1      -4.544 -13.248   6.018  0.00  0.00    +0.046 A 
ENDBRANCH  22  25
ENDBRANCH  11   5
BRANCH  10   4
ATOM      4  N   UNL     1     -11.167  -5.009   8.007  0.00  0.00    -0.309 NA
ATOM     29  H   UNL     1     -12.137  -4.752   7.821  0.00  0.00    +0.122 HD
BRANCH   4  15
ATOM     15  C   UNL     1     -10.784  -4.538   9.329  0.00  0.00    +0.084 C 
BRANCH  15  14
ATOM     14  C   UNL     1     -11.894  -3.703   9.961  0.00  0.00    +0.003 C 
ATOM     16  C   UNL     1     -12.209  -4.202  11.378  0.00  0.00    +0.005 C 
ATOM     17  C   UNL     1     -13.154  -3.722   9.083  0.00  0.00    +0.005 C 
ATOM     18  C   UNL     1     -13.354  -3.416  12.011  0.00  0.00    +0.000 C 
ATOM     19  C   UNL     1     -14.298  -2.937   9.721  0.00  0.00    +0.000 C 
ATOM     20  C   UNL     1     -14.601  -3.430  11.133  0.00  0.00    +0.000 C 
ENDBRANCH  15  14
ENDBRANCH   4  15
ENDBRANCH  10   4
TORSDOF 5
ENDMDL
MODEL 10
REMARK VINA RESULT:      -5.9     31.948     33.562
REMARK  Name = 11912908
REMARK  5 active torsions:
REMARK  status: ('A' for Active; 'I' for Inactive)
REMARK    1  A    between atoms: N_4  and  C_10
REMARK    2  A    between atoms: N_4  and  C_15
REMARK    3  A    between atoms: N_5  and  C_11
REMARK    4  A    between atoms: C_14  and  C_15
REMARK    5  A    between atoms: C_22  and  C_25
REMARK                            x       y       z     vdW  Elec       q    Type
REMARK                         _______ _______ _______ _____ _____    ______ ____
ROOT
ATOM      2  O   UNL     1      -3.178  10.367  38.583  0.00  0.00    -0.370 OA
ATOM      3  O   UNL     1      -1.163  10.130  36.240  0.00  0.00    -0.370 OA
ATOM      8  C   UNL     1      -2.338   9.380  36.593  0.00  0.00    +0.168 C 
ATOM      9  C   UNL     1      -2.368   9.279  38.106  0.00  0.00    +0.171 C 
ATOM     10  C   UNL     1      -3.586  10.164  36.249  0.00  0.00    +0.111 C 
ATOM     11  C   UNL     1      -0.928   9.484  38.515  0.00  0.00    +0.130 C 
ATOM     12  C   UNL     1      -3.726  11.073  37.459  0.00  0.00    +0.181 C 
ATOM     13  C   UNL     1      -0.399  10.399  37.425  0.00  0.00    +0.185 C 
ENDROOT
BRANCH  11   5
ATOM      5  N   UNL     1      -0.223   8.220  38.496  0.00  0.00    -0.306 N 
ATOM      6  N   UNL     1      -1.789   7.198  39.914  0.00  0.00    -0.214 NA
ATOM      7  N   UNL     1       0.109   5.972  39.077  0.00  0.00    -0.223 NA
ATOM     21  C   UNL     1      -0.647   7.097  39.183  0.00  0.00    +0.216 A 
ATOM     22  C   UNL     1      -2.172   6.084  40.570  0.00  0.00    +0.083 A 
ATOM     23  C   UNL     1      -0.333   4.895  39.760  0.00  0.00    +0.116 A 
ATOM     24  C   UNL     1      -1.477   4.892  40.529  0.00  0.00    +0.049 A 
ATOM     30  H   UNL     1       0.599   8.119  37.913  0.00  0.00    +0.149 HD
BRANCH  22  25
ATOM      1  S   UNL     1      -4.299   7.665  41.191  0.00  0.00    -0.095 S 
ATOM     25  C   UNL     1      -3.382   6.222  41.336  0.00  0.00    +0.038 A 
ATOM     26  C   UNL     1      -3.964   5.334  42.220  0.00  0.00    +0.017 A 
ATOM     27  C   UNL     1      -5.170   5.844  42.781  0.00  0.00    +0.008 A 
ATOM     28  C   UNL     1      -5.470   7.103  42.307  0.00  0.00    +0.046 A 
ENDBRANCH  22  25
ENDBRANCH  11   5
BRANCH  10   4
ATOM      4  N   UNL     1      -4.742   9.276  36.161  0.00  0.00    -0.309 NA
ATOM     29  H   UNL     1      -4.642   8.514  36.834  0.00  0.00    +0.122 HD
BRANCH   4  15
ATOM     15  C   UNL     1      -5.974  10.002  36.429  0.00  0.00    +0.084 C 
BRANCH  15  14
ATOM     14  C   UNL     1      -6.948   9.156  37.246  0.00  0.00    +0.003 C 
ATOM     16  C   UNL     1      -8.214   8.850  36.434  0.00  0.00    +0.005 C 
ATOM     17  C   UNL     1      -7.301   9.857  38.565  0.00  0.00    +0.005 C 
ATOM     18  C   UNL     1      -9.226   8.049  37.250  0.00  0.00    +0.000 C 
ATOM     19  C   UNL     1      -8.314   9.055  39.377  0.00  0.00    +0.000 C 
ATOM     20  C   UNL     1      -9.568   8.745  38.563  0.00  0.00    +0.000 C 
ENDBRANCH  15  14
ENDBRANCH   4  15
ENDBRANCH  10   4
TORSDOF 5
ENDMDL
