MODEL 1
REMARK VINA RESULT:      -6.8      0.000      0.000
REMARK  Name = 45783386
REMARK  9 active torsions:
REMARK  status: ('A' for Active; 'I' for Inactive)
REMARK    1  A    between atoms: O_4  and  C_30
REMARK    2  A    between atoms: O_4  and  C_31
REMARK    3  A    between atoms: N_5  and  C_15
REMARK    4  A    between atoms: N_8  and  C_28
REMARK    5  A    between atoms: N_9  and  C_24
REMARK    6  A    between atoms: C_11  and  C_16
REMARK    7  A    between atoms: C_15  and  C_17
REMARK    8  A    between atoms: C_20  and  C_23
REMARK    9  A    between atoms: C_28  and  C_30
REMARK                            x       y       z     vdW  Elec       q    Type
REMARK                         _______ _______ _______ _____ _____    ______ ____
ROOT
ATOM      1  O   UNL     1      14.746   6.706  20.451  0.00  0.00    -0.336 OA
ATOM      6  N   UNL     1      15.532   8.684  19.757  0.00  0.00    -0.190 NA
ATOM      7  N   UNL     1      15.789   7.038  21.324  0.00  0.00    -0.056 NA
ATOM     16  C   UNL     1      14.661   7.727  19.560  0.00  0.00    +0.245 A 
ATOM     20  C   UNL     1      16.202   8.217  20.850  0.00  0.00    +0.205 A 
ENDROOT
BRANCH  20  23
ATOM      8  N   UNL     1      18.675   6.987  21.514  0.00  0.00    -0.326 N 
ATOM     10  N   UNL     1      19.526   9.036  22.336  0.00  0.00    -0.240 NA
ATOM     23  C   UNL     1      17.281   8.952  21.444  0.00  0.00    +0.062 A 
ATOM     25  C   UNL     1      18.493   8.369  21.775  0.00  0.00    +0.130 A 
ATOM     26  C   UNL     1      17.118  10.309  21.707  0.00  0.00    +0.016 A 
ATOM     27  C   UNL     1      18.158  11.029  22.282  0.00  0.00    +0.020 A 
ATOM     29  C   UNL     1      19.332  10.352  22.575  0.00  0.00    +0.113 A 
ATOM     32  H   UNL     1      18.083   6.585  20.796  0.00  0.00    +0.148 HD
BRANCH   8  28
ATOM     28  C   UNL     1      19.887   6.300  21.820  0.00  0.00    +0.131 C 
BRANCH  28  30
ATOM     30  C   UNL     1      20.511   5.755  20.546  0.00  0.00    +0.178 C 
BRANCH  30   4
ATOM      4  O   UNL     1      21.799   6.330  20.368  0.00  0.00    -0.381 OA
ATOM     31  C   UNL     1      22.824   5.352  20.473  0.00  0.00    +0.194 C 
ENDBRANCH  30   4
ENDBRANCH  28  30
ENDBRANCH   8  28
ENDBRANCH  20  23
BRANCH  16  11
ATOM      5  N   UNL     1      12.472   8.547  18.706  0.00  0.00    -0.287 NA
ATOM     11  C   UNL     1      13.592   7.607  18.495  0.00  0.00    +0.146 C 
ATOM     12  C   UNL     1      14.117   7.935  17.085  0.00  0.00    +0.030 C 
ATOM     13  C   UNL     1      13.195   9.026  16.560  0.00  0.00    +0.017 C 
ATOM     14  C   UNL     1      11.933   8.850  17.379  0.00  0.00    +0.085 C 
BRANCH   5  15
ATOM     15  C   UNL     1      11.452   8.031  19.608  0.00  0.00    +0.120 C 
BRANCH  15  17
ATOM     17  C   UNL     1      11.296   8.895  20.831  0.00  0.00    -0.033 A 
ATOM     18  C   UNL     1      10.720   8.369  21.988  0.00  0.00    +0.007 A 
ATOM     19  C   UNL     1      11.728  10.221  20.808  0.00  0.00    +0.007 A 
ATOM     21  C   UNL     1      10.576   9.170  23.121  0.00  0.00    +0.033 A 
ATOM     22  C   UNL     1      11.585  11.022  21.940  0.00  0.00    +0.033 A 
ATOM     24  C   UNL     1      11.008  10.496  23.097  0.00  0.00    +0.126 A 
BRANCH  24   9
ATOM      2  O   UNL     1      11.416  10.959  25.318  0.00  0.00    -0.126 OA
ATOM      3  O   UNL     1      10.179  12.362  24.169  0.00  0.00    -0.126 OA
ATOM      9  N   UNL     1      10.861  11.311  24.250  0.00  0.00    +0.056 N 
ENDBRANCH  24   9
ENDBRANCH  15  17
ENDBRANCH   5  15
ENDBRANCH  16  11
TORSDOF 8
ENDMDL
MODEL 2
REMARK VINA RESULT:      -6.6      1.780      3.397
REMARK  Name = 45783386
REMARK  9 active torsions:
REMARK  status: ('A' for Active; 'I' for Inactive)
REMARK    1  A    between atoms: O_4  and  C_30
REMARK    2  A    between atoms: O_4  and  C_31
REMARK    3  A    between atoms: N_5  and  C_15
REMARK    4  A    between atoms: N_8  and  C_28
REMARK    5  A    between atoms: N_9  and  C_24
REMARK    6  A    between atoms: C_11  and  C_16
REMARK    7  A    between atoms: C_15  and  C_17
REMARK    8  A    between atoms: C_20  and  C_23
REMARK    9  A    between atoms: C_28  and  C_30
REMARK                            x       y       z     vdW  Elec       q    Type
REMARK                         _______ _______ _______ _____ _____    ______ ____
ROOT
ATOM      1  O   UNL     1      16.374   6.015  18.705  0.00  0.00    -0.336 OA
ATOM      6  N   UNL     1      16.109   7.624  20.240  0.00  0.00    -0.190 NA
ATOM      7  N   UNL     1      17.581   6.080  19.411  0.00  0.00    -0.056 NA
ATOM     16  C   UNL     1      15.563   6.957  19.255  0.00  0.00    +0.245 A 
ATOM     20  C   UNL     1      17.347   7.051  20.299  0.00  0.00    +0.205 A 
ENDROOT
BRANCH  20  23
ATOM      8  N   UNL     1      17.811   9.796  20.866  0.00  0.00    -0.326 N 
ATOM     10  N   UNL     1      19.484   9.235  22.443  0.00  0.00    -0.240 NA
ATOM     23  C   UNL     1      18.327   7.474  21.257  0.00  0.00    +0.062 A 
ATOM     25  C   UNL     1      18.568   8.807  21.546  0.00  0.00    +0.130 A 
ATOM     26  C   UNL     1      19.078   6.516  21.933  0.00  0.00    +0.016 A 
ATOM     27  C   UNL     1      20.029   6.917  22.863  0.00  0.00    +0.020 A 
ATOM     29  C   UNL     1      20.193   8.276  23.080  0.00  0.00    +0.113 A 
ATOM     32  H   UNL     1      16.917   9.496  20.491  0.00  0.00    +0.148 HD
BRANCH   8  28
ATOM     28  C   UNL     1      17.988  11.192  21.096  0.00  0.00    +0.131 C 
BRANCH  28  30
ATOM     30  C   UNL     1      16.956  11.983  20.308  0.00  0.00    +0.178 C 
BRANCH  30   4
ATOM      4  O   UNL     1      15.710  11.301  20.344  0.00  0.00    -0.381 OA
ATOM     31  C   UNL     1      14.786  11.855  19.417  0.00  0.00    +0.194 C 
ENDBRANCH  30   4
ENDBRANCH  28  30
ENDBRANCH   8  28
ENDBRANCH  20  23
BRANCH  16  11
ATOM      5  N   UNL     1      13.342   8.070  19.375  0.00  0.00    -0.287 NA
ATOM     11  C   UNL     1      14.179   7.087  18.658  0.00  0.00    +0.146 C 
ATOM     12  C   UNL     1      14.203   7.584  17.201  0.00  0.00    +0.030 C 
ATOM     13  C   UNL     1      13.305   8.813  17.184  0.00  0.00    +0.017 C 
ATOM     14  C   UNL     1      12.409   8.616  18.389  0.00  0.00    +0.085 C 
BRANCH   5  15
ATOM     15  C   UNL     1      12.653   7.506  20.528  0.00  0.00    +0.120 C 
BRANCH  15  17
ATOM     17  C   UNL     1      12.204   8.574  21.490  0.00  0.00    -0.033 A 
ATOM     18  C   UNL     1      13.109   9.539  21.933  0.00  0.00    +0.007 A 
ATOM     19  C   UNL     1      10.884   8.599  21.939  0.00  0.00    +0.007 A 
ATOM     21  C   UNL     1      12.693  10.528  22.824  0.00  0.00    +0.033 A 
ATOM     22  C   UNL     1      10.467   9.586  22.830  0.00  0.00    +0.033 A 
ATOM     24  C   UNL     1      11.373  10.551  23.273  0.00  0.00    +0.126 A 
BRANCH  24   9
ATOM      2  O   UNL     1      10.872  11.283  25.402  0.00  0.00    -0.126 OA
ATOM      3  O   UNL     1      10.664  12.696  23.735  0.00  0.00    -0.126 OA
ATOM      9  N   UNL     1      10.950  11.558  24.181  0.00  0.00    +0.056 N 
ENDBRANCH  24   9
ENDBRANCH  15  17
ENDBRANCH   5  15
ENDBRANCH  16  11
TORSDOF 8
ENDMDL
MODEL 3
REMARK VINA RESULT:      -6.5     27.790     29.949
REMARK  Name = 45783386
REMARK  9 active torsions:
REMARK  status: ('A' for Active; 'I' for Inactive)
REMARK    1  A    between atoms: O_4  and  C_30
REMARK    2  A    between atoms: O_4  and  C_31
REMARK    3  A    between atoms: N_5  and  C_15
REMARK    4  A    between atoms: N_8  and  C_28
REMARK    5  A    between atoms: N_9  and  C_24
REMARK    6  A    between atoms: C_11  and  C_16
REMARK    7  A    between atoms: C_15  and  C_17
REMARK    8  A    between atoms: C_20  and  C_23
REMARK    9  A    between atoms: C_28  and  C_30
REMARK                            x       y       z     vdW  Elec       q    Type
REMARK                         _______ _______ _______ _____ _____    ______ ____
ROOT
ATOM      1  O   UNL     1      -7.384 -10.437  11.603  0.00  0.00    -0.336 OA
ATOM      6  N   UNL     1      -5.755  -9.208  12.525  0.00  0.00    -0.190 NA
ATOM      7  N   UNL     1      -7.294 -10.850  12.937  0.00  0.00    -0.056 NA
ATOM     16  C   UNL     1      -6.444  -9.469  11.443  0.00  0.00    +0.245 A 
ATOM     20  C   UNL     1      -6.312 -10.079  13.415  0.00  0.00    +0.205 A 
ENDROOT
BRANCH  20  23
ATOM      8  N   UNL     1      -7.953  -9.270  15.588  0.00  0.00    -0.326 N 
ATOM     10  N   UNL     1      -6.255  -9.825  17.138  0.00  0.00    -0.240 NA
ATOM     23  C   UNL     1      -5.863 -10.155  14.776  0.00  0.00    +0.062 A 
ATOM     25  C   UNL     1      -6.650  -9.764  15.847  0.00  0.00    +0.130 A 
ATOM     26  C   UNL     1      -4.587 -10.638  15.047  0.00  0.00    +0.016 A 
ATOM     27  C   UNL     1      -4.145 -10.715  16.362  0.00  0.00    +0.020 A 
ATOM     29  C   UNL     1      -5.009 -10.299  17.363  0.00  0.00    +0.113 A 
ATOM     32  H   UNL     1      -8.373  -9.554  14.709  0.00  0.00    +0.148 HD
BRANCH   8  28
ATOM     28  C   UNL     1      -8.835  -8.844  16.625  0.00  0.00    +0.131 C 
BRANCH  28  30
ATOM     30  C   UNL     1     -10.030  -8.121  16.026  0.00  0.00    +0.178 C 
BRANCH  30   4
ATOM      4  O   UNL     1     -10.488  -7.130  16.937  0.00  0.00    -0.381 OA
ATOM     31  C   UNL     1     -11.296  -6.159  16.286  0.00  0.00    +0.194 C 
ENDBRANCH  30   4
ENDBRANCH  28  30
ENDBRANCH   8  28
ENDBRANCH  20  23
BRANCH  16  11
ATOM      5  N   UNL     1      -5.613  -9.713   9.110  0.00  0.00    -0.287 NA
ATOM     11  C   UNL     1      -6.339  -8.851  10.065  0.00  0.00    +0.146 C 
ATOM     12  C   UNL     1      -7.713  -8.615   9.413  0.00  0.00    +0.030 C 
ATOM     13  C   UNL     1      -7.646  -9.330   8.070  0.00  0.00    +0.017 C 
ATOM     14  C   UNL     1      -6.160  -9.413   7.786  0.00  0.00    +0.085 C 
BRANCH   5  15
ATOM     15  C   UNL     1      -4.168  -9.536   9.159  0.00  0.00    +0.120 C 
BRANCH  15  17
ATOM     17  C   UNL     1      -3.539 -10.373  10.241  0.00  0.00    -0.033 A 
ATOM     18  C   UNL     1      -2.563  -9.820  11.072  0.00  0.00    +0.007 A 
ATOM     19  C   UNL     1      -3.929 -11.701  10.413  0.00  0.00    +0.007 A 
ATOM     21  C   UNL     1      -1.980 -10.596  12.074  0.00  0.00    +0.033 A 
ATOM     22  C   UNL     1      -3.346 -12.477  11.413  0.00  0.00    +0.033 A 
ATOM     24  C   UNL     1      -2.371 -11.924  12.244  0.00  0.00    +0.126 A 
BRANCH  24   9
ATOM      2  O   UNL     1      -1.420 -12.160  14.332  0.00  0.00    -0.126 OA
ATOM      3  O   UNL     1      -1.623 -13.944  13.068  0.00  0.00    -0.126 OA
ATOM      9  N   UNL     1      -1.776 -12.713  13.264  0.00  0.00    +0.056 N 
ENDBRANCH  24   9
ENDBRANCH  15  17
ENDBRANCH   5  15
ENDBRANCH  16  11
TORSDOF 8
ENDMDL
MODEL 4
REMARK VINA RESULT:      -6.4      1.843      3.562
REMARK  Name = 45783386
REMARK  9 active torsions:
REMARK  status: ('A' for Active; 'I' for Inactive)
REMARK    1  A    between atoms: O_4  and  C_30
REMARK    2  A    between atoms: O_4  and  C_31
REMARK    3  A    between atoms: N_5  and  C_15
REMARK    4  A    between atoms: N_8  and  C_28
REMARK    5  A    between atoms: N_9  and  C_24
REMARK    6  A    between atoms: C_11  and  C_16
REMARK    7  A    between atoms: C_15  and  C_17
REMARK    8  A    between atoms: C_20  and  C_23
REMARK    9  A    between atoms: C_28  and  C_30
REMARK                            x       y       z     vdW  Elec       q    Type
REMARK                         _______ _______ _______ _____ _____    ______ ____
ROOT
ATOM      1  O   UNL     1      14.925   9.635  19.416  0.00  0.00    -0.336 OA
ATOM      6  N   UNL     1      15.761   7.567  19.610  0.00  0.00    -0.190 NA
ATOM      7  N   UNL     1      16.065   9.751  20.219  0.00  0.00    -0.056 NA
ATOM     16  C   UNL     1      14.817   8.318  19.101  0.00  0.00    +0.245 A 
ATOM     20  C   UNL     1      16.503   8.491  20.288  0.00  0.00    +0.205 A 
ENDROOT
BRANCH  20  23
ATOM      8  N   UNL     1      17.789  10.289  22.071  0.00  0.00    -0.326 N 
ATOM     10  N   UNL     1      19.424   8.663  22.605  0.00  0.00    -0.240 NA
ATOM     23  C   UNL     1      17.677   8.120  21.024  0.00  0.00    +0.062 A 
ATOM     25  C   UNL     1      18.318   8.984  21.898  0.00  0.00    +0.130 A 
ATOM     26  C   UNL     1      18.208   6.844  20.865  0.00  0.00    +0.016 A 
ATOM     27  C   UNL     1      19.345   6.477  21.575  0.00  0.00    +0.020 A 
ATOM     29  C   UNL     1      19.910   7.415  22.425  0.00  0.00    +0.113 A 
ATOM     32  H   UNL     1      16.807  10.407  21.848  0.00  0.00    +0.148 HD
BRANCH   8  28
ATOM     28  C   UNL     1      18.379  11.247  22.948  0.00  0.00    +0.131 C 
BRANCH  28  30
ATOM     30  C   UNL     1      17.418  12.401  23.179  0.00  0.00    +0.178 C 
BRANCH  30   4
ATOM      4  O   UNL     1      16.115  11.888  23.426  0.00  0.00    -0.381 OA
ATOM     31  C   UNL     1      15.623  12.306  24.692  0.00  0.00    +0.194 C 
ENDBRANCH  30   4
ENDBRANCH  28  30
ENDBRANCH   8  28
ENDBRANCH  20  23
BRANCH  16  11
ATOM      5  N   UNL     1      12.393   8.605  18.617  0.00  0.00    -0.287 NA
ATOM     11  C   UNL     1      13.646   7.926  18.226  0.00  0.00    +0.146 C 
ATOM     12  C   UNL     1      13.853   8.308  16.749  0.00  0.00    +0.030 C 
ATOM     13  C   UNL     1      12.639   9.149  16.381  0.00  0.00    +0.017 C 
ATOM     14  C   UNL     1      11.595   8.732  17.396  0.00  0.00    +0.085 C 
BRANCH   5  15
ATOM     15  C   UNL     1      11.670   7.912  19.674  0.00  0.00    +0.120 C 
BRANCH  15  17
ATOM     17  C   UNL     1      11.439   8.799  20.869  0.00  0.00    -0.033 A 
ATOM     18  C   UNL     1      11.784  10.150  20.812  0.00  0.00    +0.007 A 
ATOM     19  C   UNL     1      10.881   8.272  22.033  0.00  0.00    +0.007 A 
ATOM     21  C   UNL     1      11.570  10.972  21.918  0.00  0.00    +0.033 A 
ATOM     22  C   UNL     1      10.667   9.092  23.139  0.00  0.00    +0.033 A 
ATOM     24  C   UNL     1      11.012  10.443  23.082  0.00  0.00    +0.126 A 
BRANCH  24   9
ATOM      2  O   UNL     1      10.114  12.324  24.068  0.00  0.00    -0.126 OA
ATOM      3  O   UNL     1      11.290  10.951  25.314  0.00  0.00    -0.126 OA
ATOM      9  N   UNL     1      10.794  11.280  24.208  0.00  0.00    +0.056 N 
ENDBRANCH  24   9
ENDBRANCH  15  17
ENDBRANCH   5  15
ENDBRANCH  16  11
TORSDOF 8
ENDMDL
MODEL 5
REMARK VINA RESULT:      -6.3      2.741      5.623
REMARK  Name = 45783386
REMARK  9 active torsions:
REMARK  status: ('A' for Active; 'I' for Inactive)
REMARK    1  A    between atoms: O_4  and  C_30
REMARK    2  A    between atoms: O_4  and  C_31
REMARK    3  A    between atoms: N_5  and  C_15
REMARK    4  A    between atoms: N_8  and  C_28
REMARK    5  A    between atoms: N_9  and  C_24
REMARK    6  A    between atoms: C_11  and  C_16
REMARK    7  A    between atoms: C_15  and  C_17
REMARK    8  A    between atoms: C_20  and  C_23
REMARK    9  A    between atoms: C_28  and  C_30
REMARK                            x       y       z     vdW  Elec       q    Type
REMARK                         _______ _______ _______ _____ _____    ______ ____
ROOT
ATOM      1  O   UNL     1      14.453   6.879  19.707  0.00  0.00    -0.336 OA
ATOM      6  N   UNL     1      15.648   7.823  21.348  0.00  0.00    -0.190 NA
ATOM      7  N   UNL     1      15.786   6.520  19.473  0.00  0.00    -0.056 NA
ATOM     16  C   UNL     1      14.460   7.645  20.829  0.00  0.00    +0.245 A 
ATOM     20  C   UNL     1      16.429   7.115  20.482  0.00  0.00    +0.205 A 
ENDROOT
BRANCH  20  23
ATOM      8  N   UNL     1      17.950   9.229  21.616  0.00  0.00    -0.326 N 
ATOM     10  N   UNL     1      19.947   7.983  21.377  0.00  0.00    -0.240 NA
ATOM     23  C   UNL     1      17.851   7.021  20.653  0.00  0.00    +0.062 A 
ATOM     25  C   UNL     1      18.608   8.042  21.204  0.00  0.00    +0.130 A 
ATOM     26  C   UNL     1      18.511   5.864  20.253  0.00  0.00    +0.016 A 
ATOM     27  C   UNL     1      19.888   5.765  20.416  0.00  0.00    +0.020 A 
ATOM     29  C   UNL     1      20.554   6.843  20.978  0.00  0.00    +0.113 A 
ATOM     32  H   UNL     1      16.961   9.143  21.825  0.00  0.00    +0.148 HD
BRANCH   8  28
ATOM     28  C   UNL     1      18.645  10.332  22.193  0.00  0.00    +0.131 C 
BRANCH  28  30
ATOM     30  C   UNL     1      17.701  11.512  22.357  0.00  0.00    +0.178 C 
BRANCH  30   4
ATOM      4  O   UNL     1      16.375  11.035  22.537  0.00  0.00    -0.381 OA
ATOM     31  C   UNL     1      15.446  11.768  21.749  0.00  0.00    +0.194 C 
ENDBRANCH  30   4
ENDBRANCH  28  30
ENDBRANCH   8  28
ENDBRANCH  20  23
BRANCH  16  11
ATOM      5  N   UNL     1      12.284   8.669  20.190  0.00  0.00    -0.287 NA
ATOM     11  C   UNL     1      13.119   8.166  21.299  0.00  0.00    +0.146 C 
ATOM     12  C   UNL     1      12.261   7.078  21.972  0.00  0.00    +0.030 C 
ATOM     13  C   UNL     1      10.942   7.084  21.211  0.00  0.00    +0.017 C 
ATOM     14  C   UNL     1      10.893   8.467  20.596  0.00  0.00    +0.085 C 
BRANCH   5  15
ATOM     15  C   UNL     1      12.559  10.058  19.848  0.00  0.00    +0.120 C 
BRANCH  15  17
ATOM     17  C   UNL     1      13.277  10.178  18.530  0.00  0.00    -0.033 A 
ATOM     18  C   UNL     1      12.993   9.285  17.496  0.00  0.00    +0.007 A 
ATOM     19  C   UNL     1      14.226  11.182  18.341  0.00  0.00    +0.007 A 
ATOM     21  C   UNL     1      13.658   9.398  16.275  0.00  0.00    +0.033 A 
ATOM     22  C   UNL     1      14.892  11.295  17.122  0.00  0.00    +0.033 A 
ATOM     24  C   UNL     1      14.608  10.401  16.088  0.00  0.00    +0.126 A 
BRANCH  24   9
ATOM      2  O   UNL     1      15.343   9.515  14.091  0.00  0.00    -0.126 OA
ATOM      3  O   UNL     1      15.807  11.614  14.536  0.00  0.00    -0.126 OA
ATOM      9  N   UNL     1      15.285  10.515  14.845  0.00  0.00    +0.056 N 
ENDBRANCH  24   9
ENDBRANCH  15  17
ENDBRANCH   5  15
ENDBRANCH  16  11
TORSDOF 8
ENDMDL
MODEL 6
REMARK VINA RESULT:      -6.2     14.133     17.368
REMARK  Name = 45783386
REMARK  9 active torsions:
REMARK  status: ('A' for Active; 'I' for Inactive)
REMARK    1  A    between atoms: O_4  and  C_30
REMARK    2  A    between atoms: O_4  and  C_31
REMARK    3  A    between atoms: N_5  and  C_15
REMARK    4  A    between atoms: N_8  and  C_28
REMARK    5  A    between atoms: N_9  and  C_24
REMARK    6  A    between atoms: C_11  and  C_16
REMARK    7  A    between atoms: C_15  and  C_17
REMARK    8  A    between atoms: C_20  and  C_23
REMARK    9  A    between atoms: C_28  and  C_30
REMARK                            x       y       z     vdW  Elec       q    Type
REMARK                         _______ _______ _______ _____ _____    ______ ____
ROOT
ATOM      1  O   UNL     1      10.089   7.884   2.307  0.00  0.00    -0.336 OA
ATOM      6  N   UNL     1      11.000   6.387   3.700  0.00  0.00    -0.190 NA
ATOM      7  N   UNL     1      11.041   7.185   1.556  0.00  0.00    -0.056 NA
ATOM     16  C   UNL     1      10.129   7.353   3.556  0.00  0.00    +0.245 A 
ATOM     20  C   UNL     1      11.536   6.319   2.446  0.00  0.00    +0.205 A 
ENDROOT
BRANCH  20  23
ATOM      8  N   UNL     1      14.290   7.009   2.521  0.00  0.00    -0.326 N 
ATOM     10  N   UNL     1      14.903   4.827   1.841  0.00  0.00    -0.240 NA
ATOM     23  C   UNL     1      12.564   5.375   2.116  0.00  0.00    +0.062 A 
ATOM     25  C   UNL     1      13.912   5.695   2.146  0.00  0.00    +0.130 A 
ATOM     26  C   UNL     1      12.210   4.082   1.746  0.00  0.00    +0.016 A 
ATOM     27  C   UNL     1      13.200   3.162   1.425  0.00  0.00    +0.020 A 
ATOM     29  C   UNL     1      14.520   3.580   1.487  0.00  0.00    +0.113 A 
ATOM     32  H   UNL     1      13.619   7.526   3.080  0.00  0.00    +0.148 HD
BRANCH   8  28
ATOM     28  C   UNL     1      15.651   7.430   2.581  0.00  0.00    +0.131 C 
BRANCH  28  30
ATOM     30  C   UNL     1      16.021   7.792   4.010  0.00  0.00    +0.178 C 
BRANCH  30   4
ATOM      4  O   UNL     1      15.060   7.240   4.901  0.00  0.00    -0.381 OA
ATOM     31  C   UNL     1      15.216   7.752   6.217  0.00  0.00    +0.194 C 
ENDBRANCH  30   4
ENDBRANCH  28  30
ENDBRANCH   8  28
ENDBRANCH  20  23
BRANCH  16  11
ATOM      5  N   UNL     1       9.605   9.281   5.039  0.00  0.00    -0.287 NA
ATOM     11  C   UNL     1       9.178   7.947   4.573  0.00  0.00    +0.146 C 
ATOM     12  C   UNL     1       7.762   8.165   4.007  0.00  0.00    +0.030 C 
ATOM     13  C   UNL     1       7.457   9.636   4.254  0.00  0.00    +0.017 C 
ATOM     14  C   UNL     1       8.384  10.005   5.394  0.00  0.00    +0.085 C 
BRANCH   5  15
ATOM     15  C   UNL     1      10.551   9.228   6.145  0.00  0.00    +0.120 C 
BRANCH  15  17
ATOM     17  C   UNL     1      10.342   8.008   7.002  0.00  0.00    -0.033 A 
ATOM     18  C   UNL     1       9.156   7.854   7.720  0.00  0.00    +0.007 A 
ATOM     19  C   UNL     1      11.335   7.031   7.080  0.00  0.00    +0.007 A 
ATOM     21  C   UNL     1       8.963   6.723   8.513  0.00  0.00    +0.033 A 
ATOM     22  C   UNL     1      11.143   5.902   7.874  0.00  0.00    +0.033 A 
ATOM     24  C   UNL     1       9.956   5.748   8.591  0.00  0.00    +0.126 A 
BRANCH  24   9
ATOM      2  O   UNL     1       9.277   3.563   8.879  0.00  0.00    -0.126 OA
ATOM      3  O   UNL     1      10.072   4.647  10.614  0.00  0.00    -0.126 OA
ATOM      9  N   UNL     1       9.759   4.597   9.400  0.00  0.00    +0.056 N 
ENDBRANCH  24   9
ENDBRANCH  15  17
ENDBRANCH   5  15
ENDBRANCH  16  11
TORSDOF 8
ENDMDL
MODEL 7
REMARK VINA RESULT:      -6.1     14.579     18.321
REMARK  Name = 45783386
REMARK  9 active torsions:
REMARK  status: ('A' for Active; 'I' for Inactive)
REMARK    1  A    between atoms: O_4  and  C_30
REMARK    2  A    between atoms: O_4  and  C_31
REMARK    3  A    between atoms: N_5  and  C_15
REMARK    4  A    between atoms: N_8  and  C_28
REMARK    5  A    between atoms: N_9  and  C_24
REMARK    6  A    between atoms: C_11  and  C_16
REMARK    7  A    between atoms: C_15  and  C_17
REMARK    8  A    between atoms: C_20  and  C_23
REMARK    9  A    between atoms: C_28  and  C_30
REMARK                            x       y       z     vdW  Elec       q    Type
REMARK                         _______ _______ _______ _____ _____    ______ ____
ROOT
ATOM      1  O   UNL     1      12.727   6.554   7.458  0.00  0.00    -0.336 OA
ATOM      6  N   UNL     1      12.878   7.860   5.645  0.00  0.00    -0.190 NA
ATOM      7  N   UNL     1      14.086   6.603   7.126  0.00  0.00    -0.056 NA
ATOM     16  C   UNL     1      12.086   7.319   6.537  0.00  0.00    +0.245 A 
ATOM     20  C   UNL     1      14.095   7.392   6.048  0.00  0.00    +0.205 A 
ENDROOT
BRANCH  20  23
ATOM      8  N   UNL     1      14.551   6.596   3.360  0.00  0.00    -0.326 N 
ATOM     10  N   UNL     1      16.667   7.656   3.356  0.00  0.00    -0.240 NA
ATOM     23  C   UNL     1      15.302   7.731   5.349  0.00  0.00    +0.062 A 
ATOM     25  C   UNL     1      15.541   7.351   4.039  0.00  0.00    +0.130 A 
ATOM     26  C   UNL     1      16.283   8.471   6.002  0.00  0.00    +0.016 A 
ATOM     27  C   UNL     1      17.454   8.804   5.332  0.00  0.00    +0.020 A 
ATOM     29  C   UNL     1      17.597   8.376   4.022  0.00  0.00    +0.113 A 
ATOM     32  H   UNL     1      13.604   6.678   3.714  0.00  0.00    +0.148 HD
BRANCH   8  28
ATOM     28  C   UNL     1      14.708   6.160   2.011  0.00  0.00    +0.131 C 
BRANCH  28  30
ATOM     30  C   UNL     1      13.896   7.045   1.081  0.00  0.00    +0.178 C 
BRANCH  30   4
ATOM      4  O   UNL     1      14.379   6.903  -0.249  0.00  0.00    -0.381 OA
ATOM     31  C   UNL     1      15.137   5.711  -0.403  0.00  0.00    +0.194 C 
ENDBRANCH  30   4
ENDBRANCH  28  30
ENDBRANCH   8  28
ENDBRANCH  20  23
BRANCH  16  11
ATOM      5  N   UNL     1       9.858   6.558   5.732  0.00  0.00    -0.287 NA
ATOM     11  C   UNL     1      10.583   7.430   6.678  0.00  0.00    +0.146 C 
ATOM     12  C   UNL     1      10.084   6.999   8.070  0.00  0.00    +0.030 C 
ATOM     13  C   UNL     1       9.038   5.925   7.802  0.00  0.00    +0.017 C 
ATOM     14  C   UNL     1       8.594   6.207   6.381  0.00  0.00    +0.085 C 
BRANCH   5  15
ATOM     15  C   UNL     1       9.652   7.172   4.428  0.00  0.00    +0.120 C 
BRANCH  15  17
ATOM     17  C   UNL     1      10.155   6.297   3.311  0.00  0.00    -0.033 A 
ATOM     18  C   UNL     1       9.875   6.628   1.985  0.00  0.00    +0.007 A 
ATOM     19  C   UNL     1      10.902   5.155   3.601  0.00  0.00    +0.007 A 
ATOM     21  C   UNL     1      10.342   5.817   0.950  0.00  0.00    +0.033 A 
ATOM     22  C   UNL     1      11.368   4.344   2.568  0.00  0.00    +0.033 A 
ATOM     24  C   UNL     1      11.087   4.675   1.242  0.00  0.00    +0.126 A 
BRANCH  24   9
ATOM      2  O   UNL     1      12.674   3.283   0.313  0.00  0.00    -0.126 OA
ATOM      3  O   UNL     1      10.855   3.710  -0.840  0.00  0.00    -0.126 OA
ATOM      9  N   UNL     1      11.562   3.849   0.189  0.00  0.00    +0.056 N 
ENDBRANCH  24   9
ENDBRANCH  15  17
ENDBRANCH   5  15
ENDBRANCH  16  11
TORSDOF 8
ENDMDL
MODEL 8
REMARK VINA RESULT:      -6.1      3.350      5.363
REMARK  Name = 45783386
REMARK  9 active torsions:
REMARK  status: ('A' for Active; 'I' for Inactive)
REMARK    1  A    between atoms: O_4  and  C_30
REMARK    2  A    between atoms: O_4  and  C_31
REMARK    3  A    between atoms: N_5  and  C_15
REMARK    4  A    between atoms: N_8  and  C_28
REMARK    5  A    between atoms: N_9  and  C_24
REMARK    6  A    between atoms: C_11  and  C_16
REMARK    7  A    between atoms: C_15  and  C_17
REMARK    8  A    between atoms: C_20  and  C_23
REMARK    9  A    between atoms: C_28  and  C_30
REMARK                            x       y       z     vdW  Elec       q    Type
REMARK                         _______ _______ _______ _____ _____    ______ ____
ROOT
ATOM      1  O   UNL     1      17.485   6.186  19.779  0.00  0.00    -0.336 OA
ATOM      6  N   UNL     1      18.697   7.501  21.127  0.00  0.00    -0.190 NA
ATOM      7  N   UNL     1      18.700   5.520  19.982  0.00  0.00    -0.056 NA
ATOM     16  C   UNL     1      17.566   7.343  20.487  0.00  0.00    +0.245 A 
ATOM     20  C   UNL     1      19.360   6.358  20.787  0.00  0.00    +0.205 A 
ENDROOT
BRANCH  20  23
ATOM      8  N   UNL     1      20.111   6.842  23.483  0.00  0.00    -0.326 N 
ATOM     10  N   UNL     1      22.305   6.064  23.060  0.00  0.00    -0.240 NA
ATOM     23  C   UNL     1      20.684   6.083  21.268  0.00  0.00    +0.062 A 
ATOM     25  C   UNL     1      21.067   6.313  22.578  0.00  0.00    +0.130 A 
ATOM     26  C   UNL     1      21.634   5.564  20.393  0.00  0.00    +0.016 A 
ATOM     27  C   UNL     1      22.917   5.295  20.852  0.00  0.00    +0.020 A 
ATOM     29  C   UNL     1      23.201   5.560  22.182  0.00  0.00    +0.113 A 
ATOM     32  H   UNL     1      19.137   6.689  23.244  0.00  0.00    +0.148 HD
BRANCH   8  28
ATOM     28  C   UNL     1      20.413   7.112  24.850  0.00  0.00    +0.131 C 
BRANCH  28  30
ATOM     30  C   UNL     1      20.539   8.610  25.068  0.00  0.00    +0.178 C 
BRANCH  30   4
ATOM      4  O   UNL     1      20.307   9.288  23.840  0.00  0.00    -0.381 OA
ATOM     31  C   UNL     1      21.331  10.234  23.566  0.00  0.00    +0.194 C 
ENDBRANCH  30   4
ENDBRANCH  28  30
ENDBRANCH   8  28
ENDBRANCH  20  23
BRANCH  16  11
ATOM      5  N   UNL     1      15.231   7.754  21.241  0.00  0.00    -0.287 NA
ATOM     11  C   UNL     1      16.360   8.255  20.431  0.00  0.00    +0.146 C 
ATOM     12  C   UNL     1      16.649   9.660  20.992  0.00  0.00    +0.030 C 
ATOM     13  C   UNL     1      15.597   9.884  22.069  0.00  0.00    +0.017 C 
ATOM     14  C   UNL     1      14.483   8.932  21.681  0.00  0.00    +0.085 C 
BRANCH   5  15
ATOM     15  C   UNL     1      14.387   6.806  20.525  0.00  0.00    +0.120 C 
BRANCH  15  17
ATOM     17  C   UNL     1      13.763   7.424  19.302  0.00  0.00    -0.033 A 
ATOM     18  C   UNL     1      12.435   7.850  19.337  0.00  0.00    +0.007 A 
ATOM     19  C   UNL     1      14.511   7.569  18.135  0.00  0.00    +0.007 A 
ATOM     21  C   UNL     1      11.857   8.423  18.204  0.00  0.00    +0.033 A 
ATOM     22  C   UNL     1      13.934   8.141  17.002  0.00  0.00    +0.033 A 
ATOM     24  C   UNL     1      12.606   8.567  17.036  0.00  0.00    +0.126 A 
BRANCH  24   9
ATOM      2  O   UNL     1      10.821   8.889  15.613  0.00  0.00    -0.126 OA
ATOM      3  O   UNL     1      12.711   9.909  15.164  0.00  0.00    -0.126 OA
ATOM      9  N   UNL     1      12.017   9.150  15.883  0.00  0.00    +0.056 N 
ENDBRANCH  24   9
ENDBRANCH  15  17
ENDBRANCH   5  15
ENDBRANCH  16  11
TORSDOF 8
ENDMDL
MODEL 9
REMARK VINA RESULT:      -6.1     26.267     29.553
REMARK  Name = 45783386
REMARK  9 active torsions:
REMARK  status: ('A' for Active; 'I' for Inactive)
REMARK    1  A    between atoms: O_4  and  C_30
REMARK    2  A    between atoms: O_4  and  C_31
REMARK    3  A    between atoms: N_5  and  C_15
REMARK    4  A    between atoms: N_8  and  C_28
REMARK    5  A    between atoms: N_9  and  C_24
REMARK    6  A    between atoms: C_11  and  C_16
REMARK    7  A    between atoms: C_15  and  C_17
REMARK    8  A    between atoms: C_20  and  C_23
REMARK    9  A    between atoms: C_28  and  C_30
REMARK                            x       y       z     vdW  Elec       q    Type
REMARK                         _______ _______ _______ _____ _____    ______ ____
ROOT
ATOM      1  O   UNL     1     -11.721   6.841  20.827  0.00  0.00    -0.336 OA
ATOM      6  N   UNL     1     -13.920   7.250  20.918  0.00  0.00    -0.190 NA
ATOM      7  N   UNL     1     -12.278   5.805  21.587  0.00  0.00    -0.056 NA
ATOM     16  C   UNL     1     -12.755   7.647  20.474  0.00  0.00    +0.245 A 
ATOM     20  C   UNL     1     -13.578   6.116  21.595  0.00  0.00    +0.205 A 
ENDROOT
BRANCH  20  23
ATOM      8  N   UNL     1     -16.003   5.333  20.341  0.00  0.00    -0.326 N 
ATOM     10  N   UNL     1     -16.689   4.174  22.286  0.00  0.00    -0.240 NA
ATOM     23  C   UNL     1     -14.559   5.316  22.271  0.00  0.00    +0.062 A 
ATOM     25  C   UNL     1     -15.747   4.926  21.676  0.00  0.00    +0.130 A 
ATOM     26  C   UNL     1     -14.323   4.909  23.580  0.00  0.00    +0.016 A 
ATOM     27  C   UNL     1     -15.268   4.135  24.242  0.00  0.00    +0.020 A 
ATOM     29  C   UNL     1     -16.425   3.797  23.557  0.00  0.00    +0.113 A 
ATOM     32  H   UNL     1     -15.190   5.565  19.780  0.00  0.00    +0.148 HD
BRANCH   8  28
ATOM     28  C   UNL     1     -17.197   4.980  19.645  0.00  0.00    +0.131 C 
BRANCH  28  30
ATOM     30  C   UNL     1     -17.532   6.046  18.615  0.00  0.00    +0.178 C 
BRANCH  30   4
ATOM      4  O   UNL     1     -16.409   6.900  18.436  0.00  0.00    -0.381 OA
ATOM     31  C   UNL     1     -16.808   8.215  18.072  0.00  0.00    +0.194 C 
ENDBRANCH  30   4
ENDBRANCH  28  30
ENDBRANCH   8  28
ENDBRANCH  20  23
BRANCH  16  11
ATOM      5  N   UNL     1     -11.864   9.970  20.439  0.00  0.00    -0.287 NA
ATOM     11  C   UNL     1     -12.410   8.859  19.634  0.00  0.00    +0.146 C 
ATOM     12  C   UNL     1     -11.322   8.565  18.585  0.00  0.00    +0.030 C 
ATOM     13  C   UNL     1     -10.233   9.598  18.839  0.00  0.00    +0.017 C 
ATOM     14  C   UNL     1     -10.963  10.715  19.558  0.00  0.00    +0.085 C 
BRANCH   5  15
ATOM     15  C   UNL     1     -12.895  10.823  21.016  0.00  0.00    +0.120 C 
BRANCH  15  17
ATOM     17  C   UNL     1     -12.954  10.695  22.515  0.00  0.00    -0.033 A 
ATOM     18  C   UNL     1     -11.949  11.256  23.303  0.00  0.00    +0.007 A 
ATOM     19  C   UNL     1     -14.013  10.015  23.116  0.00  0.00    +0.007 A 
ATOM     21  C   UNL     1     -12.004  11.137  24.692  0.00  0.00    +0.033 A 
ATOM     22  C   UNL     1     -14.069   9.895  24.503  0.00  0.00    +0.033 A 
ATOM     24  C   UNL     1     -13.063  10.456  25.292  0.00  0.00    +0.126 A 
BRANCH  24   9
ATOM      2  O   UNL     1     -14.175  10.656  27.302  0.00  0.00    -0.126 OA
ATOM      3  O   UNL     1     -12.109   9.912  27.320  0.00  0.00    -0.126 OA
ATOM      9  N   UNL     1     -13.119  10.335  26.706  0.00  0.00    +0.056 N 
ENDBRANCH  24   9
ENDBRANCH  15  17
ENDBRANCH   5  15
ENDBRANCH  16  11
TORSDOF 8
ENDMDL
MODEL 10
REMARK VINA RESULT:      -6.1     26.730     30.216
REMARK  Name = 45783386
REMARK  9 active torsions:
REMARK  status: ('A' for Active; 'I' for Inactive)
REMARK    1  A    between atoms: O_4  and  C_30
REMARK    2  A    between atoms: O_4  and  C_31
REMARK    3  A    between atoms: N_5  and  C_15
REMARK    4  A    between atoms: N_8  and  C_28
REMARK    5  A    between atoms: N_9  and  C_24
REMARK    6  A    between atoms: C_11  and  C_16
REMARK    7  A    between atoms: C_15  and  C_17
REMARK    8  A    between atoms: C_20  and  C_23
REMARK    9  A    between atoms: C_28  and  C_30
REMARK                            x       y       z     vdW  Elec       q    Type
REMARK                         _______ _______ _______ _____ _____    ______ ____
ROOT
ATOM      1  O   UNL     1      -4.740  -9.737  16.624  0.00  0.00    -0.336 OA
ATOM      6  N   UNL     1      -5.300 -11.878  16.970  0.00  0.00    -0.190 NA
ATOM      7  N   UNL     1      -5.906  -9.714  17.399  0.00  0.00    -0.056 NA
ATOM     16  C   UNL     1      -4.452 -11.048  16.416  0.00  0.00    +0.245 A 
ATOM     20  C   UNL     1      -6.174 -11.013  17.562  0.00  0.00    +0.205 A 
ENDROOT
BRANCH  20  23
ATOM      8  N   UNL     1      -8.769  -9.914  17.203  0.00  0.00    -0.326 N 
ATOM     10  N   UNL     1      -9.663 -11.374  18.836  0.00  0.00    -0.240 NA
ATOM     23  C   UNL     1      -7.306 -11.479  18.309  0.00  0.00    +0.062 A 
ATOM     25  C   UNL     1      -8.578 -10.955  18.148  0.00  0.00    +0.130 A 
ATOM     26  C   UNL     1      -7.136 -12.499  19.240  0.00  0.00    +0.016 A 
ATOM     27  C   UNL     1      -8.228 -12.957  19.967  0.00  0.00    +0.020 A 
ATOM     29  C   UNL     1      -9.459 -12.367  19.731  0.00  0.00    +0.113 A 
ATOM     32  H   UNL     1      -8.082  -9.854  16.459  0.00  0.00    +0.148 HD
BRANCH   8  28
ATOM     28  C   UNL     1     -10.040  -9.313  16.967  0.00  0.00    +0.131 C 
BRANCH  28  30
ATOM     30  C   UNL     1      -9.943  -7.807  17.144  0.00  0.00    +0.178 C 
BRANCH  30   4
ATOM      4  O   UNL     1     -11.151  -7.200  16.705  0.00  0.00    -0.381 OA
ATOM     31  C   UNL     1     -10.901  -6.159  15.770  0.00  0.00    +0.194 C 
ENDBRANCH  30   4
ENDBRANCH  28  30
ENDBRANCH   8  28
ENDBRANCH  20  23
BRANCH  16  11
ATOM      5  N   UNL     1      -3.280 -10.752  14.241  0.00  0.00    -0.287 NA
ATOM     11  C   UNL     1      -3.218 -11.346  15.592  0.00  0.00    +0.146 C 
ATOM     12  C   UNL     1      -1.933 -10.768  16.215  0.00  0.00    +0.030 C 
ATOM     13  C   UNL     1      -1.311  -9.911  15.121  0.00  0.00    +0.017 C 
ATOM     14  C   UNL     1      -1.897 -10.481  13.846  0.00  0.00    +0.085 C 
BRANCH   5  15
ATOM     15  C   UNL     1      -3.971 -11.594  13.275  0.00  0.00    +0.120 C 
BRANCH  15  17
ATOM     17  C   UNL     1      -4.860 -10.788  12.365  0.00  0.00    -0.033 A 
ATOM     18  C   UNL     1      -5.843  -9.959  12.907  0.00  0.00    +0.007 A 
ATOM     19  C   UNL     1      -4.703 -10.871  10.982  0.00  0.00    +0.007 A 
ATOM     21  C   UNL     1      -6.667  -9.212  12.064  0.00  0.00    +0.033 A 
ATOM     22  C   UNL     1      -5.526 -10.126  10.140  0.00  0.00    +0.033 A 
ATOM     24  C   UNL     1      -6.509  -9.296  10.681  0.00  0.00    +0.126 A 
BRANCH  24   9
ATOM      2  O   UNL     1      -8.591  -8.606   9.971  0.00  0.00    -0.126 OA
ATOM      3  O   UNL     1      -6.822  -7.817   8.940  0.00  0.00    -0.126 OA
ATOM      9  N   UNL     1      -7.348  -8.536   9.823  0.00  0.00    +0.056 N 
ENDBRANCH  24   9
ENDBRANCH  15  17
ENDBRANCH   5  15
ENDBRANCH  16  11
TORSDOF 8
ENDMDL
