MODEL 1
REMARK VINA RESULT:      -7.1      0.000      0.000
REMARK  Name = 11913213
REMARK  8 active torsions:
REMARK  status: ('A' for Active; 'I' for Inactive)
REMARK    1  A    between atoms: S_1  and  N_7
REMARK    2  A    between atoms: S_1  and  C_18
REMARK    3  A    between atoms: O_6  and  C_29
REMARK    4  A    between atoms: O_6  and  C_34
REMARK    5  A    between atoms: N_7  and  C_13
REMARK    6  A    between atoms: N_8  and  C_14
REMARK    7  A    between atoms: C_18  and  C_19
REMARK    8  A    between atoms: C_20  and  C_25
REMARK                            x       y       z     vdW  Elec       q    Type
REMARK                         _______ _______ _______ _____ _____    ______ ____
ROOT
ATOM      2  O   UNL     1      -7.130 -11.843  16.200  0.00  0.00    -0.370 OA
ATOM      3  O   UNL     1      -5.905 -11.975  19.071  0.00  0.00    -0.370 OA
ATOM     11  C   UNL     1      -6.371 -10.894  18.246  0.00  0.00    +0.170 C 
ATOM     12  C   UNL     1      -5.989 -11.223  16.816  0.00  0.00    +0.171 C 
ATOM     13  C   UNL     1      -7.880 -10.865  18.228  0.00  0.00    +0.133 C 
ATOM     14  C   UNL     1      -4.863 -12.220  16.952  0.00  0.00    +0.130 C 
ATOM     15  C   UNL     1      -8.221 -11.855  17.132  0.00  0.00    +0.183 C 
ATOM     16  C   UNL     1      -5.194 -12.919  18.258  0.00  0.00    +0.185 C 
ENDROOT
BRANCH  14   8
ATOM      8  N   UNL     1      -3.598 -11.526  17.065  0.00  0.00    -0.306 N 
ATOM      9  N   UNL     1      -3.425 -11.240  14.741  0.00  0.00    -0.214 NA
ATOM     10  N   UNL     1      -1.715 -10.407  16.222  0.00  0.00    -0.223 NA
ATOM     17  C   UNL     1      -2.892 -11.043  15.977  0.00  0.00    +0.216 A 
ATOM     20  C   UNL     1      -2.710 -10.756  13.704  0.00  0.00    +0.080 A 
ATOM     23  C   UNL     1      -1.053  -9.949  15.139  0.00  0.00    +0.116 A 
ATOM     24  C   UNL     1      -1.506 -10.096  13.844  0.00  0.00    +0.048 A 
ATOM     36  H   UNL     1      -3.217 -11.328  17.983  0.00  0.00    +0.149 HD
BRANCH  20  25
ATOM     25  C   UNL     1      -3.295 -10.975  12.402  0.00  0.00    +0.042 A 
ATOM     29  C   UNL     1      -3.098 -12.177  11.717  0.00  0.00    +0.129 A 
ATOM     30  C   UNL     1      -4.070  -9.968  11.822  0.00  0.00    +0.013 A 
ATOM     31  C   UNL     1      -3.671 -12.370  10.460  0.00  0.00    +0.046 A 
ATOM     32  C   UNL     1      -4.643 -10.160  10.565  0.00  0.00    +0.001 A 
ATOM     33  C   UNL     1      -4.444 -11.361   9.884  0.00  0.00    +0.004 A 
BRANCH  29   6
ATOM      6  O   UNL     1      -2.347 -13.180  12.256  0.00  0.00    -0.494 OA
ATOM     34  C   UNL     1      -2.817 -14.512  12.068  0.00  0.00    +0.277 C 
ENDBRANCH  29   6
ENDBRANCH  20  25
ENDBRANCH  14   8
BRANCH  13   7
ATOM      7  N   UNL     1      -8.347  -9.511  17.839  0.00  0.00    -0.186 NA
ATOM     35  H   UNL     1      -7.945  -8.711  18.343  0.00  0.00    +0.148 HD
BRANCH   7   1
ATOM      1  S   UNL     1      -9.871  -9.347  17.099  0.00  0.00    +0.034 S 
ATOM      4  O   UNL     1     -10.842 -10.188  17.772  0.00  0.00    -0.158 OA
ATOM      5  O   UNL     1      -9.690  -9.427  15.662  0.00  0.00    -0.158 OA
BRANCH   1  18
ATOM     18  C   UNL     1     -10.248  -7.654  17.493  0.00  0.00    +0.220 C 
BRANCH  18  19
ATOM     19  C   UNL     1     -11.239  -7.161  16.484  0.00  0.00    -0.025 A 
ATOM     21  C   UNL     1     -12.507  -7.732  16.424  0.00  0.00    +0.005 A 
ATOM     22  C   UNL     1     -10.886  -6.132  15.615  0.00  0.00    +0.005 A 
ATOM     26  C   UNL     1     -13.429  -7.273  15.485  0.00  0.00    +0.000 A 
ATOM     27  C   UNL     1     -11.810  -5.672  14.676  0.00  0.00    +0.000 A 
ATOM     28  C   UNL     1     -13.082  -6.243  14.611  0.00  0.00    +0.000 A 
ENDBRANCH  18  19
ENDBRANCH   1  18
ENDBRANCH   7   1
ENDBRANCH  13   7
TORSDOF 7
ENDMDL
MODEL 2
REMARK VINA RESULT:      -6.9     25.426     28.758
REMARK  Name = 11913213
REMARK  8 active torsions:
REMARK  status: ('A' for Active; 'I' for Inactive)
REMARK    1  A    between atoms: S_1  and  N_7
REMARK    2  A    between atoms: S_1  and  C_18
REMARK    3  A    between atoms: O_6  and  C_29
REMARK    4  A    between atoms: O_6  and  C_34
REMARK    5  A    between atoms: N_7  and  C_13
REMARK    6  A    between atoms: N_8  and  C_14
REMARK    7  A    between atoms: C_18  and  C_19
REMARK    8  A    between atoms: C_20  and  C_25
REMARK                            x       y       z     vdW  Elec       q    Type
REMARK                         _______ _______ _______ _____ _____    ______ ____
ROOT
ATOM      2  O   UNL     1      13.200   8.264   1.694  0.00  0.00    -0.370 OA
ATOM      3  O   UNL     1      15.180   6.626   3.471  0.00  0.00    -0.370 OA
ATOM     11  C   UNL     1      14.287   6.270   2.402  0.00  0.00    +0.170 C 
ATOM     12  C   UNL     1      13.042   7.123   2.553  0.00  0.00    +0.171 C 
ATOM     13  C   UNL     1      14.867   6.693   1.074  0.00  0.00    +0.133 C 
ATOM     14  C   UNL     1      13.059   7.552   4.001  0.00  0.00    +0.130 C 
ATOM     15  C   UNL     1      14.429   8.141   0.964  0.00  0.00    +0.183 C 
ATOM     16  C   UNL     1      14.543   7.592   4.319  0.00  0.00    +0.185 C 
ENDROOT
BRANCH  14   8
ATOM      8  N   UNL     1      12.401   6.557   4.819  0.00  0.00    -0.306 N 
ATOM      9  N   UNL     1      10.274   7.455   4.392  0.00  0.00    -0.214 NA
ATOM     10  N   UNL     1      10.540   5.519   5.804  0.00  0.00    -0.223 NA
ATOM     17  C   UNL     1      11.031   6.509   5.011  0.00  0.00    +0.216 A 
ATOM     20  C   UNL     1       8.944   7.378   4.601  0.00  0.00    +0.080 A 
ATOM     23  C   UNL     1       9.201   5.503   5.970  0.00  0.00    +0.116 A 
ATOM     24  C   UNL     1       8.344   6.415   5.387  0.00  0.00    +0.048 A 
ATOM     36  H   UNL     1      12.949   5.816   5.242  0.00  0.00    +0.149 HD
BRANCH  20  25
ATOM     25  C   UNL     1       8.160   8.391   3.935  0.00  0.00    +0.042 A 
ATOM     29  C   UNL     1       8.199   8.534   2.546  0.00  0.00    +0.129 A 
ATOM     30  C   UNL     1       7.349   9.239   4.695  0.00  0.00    +0.013 A 
ATOM     31  C   UNL     1       7.433   9.519   1.920  0.00  0.00    +0.046 A 
ATOM     32  C   UNL     1       6.584  10.224   4.070  0.00  0.00    +0.001 A 
ATOM     33  C   UNL     1       6.626  10.364   2.683  0.00  0.00    +0.004 A 
BRANCH  29   6
ATOM      6  O   UNL     1       8.979   7.723   1.775  0.00  0.00    -0.494 OA
ATOM     34  C   UNL     1       9.703   8.340   0.714  0.00  0.00    +0.277 C 
ENDBRANCH  29   6
ENDBRANCH  20  25
ENDBRANCH  14   8
BRANCH  13   7
ATOM      7  N   UNL     1      14.245   5.901  -0.016  0.00  0.00    -0.186 NA
ATOM     35  H   UNL     1      13.233   6.006  -0.156  0.00  0.00    +0.148 HD
BRANCH   7   1
ATOM      1  S   UNL     1      15.012   4.473  -0.536  0.00  0.00    +0.034 S 
ATOM      4  O   UNL     1      15.719   3.859   0.572  0.00  0.00    -0.158 OA
ATOM      5  O   UNL     1      15.691   4.752  -1.786  0.00  0.00    -0.158 OA
BRANCH   1  18
ATOM     18  C   UNL     1      13.601   3.459  -0.913  0.00  0.00    +0.220 C 
BRANCH  18  19
ATOM     19  C   UNL     1      12.547   3.744   0.111  0.00  0.00    -0.025 A 
ATOM     21  C   UNL     1      11.416   4.473  -0.244  0.00  0.00    +0.005 A 
ATOM     22  C   UNL     1      12.704   3.276   1.413  0.00  0.00    +0.005 A 
ATOM     26  C   UNL     1      10.435   4.739   0.710  0.00  0.00    +0.000 A 
ATOM     27  C   UNL     1      11.722   3.541   2.368  0.00  0.00    +0.000 A 
ATOM     28  C   UNL     1      10.587   4.273   2.016  0.00  0.00    +0.000 A 
ENDBRANCH  18  19
ENDBRANCH   1  18
ENDBRANCH   7   1
ENDBRANCH  13   7
TORSDOF 7
ENDMDL
MODEL 3
REMARK VINA RESULT:      -6.9      3.378      4.361
REMARK  Name = 11913213
REMARK  8 active torsions:
REMARK  status: ('A' for Active; 'I' for Inactive)
REMARK    1  A    between atoms: S_1  and  N_7
REMARK    2  A    between atoms: S_1  and  C_18
REMARK    3  A    between atoms: O_6  and  C_29
REMARK    4  A    between atoms: O_6  and  C_34
REMARK    5  A    between atoms: N_7  and  C_13
REMARK    6  A    between atoms: N_8  and  C_14
REMARK    7  A    between atoms: C_18  and  C_19
REMARK    8  A    between atoms: C_20  and  C_25
REMARK                            x       y       z     vdW  Elec       q    Type
REMARK                         _______ _______ _______ _____ _____    ______ ____
ROOT
ATOM      2  O   UNL     1      -7.348 -13.313  14.404  0.00  0.00    -0.370 OA
ATOM      3  O   UNL     1      -6.011 -15.091  16.598  0.00  0.00    -0.370 OA
ATOM     11  C   UNL     1      -6.552 -13.759  16.601  0.00  0.00    +0.170 C 
ATOM     12  C   UNL     1      -6.211 -13.131  15.264  0.00  0.00    +0.171 C 
ATOM     13  C   UNL     1      -8.061 -13.809  16.612  0.00  0.00    +0.133 C 
ATOM     14  C   UNL     1      -5.040 -13.942  14.761  0.00  0.00    +0.130 C 
ATOM     15  C   UNL     1      -8.401 -13.949  15.141  0.00  0.00    +0.183 C 
ATOM     16  C   UNL     1      -5.292 -15.307  15.375  0.00  0.00    +0.185 C 
ENDROOT
BRANCH  14   8
ATOM      8  N   UNL     1      -3.802 -13.389  15.266  0.00  0.00    -0.306 N 
ATOM      9  N   UNL     1      -3.749 -11.717  13.619  0.00  0.00    -0.214 NA
ATOM     10  N   UNL     1      -2.009 -11.873  15.279  0.00  0.00    -0.223 NA
ATOM     17  C   UNL     1      -3.168 -12.294  14.705  0.00  0.00    +0.216 A 
ATOM     20  C   UNL     1      -3.105 -10.653  13.097  0.00  0.00    +0.080 A 
ATOM     23  C   UNL     1      -1.418 -10.805  14.706  0.00  0.00    +0.116 A 
ATOM     24  C   UNL     1      -1.924 -10.147  13.604  0.00  0.00    +0.048 A 
ATOM     36  H   UNL     1      -3.387 -13.777  16.106  0.00  0.00    +0.149 HD
BRANCH  20  25
ATOM     25  C   UNL     1      -3.739 -10.056  11.946  0.00  0.00    +0.042 A 
ATOM     29  C   UNL     1      -5.076  -9.651  11.989  0.00  0.00    +0.129 A 
ATOM     30  C   UNL     1      -3.001  -9.880  10.772  0.00  0.00    +0.013 A 
ATOM     31  C   UNL     1      -5.672  -9.076  10.866  0.00  0.00    +0.046 A 
ATOM     32  C   UNL     1      -3.596  -9.305   9.650  0.00  0.00    +0.001 A 
ATOM     33  C   UNL     1      -4.931  -8.903   9.696  0.00  0.00    +0.004 A 
BRANCH  29   6
ATOM      6  O   UNL     1      -5.824  -9.809  13.119  0.00  0.00    -0.494 OA
ATOM     34  C   UNL     1      -7.239  -9.721  12.975  0.00  0.00    +0.277 C 
ENDBRANCH  29   6
ENDBRANCH  20  25
ENDBRANCH  14   8
BRANCH  13   7
ATOM      7  N   UNL     1      -8.598 -12.526  17.127  0.00  0.00    -0.186 NA
ATOM     35  H   UNL     1      -8.351 -11.672  16.613  0.00  0.00    +0.148 HD
BRANCH   7   1
ATOM      1  S   UNL     1      -9.023 -12.412  18.771  0.00  0.00    +0.034 S 
ATOM      4  O   UNL     1      -8.242 -13.353  19.551  0.00  0.00    -0.158 OA
ATOM      5  O   UNL     1     -10.470 -12.393  18.866  0.00  0.00    -0.158 OA
BRANCH   1  18
ATOM     18  C   UNL     1      -8.444 -10.774  19.150  0.00  0.00    +0.220 C 
BRANCH  18  19
ATOM     19  C   UNL     1      -7.161 -10.561  18.409  0.00  0.00    -0.025 A 
ATOM     21  C   UNL     1      -7.159  -9.833  17.223  0.00  0.00    +0.005 A 
ATOM     22  C   UNL     1      -5.976 -11.091  18.912  0.00  0.00    +0.005 A 
ATOM     26  C   UNL     1      -5.964  -9.635  16.533  0.00  0.00    +0.000 A 
ATOM     27  C   UNL     1      -4.780 -10.893  18.223  0.00  0.00    +0.000 A 
ATOM     28  C   UNL     1      -4.774 -10.164  17.032  0.00  0.00    +0.000 A 
ENDBRANCH  18  19
ENDBRANCH   1  18
ENDBRANCH   7   1
ENDBRANCH  13   7
TORSDOF 7
ENDMDL
MODEL 4
REMARK VINA RESULT:      -6.8      4.928      8.197
REMARK  Name = 11913213
REMARK  8 active torsions:
REMARK  status: ('A' for Active; 'I' for Inactive)
REMARK    1  A    between atoms: S_1  and  N_7
REMARK    2  A    between atoms: S_1  and  C_18
REMARK    3  A    between atoms: O_6  and  C_29
REMARK    4  A    between atoms: O_6  and  C_34
REMARK    5  A    between atoms: N_7  and  C_13
REMARK    6  A    between atoms: N_8  and  C_14
REMARK    7  A    between atoms: C_18  and  C_19
REMARK    8  A    between atoms: C_20  and  C_25
REMARK                            x       y       z     vdW  Elec       q    Type
REMARK                         _______ _______ _______ _____ _____    ______ ____
ROOT
ATOM      2  O   UNL     1      -6.901 -11.802  10.981  0.00  0.00    -0.370 OA
ATOM      3  O   UNL     1      -6.026  -8.803  11.011  0.00  0.00    -0.370 OA
ATOM     11  C   UNL     1      -5.737  -9.907  10.137  0.00  0.00    +0.170 C 
ATOM     12  C   UNL     1      -5.621 -11.147  11.001  0.00  0.00    +0.171 C 
ATOM     13  C   UNL     1      -6.920 -10.188   9.242  0.00  0.00    +0.133 C 
ATOM     14  C   UNL     1      -5.330 -10.611  12.382  0.00  0.00    +0.130 C 
ATOM     15  C   UNL     1      -7.784 -11.090  10.103  0.00  0.00    +0.183 C 
ATOM     16  C   UNL     1      -6.026  -9.262  12.370  0.00  0.00    +0.185 C 
ENDROOT
BRANCH  14   8
ATOM      8  N   UNL     1      -3.904 -10.435  12.554  0.00  0.00    -0.306 N 
ATOM      9  N   UNL     1      -4.044 -10.679  14.884  0.00  0.00    -0.214 NA
ATOM     10  N   UNL     1      -1.923 -10.292  13.806  0.00  0.00    -0.223 NA
ATOM     17  C   UNL     1      -3.272 -10.470  13.785  0.00  0.00    +0.216 A 
ATOM     20  C   UNL     1      -3.395 -10.707  16.067  0.00  0.00    +0.080 A 
ATOM     23  C   UNL     1      -1.340 -10.331  15.022  0.00  0.00    +0.116 A 
ATOM     24  C   UNL     1      -2.031 -10.537  16.198  0.00  0.00    +0.048 A 
ATOM     36  H   UNL     1      -3.312 -10.331  11.738  0.00  0.00    +0.149 HD
BRANCH  20  25
ATOM     25  C   UNL     1      -4.233 -10.931  17.221  0.00  0.00    +0.042 A 
ATOM     29  C   UNL     1      -5.489 -10.327  17.327  0.00  0.00    +0.129 A 
ATOM     30  C   UNL     1      -3.780 -11.767  18.244  0.00  0.00    +0.013 A 
ATOM     31  C   UNL     1      -6.285 -10.556  18.450  0.00  0.00    +0.046 A 
ATOM     32  C   UNL     1      -4.575 -11.996  19.367  0.00  0.00    +0.001 A 
ATOM     33  C   UNL     1      -5.828 -11.391  19.470  0.00  0.00    +0.004 A 
BRANCH  29   6
ATOM      6  O   UNL     1      -5.961  -9.506  16.346  0.00  0.00    -0.494 OA
ATOM     34  C   UNL     1      -7.377  -9.405  16.212  0.00  0.00    +0.277 C 
ENDBRANCH  29   6
ENDBRANCH  20  25
ENDBRANCH  14   8
BRANCH  13   7
ATOM      7  N   UNL     1      -6.469 -10.931   8.039  0.00  0.00    -0.186 NA
ATOM     35  H   UNL     1      -5.586 -11.449   8.110  0.00  0.00    +0.148 HD
BRANCH   7   1
ATOM      1  S   UNL     1      -7.019 -10.430   6.509  0.00  0.00    +0.034 S 
ATOM      4  O   UNL     1      -8.347 -10.960   6.261  0.00  0.00    -0.158 OA
ATOM      5  O   UNL     1      -5.949 -10.635   5.552  0.00  0.00    -0.158 OA
BRANCH   1  18
ATOM     18  C   UNL     1      -7.170  -8.678   6.769  0.00  0.00    +0.220 C 
BRANCH  18  19
ATOM     19  C   UNL     1      -8.142  -8.149   5.761  0.00  0.00    -0.025 A 
ATOM     21  C   UNL     1      -9.364  -7.632   6.181  0.00  0.00    +0.005 A 
ATOM     22  C   UNL     1      -7.815  -8.174   4.407  0.00  0.00    +0.005 A 
ATOM     26  C   UNL     1     -10.268  -7.139   5.242  0.00  0.00    +0.000 A 
ATOM     27  C   UNL     1      -8.720  -7.681   3.467  0.00  0.00    +0.000 A 
ATOM     28  C   UNL     1      -9.947  -7.163   3.885  0.00  0.00    +0.000 A 
ENDBRANCH  18  19
ENDBRANCH   1  18
ENDBRANCH   7   1
ENDBRANCH  13   7
TORSDOF 7
ENDMDL
MODEL 5
REMARK VINA RESULT:      -6.8      4.791      9.729
REMARK  Name = 11913213
REMARK  8 active torsions:
REMARK  status: ('A' for Active; 'I' for Inactive)
REMARK    1  A    between atoms: S_1  and  N_7
REMARK    2  A    between atoms: S_1  and  C_18
REMARK    3  A    between atoms: O_6  and  C_29
REMARK    4  A    between atoms: O_6  and  C_34
REMARK    5  A    between atoms: N_7  and  C_13
REMARK    6  A    between atoms: N_8  and  C_14
REMARK    7  A    between atoms: C_18  and  C_19
REMARK    8  A    between atoms: C_20  and  C_25
REMARK                            x       y       z     vdW  Elec       q    Type
REMARK                         _______ _______ _______ _____ _____    ______ ____
ROOT
ATOM      2  O   UNL     1      -5.876 -12.012  10.894  0.00  0.00    -0.370 OA
ATOM      3  O   UNL     1      -4.408  -9.473   9.815  0.00  0.00    -0.370 OA
ATOM     11  C   UNL     1      -4.159 -10.884   9.695  0.00  0.00    +0.170 C 
ATOM     12  C   UNL     1      -4.531 -11.522  11.019  0.00  0.00    +0.171 C 
ATOM     13  C   UNL     1      -5.118 -11.501   8.705  0.00  0.00    +0.133 C 
ATOM     14  C   UNL     1      -4.479 -10.381  12.007  0.00  0.00    +0.130 C 
ATOM     15  C   UNL     1      -6.340 -11.785   9.556  0.00  0.00    +0.183 C 
ATOM     16  C   UNL     1      -4.842  -9.182  11.151  0.00  0.00    +0.185 C 
ENDROOT
BRANCH  14   8
ATOM      8  N   UNL     1      -3.136 -10.236  12.526  0.00  0.00    -0.306 N 
ATOM      9  N   UNL     1      -3.799 -10.805  14.705  0.00  0.00    -0.214 NA
ATOM     10  N   UNL     1      -1.499 -10.277  14.208  0.00  0.00    -0.223 NA
ATOM     17  C   UNL     1      -2.801 -10.446  13.852  0.00  0.00    +0.216 A 
ATOM     20  C   UNL     1      -3.437 -11.001  15.989  0.00  0.00    +0.080 A 
ATOM     23  C   UNL     1      -1.209 -10.489  15.508  0.00  0.00    +0.116 A 
ATOM     24  C   UNL     1      -2.145 -10.857  16.454  0.00  0.00    +0.048 A 
ATOM     36  H   UNL     1      -2.376 -10.020  11.890  0.00  0.00    +0.149 HD
BRANCH  20  25
ATOM     25  C   UNL     1      -4.510 -11.383  16.877  0.00  0.00    +0.042 A 
ATOM     29  C   UNL     1      -4.987 -12.696  16.907  0.00  0.00    +0.129 A 
ATOM     30  C   UNL     1      -5.077 -10.422  17.718  0.00  0.00    +0.013 A 
ATOM     31  C   UNL     1      -6.025 -13.046  17.772  0.00  0.00    +0.046 A 
ATOM     32  C   UNL     1      -6.114 -10.771  18.582  0.00  0.00    +0.001 A 
ATOM     33  C   UNL     1      -6.588 -12.083  18.610  0.00  0.00    +0.004 A 
BRANCH  29   6
ATOM      6  O   UNL     1      -4.455 -13.658  16.099  0.00  0.00    -0.494 OA
ATOM     34  C   UNL     1      -5.258 -14.101  15.008  0.00  0.00    +0.277 C 
ENDBRANCH  29   6
ENDBRANCH  20  25
ENDBRANCH  14   8
BRANCH  13   7
ATOM      7  N   UNL     1      -4.556 -12.777   8.198  0.00  0.00    -0.186 NA
ATOM     35  H   UNL     1      -3.678 -13.105   8.617  0.00  0.00    +0.148 HD
BRANCH   7   1
ATOM      1  S   UNL     1      -4.973 -13.295   6.631  0.00  0.00    +0.034 S 
ATOM      4  O   UNL     1      -6.408 -13.482   6.535  0.00  0.00    -0.158 OA
ATOM      5  O   UNL     1      -4.059 -14.353   6.244  0.00  0.00    -0.158 OA
BRANCH   1  18
ATOM     18  C   UNL     1      -4.545 -11.852   5.683  0.00  0.00    +0.220 C 
BRANCH  18  19
ATOM     19  C   UNL     1      -4.231 -12.299   4.289  0.00  0.00    -0.025 A 
ATOM     21  C   UNL     1      -2.906 -12.451   3.893  0.00  0.00    +0.005 A 
ATOM     22  C   UNL     1      -5.268 -12.562   3.397  0.00  0.00    +0.005 A 
ATOM     26  C   UNL     1      -2.614 -12.867   2.595  0.00  0.00    +0.000 A 
ATOM     27  C   UNL     1      -4.976 -12.979   2.098  0.00  0.00    +0.000 A 
ATOM     28  C   UNL     1      -3.648 -13.131   1.697  0.00  0.00    +0.000 A 
ENDBRANCH  18  19
ENDBRANCH   1  18
ENDBRANCH   7   1
ENDBRANCH  13   7
TORSDOF 7
ENDMDL
MODEL 6
REMARK VINA RESULT:      -6.7     27.345     30.252
REMARK  Name = 11913213
REMARK  8 active torsions:
REMARK  status: ('A' for Active; 'I' for Inactive)
REMARK    1  A    between atoms: S_1  and  N_7
REMARK    2  A    between atoms: S_1  and  C_18
REMARK    3  A    between atoms: O_6  and  C_29
REMARK    4  A    between atoms: O_6  and  C_34
REMARK    5  A    between atoms: N_7  and  C_13
REMARK    6  A    between atoms: N_8  and  C_14
REMARK    7  A    between atoms: C_18  and  C_19
REMARK    8  A    between atoms: C_20  and  C_25
REMARK                            x       y       z     vdW  Elec       q    Type
REMARK                         _______ _______ _______ _____ _____    ______ ____
ROOT
ATOM      2  O   UNL     1      16.730  -2.189  29.963  0.00  0.00    -0.370 OA
ATOM      3  O   UNL     1      18.989  -2.965  31.978  0.00  0.00    -0.370 OA
ATOM     11  C   UNL     1      18.407  -1.711  31.582  0.00  0.00    +0.170 C 
ATOM     12  C   UNL     1      18.108  -1.802  30.099  0.00  0.00    +0.171 C 
ATOM     13  C   UNL     1      17.051  -1.541  32.223  0.00  0.00    +0.133 C 
ATOM     14  C   UNL     1      19.012  -2.906  29.604  0.00  0.00    +0.130 C 
ATOM     15  C   UNL     1      16.133  -2.275  31.265  0.00  0.00    +0.183 C 
ATOM     16  C   UNL     1      19.139  -3.803  30.822  0.00  0.00    +0.185 C 
ENDROOT
BRANCH  14   8
ATOM      8  N   UNL     1      20.305  -2.364  29.247  0.00  0.00    -0.306 N 
ATOM      9  N   UNL     1      19.701  -2.118  26.992  0.00  0.00    -0.214 NA
ATOM     10  N   UNL     1      21.894  -1.480  27.763  0.00  0.00    -0.223 NA
ATOM     17  C   UNL     1      20.643  -1.975  27.962  0.00  0.00    +0.216 A 
ATOM     20  C   UNL     1      20.064  -1.729  25.753  0.00  0.00    +0.080 A 
ATOM     23  C   UNL     1      22.189  -1.111  26.499  0.00  0.00    +0.116 A 
ATOM     24  C   UNL     1      21.307  -1.214  25.443  0.00  0.00    +0.048 A 
ATOM     36  H   UNL     1      20.997  -2.205  29.971  0.00  0.00    +0.149 HD
BRANCH  20  25
ATOM     25  C   UNL     1      19.049  -1.888  24.739  0.00  0.00    +0.042 A 
ATOM     29  C   UNL     1      19.001  -3.034  23.940  0.00  0.00    +0.129 A 
ATOM     30  C   UNL     1      18.099  -0.880  24.557  0.00  0.00    +0.013 A 
ATOM     31  C   UNL     1      18.012  -3.169  22.965  0.00  0.00    +0.046 A 
ATOM     32  C   UNL     1      17.110  -1.014  23.583  0.00  0.00    +0.001 A 
ATOM     33  C   UNL     1      17.066  -2.159  22.787  0.00  0.00    +0.004 A 
BRANCH  29   6
ATOM      6  O   UNL     1      19.913  -4.037  24.092  0.00  0.00    -0.494 OA
ATOM     34  C   UNL     1      19.537  -5.329  23.622  0.00  0.00    +0.277 C 
ENDBRANCH  29   6
ENDBRANCH  20  25
ENDBRANCH  14   8
BRANCH  13   7
ATOM      7  N   UNL     1      16.692  -0.101  32.252  0.00  0.00    -0.186 NA
ATOM     35  H   UNL     1      16.381   0.324  31.371  0.00  0.00    +0.148 HD
BRANCH   7   1
ATOM      1  S   UNL     1      17.361   0.890  33.463  0.00  0.00    +0.034 S 
ATOM      4  O   UNL     1      18.510   1.604  32.940  0.00  0.00    -0.158 OA
ATOM      5  O   UNL     1      17.464   0.111  34.682  0.00  0.00    -0.158 OA
BRANCH   1  18
ATOM     18  C   UNL     1      16.046   2.064  33.693  0.00  0.00    +0.220 C 
BRANCH  18  19
ATOM     19  C   UNL     1      16.498   3.373  33.124  0.00  0.00    -0.025 A 
ATOM     21  C   UNL     1      16.936   4.383  33.976  0.00  0.00    +0.005 A 
ATOM     22  C   UNL     1      16.479   3.571  31.746  0.00  0.00    +0.005 A 
ATOM     26  C   UNL     1      17.357   5.602  33.446  0.00  0.00    +0.000 A 
ATOM     27  C   UNL     1      16.901   4.790  31.216  0.00  0.00    +0.000 A 
ATOM     28  C   UNL     1      17.340   5.806  32.066  0.00  0.00    +0.000 A 
ENDBRANCH  18  19
ENDBRANCH   1  18
ENDBRANCH   7   1
ENDBRANCH  13   7
TORSDOF 7
ENDMDL
MODEL 7
REMARK VINA RESULT:      -6.7      4.465      8.105
REMARK  Name = 11913213
REMARK  8 active torsions:
REMARK  status: ('A' for Active; 'I' for Inactive)
REMARK    1  A    between atoms: S_1  and  N_7
REMARK    2  A    between atoms: S_1  and  C_18
REMARK    3  A    between atoms: O_6  and  C_29
REMARK    4  A    between atoms: O_6  and  C_34
REMARK    5  A    between atoms: N_7  and  C_13
REMARK    6  A    between atoms: N_8  and  C_14
REMARK    7  A    between atoms: C_18  and  C_19
REMARK    8  A    between atoms: C_20  and  C_25
REMARK                            x       y       z     vdW  Elec       q    Type
REMARK                         _______ _______ _______ _____ _____    ______ ____
ROOT
ATOM      2  O   UNL     1      -3.118 -11.603  10.732  0.00  0.00    -0.370 OA
ATOM      3  O   UNL     1      -4.576  -8.862  11.085  0.00  0.00    -0.370 OA
ATOM     11  C   UNL     1      -4.940 -10.220  11.385  0.00  0.00    +0.170 C 
ATOM     12  C   UNL     1      -4.382 -11.091  10.277  0.00  0.00    +0.171 C 
ATOM     13  C   UNL     1      -4.220 -10.691  12.625  0.00  0.00    +0.133 C 
ATOM     14  C   UNL     1      -4.175 -10.139   9.124  0.00  0.00    +0.130 C 
ATOM     15  C   UNL     1      -2.888 -11.165  12.079  0.00  0.00    +0.183 C 
ATOM     16  C   UNL     1      -3.890  -8.823   9.825  0.00  0.00    +0.185 C 
ENDROOT
BRANCH  14   8
ATOM      8  N   UNL     1      -5.390 -10.035   8.344  0.00  0.00    -0.306 N 
ATOM      9  N   UNL     1      -4.516 -11.349   6.606  0.00  0.00    -0.214 NA
ATOM     10  N   UNL     1      -6.752 -10.456   6.479  0.00  0.00    -0.223 NA
ATOM     17  C   UNL     1      -5.557 -10.632   7.106  0.00  0.00    +0.216 A 
ATOM     20  C   UNL     1      -4.714 -11.916   5.398  0.00  0.00    +0.080 A 
ATOM     23  C   UNL     1      -6.880 -11.051   5.275  0.00  0.00    +0.116 A 
ATOM     24  C   UNL     1      -5.886 -11.800   4.679  0.00  0.00    +0.048 A 
ATOM     36  H   UNL     1      -6.191  -9.547   8.730  0.00  0.00    +0.149 HD
BRANCH  20  25
ATOM     25  C   UNL     1      -3.596 -12.673   4.886  0.00  0.00    +0.042 A 
ATOM     29  C   UNL     1      -3.027 -13.710   5.631  0.00  0.00    +0.129 A 
ATOM     30  C   UNL     1      -3.079 -12.363   3.626  0.00  0.00    +0.013 A 
ATOM     31  C   UNL     1      -1.948 -14.431   5.119  0.00  0.00    +0.046 A 
ATOM     32  C   UNL     1      -2.000 -13.083   3.114  0.00  0.00    +0.001 A 
ATOM     33  C   UNL     1      -1.435 -14.117   3.860  0.00  0.00    +0.004 A 
BRANCH  29   6
ATOM      6  O   UNL     1      -3.508 -14.038   6.864  0.00  0.00    -0.494 OA
ATOM     34  C   UNL     1      -3.535 -15.422   7.201  0.00  0.00    +0.277 C 
ENDBRANCH  29   6
ENDBRANCH  20  25
ENDBRANCH  14   8
BRANCH  13   7
ATOM      7  N   UNL     1      -4.951 -11.838  13.219  0.00  0.00    -0.186 NA
ATOM     35  H   UNL     1      -5.875 -12.060  12.829  0.00  0.00    +0.148 HD
BRANCH   7   1
ATOM      1  S   UNL     1      -4.586 -12.311  14.813  0.00  0.00    +0.034 S 
ATOM      4  O   UNL     1      -3.277 -12.934  14.857  0.00  0.00    -0.158 OA
ATOM      5  O   UNL     1      -5.746 -12.983  15.365  0.00  0.00    -0.158 OA
BRANCH   1  18
ATOM     18  C   UNL     1      -4.463 -10.724  15.607  0.00  0.00    +0.220 C 
BRANCH  18  19
ATOM     19  C   UNL     1      -4.878 -10.896  17.035  0.00  0.00    -0.025 A 
ATOM     21  C   UNL     1      -4.046 -11.577  17.920  0.00  0.00    +0.005 A 
ATOM     22  C   UNL     1      -6.092 -10.372  17.470  0.00  0.00    +0.005 A 
ATOM     26  C   UNL     1      -4.433 -11.736  19.250  0.00  0.00    +0.000 A 
ATOM     27  C   UNL     1      -6.479 -10.531  18.801  0.00  0.00    +0.000 A 
ATOM     28  C   UNL     1      -5.648 -11.214  19.691  0.00  0.00    +0.000 A 
ENDBRANCH  18  19
ENDBRANCH   1  18
ENDBRANCH   7   1
ENDBRANCH  13   7
TORSDOF 7
ENDMDL
MODEL 8
REMARK VINA RESULT:      -6.6      4.041      9.240
REMARK  Name = 11913213
REMARK  8 active torsions:
REMARK  status: ('A' for Active; 'I' for Inactive)
REMARK    1  A    between atoms: S_1  and  N_7
REMARK    2  A    between atoms: S_1  and  C_18
REMARK    3  A    between atoms: O_6  and  C_29
REMARK    4  A    between atoms: O_6  and  C_34
REMARK    5  A    between atoms: N_7  and  C_13
REMARK    6  A    between atoms: N_8  and  C_14
REMARK    7  A    between atoms: C_18  and  C_19
REMARK    8  A    between atoms: C_20  and  C_25
REMARK                            x       y       z     vdW  Elec       q    Type
REMARK                         _______ _______ _______ _____ _____    ______ ____
ROOT
ATOM      2  O   UNL     1      -8.945  -9.122  15.492  0.00  0.00    -0.370 OA
ATOM      3  O   UNL     1     -11.069  -7.806  17.368  0.00  0.00    -0.370 OA
ATOM     11  C   UNL     1     -10.720  -9.170  17.076  0.00  0.00    +0.170 C 
ATOM     12  C   UNL     1     -10.373  -9.240  15.601  0.00  0.00    +0.171 C 
ATOM     13  C   UNL     1      -9.435  -9.541  17.776  0.00  0.00    +0.133 C 
ATOM     14  C   UNL     1     -11.045  -8.026  15.004  0.00  0.00    +0.130 C 
ATOM     15  C   UNL     1      -8.374  -9.056  16.807  0.00  0.00    +0.183 C 
ATOM     16  C   UNL     1     -11.033  -7.038  16.157  0.00  0.00    +0.185 C 
ENDROOT
BRANCH  14   8
ATOM      8  N   UNL     1     -12.407  -8.345  14.635  0.00  0.00    -0.306 N 
ATOM      9  N   UNL     1     -12.290  -7.063  12.672  0.00  0.00    -0.214 NA
ATOM     10  N   UNL     1     -14.305  -8.252  13.257  0.00  0.00    -0.223 NA
ATOM     17  C   UNL     1     -13.019  -7.873  13.487  0.00  0.00    +0.216 A 
ATOM     20  C   UNL     1     -12.918  -6.621  11.563  0.00  0.00    +0.080 A 
ATOM     23  C   UNL     1     -14.870  -7.772  12.130  0.00  0.00    +0.116 A 
ATOM     24  C   UNL     1     -14.220  -6.946  11.236  0.00  0.00    +0.048 A 
ATOM     36  H   UNL     1     -12.941  -8.990  15.207  0.00  0.00    +0.149 HD
BRANCH  20  25
ATOM     25  C   UNL     1     -12.127  -5.764  10.712  0.00  0.00    +0.042 A 
ATOM     29  C   UNL     1     -12.161  -4.375  10.857  0.00  0.00    +0.129 A 
ATOM     30  C   UNL     1     -11.315  -6.337   9.729  0.00  0.00    +0.013 A 
ATOM     31  C   UNL     1     -11.389  -3.563  10.025  0.00  0.00    +0.046 A 
ATOM     32  C   UNL     1     -10.543  -5.526   8.897  0.00  0.00    +0.001 A 
ATOM     33  C   UNL     1     -10.580  -4.140   9.045  0.00  0.00    +0.004 A 
BRANCH  29   6
ATOM      6  O   UNL     1     -12.943  -3.785  11.806  0.00  0.00    -0.494 OA
ATOM     34  C   UNL     1     -14.162  -3.193  11.362  0.00  0.00    +0.277 C 
ENDBRANCH  29   6
ENDBRANCH  20  25
ENDBRANCH  14   8
BRANCH  13   7
ATOM      7  N   UNL     1      -9.350 -11.016  17.911  0.00  0.00    -0.186 NA
ATOM     35  H   UNL     1     -10.033 -11.577  17.388  0.00  0.00    +0.148 HD
BRANCH   7   1
ATOM      1  S   UNL     1      -8.624 -11.675  19.302  0.00  0.00    +0.034 S 
ATOM      4  O   UNL     1      -9.631 -12.300  20.138  0.00  0.00    -0.158 OA
ATOM      5  O   UNL     1      -7.713 -10.688  19.850  0.00  0.00    -0.158 OA
BRANCH   1  18
ATOM     18  C   UNL     1      -7.636 -12.965  18.579  0.00  0.00    +0.220 C 
BRANCH  18  19
ATOM     19  C   UNL     1      -6.337 -12.358  18.149  0.00  0.00    -0.025 A 
ATOM     21  C   UNL     1      -5.275 -12.289  19.046  0.00  0.00    +0.005 A 
ATOM     22  C   UNL     1      -6.198 -11.868  16.853  0.00  0.00    +0.005 A 
ATOM     26  C   UNL     1      -4.065 -11.724  18.645  0.00  0.00    +0.000 A 
ATOM     27  C   UNL     1      -4.987 -11.303  16.452  0.00  0.00    +0.000 A 
ATOM     28  C   UNL     1      -3.921 -11.231  17.349  0.00  0.00    +0.000 A 
ENDBRANCH  18  19
ENDBRANCH   1  18
ENDBRANCH   7   1
ENDBRANCH  13   7
TORSDOF 7
ENDMDL
MODEL 9
REMARK VINA RESULT:      -6.6      4.390      8.847
REMARK  Name = 11913213
REMARK  8 active torsions:
REMARK  status: ('A' for Active; 'I' for Inactive)
REMARK    1  A    between atoms: S_1  and  N_7
REMARK    2  A    between atoms: S_1  and  C_18
REMARK    3  A    between atoms: O_6  and  C_29
REMARK    4  A    between atoms: O_6  and  C_34
REMARK    5  A    between atoms: N_7  and  C_13
REMARK    6  A    between atoms: N_8  and  C_14
REMARK    7  A    between atoms: C_18  and  C_19
REMARK    8  A    between atoms: C_20  and  C_25
REMARK                            x       y       z     vdW  Elec       q    Type
REMARK                         _______ _______ _______ _____ _____    ______ ____
ROOT
ATOM      2  O   UNL     1      -7.545 -11.804  11.321  0.00  0.00    -0.370 OA
ATOM      3  O   UNL     1      -6.558  -8.844  11.157  0.00  0.00    -0.370 OA
ATOM     11  C   UNL     1      -6.371  -9.995  10.316  0.00  0.00    +0.170 C 
ATOM     12  C   UNL     1      -6.244 -11.202  11.225  0.00  0.00    +0.171 C 
ATOM     13  C   UNL     1      -7.623 -10.265   9.516  0.00  0.00    +0.133 C 
ATOM     14  C   UNL     1      -5.838 -10.620  12.559  0.00  0.00    +0.130 C 
ATOM     15  C   UNL     1      -8.459 -11.094  10.473  0.00  0.00    +0.183 C 
ATOM     16  C   UNL     1      -6.482  -9.246  12.532  0.00  0.00    +0.185 C 
ENDROOT
BRANCH  14   8
ATOM      8  N   UNL     1      -4.398 -10.495  12.626  0.00  0.00    -0.306 N 
ATOM      9  N   UNL     1      -4.381 -10.705  14.964  0.00  0.00    -0.214 NA
ATOM     10  N   UNL     1      -2.330 -10.410  13.733  0.00  0.00    -0.223 NA
ATOM     17  C   UNL     1      -3.682 -10.539  13.810  0.00  0.00    +0.216 A 
ATOM     20  C   UNL     1      -3.651 -10.742  16.098  0.00  0.00    +0.080 A 
ATOM     23  C   UNL     1      -1.663 -10.456  14.905  0.00  0.00    +0.116 A 
ATOM     24  C   UNL     1      -2.276 -10.622  16.130  0.00  0.00    +0.048 A 
ATOM     36  H   UNL     1      -3.862 -10.423  11.769  0.00  0.00    +0.149 HD
BRANCH  20  25
ATOM     25  C   UNL     1      -4.412 -10.921  17.311  0.00  0.00    +0.042 A 
ATOM     29  C   UNL     1      -5.641 -10.279  17.492  0.00  0.00    +0.129 A 
ATOM     30  C   UNL     1      -3.911 -11.750  18.318  0.00  0.00    +0.013 A 
ATOM     31  C   UNL     1      -6.362 -10.465  18.672  0.00  0.00    +0.046 A 
ATOM     32  C   UNL     1      -4.632 -11.936  19.498  0.00  0.00    +0.001 A 
ATOM     33  C   UNL     1      -5.858 -11.294  19.675  0.00  0.00    +0.004 A 
BRANCH  29   6
ATOM      6  O   UNL     1      -6.157  -9.464  16.529  0.00  0.00    -0.494 OA
ATOM     34  C   UNL     1      -7.570  -9.501  16.340  0.00  0.00    +0.277 C 
ENDBRANCH  29   6
ENDBRANCH  20  25
ENDBRANCH  14   8
BRANCH  13   7
ATOM      7  N   UNL     1      -7.284 -11.076   8.320  0.00  0.00    -0.186 NA
ATOM     35  H   UNL     1      -6.320 -11.421   8.243  0.00  0.00    +0.148 HD
BRANCH   7   1
ATOM      1  S   UNL     1      -8.216 -10.890   6.908  0.00  0.00    +0.034 S 
ATOM      4  O   UNL     1      -9.388 -10.083   7.191  0.00  0.00    -0.158 OA
ATOM      5  O   UNL     1      -8.344 -12.187   6.274  0.00  0.00    -0.158 OA
BRANCH   1  18
ATOM     18  C   UNL     1      -7.111  -9.918   5.910  0.00  0.00    +0.220 C 
BRANCH  18  19
ATOM     19  C   UNL     1      -6.166 -10.858   5.228  0.00  0.00    -0.025 A 
ATOM     21  C   UNL     1      -6.485 -11.370   3.974  0.00  0.00    +0.005 A 
ATOM     22  C   UNL     1      -4.972 -11.212   5.851  0.00  0.00    +0.005 A 
ATOM     26  C   UNL     1      -5.605 -12.245   3.339  0.00  0.00    +0.000 A 
ATOM     27  C   UNL     1      -4.092 -12.087   5.216  0.00  0.00    +0.000 A 
ATOM     28  C   UNL     1      -4.409 -12.604   3.959  0.00  0.00    +0.000 A 
ENDBRANCH  18  19
ENDBRANCH   1  18
ENDBRANCH   7   1
ENDBRANCH  13   7
TORSDOF 7
ENDMDL
MODEL 10
REMARK VINA RESULT:      -6.3      1.997      2.872
REMARK  Name = 11913213
REMARK  8 active torsions:
REMARK  status: ('A' for Active; 'I' for Inactive)
REMARK    1  A    between atoms: S_1  and  N_7
REMARK    2  A    between atoms: S_1  and  C_18
REMARK    3  A    between atoms: O_6  and  C_29
REMARK    4  A    between atoms: O_6  and  C_34
REMARK    5  A    between atoms: N_7  and  C_13
REMARK    6  A    between atoms: N_8  and  C_14
REMARK    7  A    between atoms: C_18  and  C_19
REMARK    8  A    between atoms: C_20  and  C_25
REMARK                            x       y       z     vdW  Elec       q    Type
REMARK                         _______ _______ _______ _____ _____    ______ ____
ROOT
ATOM      2  O   UNL     1      -7.961 -10.952  14.190  0.00  0.00    -0.370 OA
ATOM      3  O   UNL     1      -7.016 -10.943  17.168  0.00  0.00    -0.370 OA
ATOM     11  C   UNL     1      -7.243  -9.903  16.202  0.00  0.00    +0.170 C 
ATOM     12  C   UNL     1      -6.796 -10.435  14.855  0.00  0.00    +0.171 C 
ATOM     13  C   UNL     1      -8.724  -9.664  16.032  0.00  0.00    +0.133 C 
ATOM     14  C   UNL     1      -5.847 -11.560  15.196  0.00  0.00    +0.130 C 
ATOM     15  C   UNL     1      -9.116 -10.710  15.006  0.00  0.00    +0.183 C 
ATOM     16  C   UNL     1      -6.388 -12.060  16.523  0.00  0.00    +0.185 C 
ENDROOT
BRANCH  14   8
ATOM      8  N   UNL     1      -4.507 -11.042  15.367  0.00  0.00    -0.306 N 
ATOM      9  N   UNL     1      -4.056 -11.148  13.065  0.00  0.00    -0.214 NA
ATOM     10  N   UNL     1      -2.395 -10.344  14.617  0.00  0.00    -0.223 NA
ATOM     17  C   UNL     1      -3.627 -10.838  14.318  0.00  0.00    +0.216 A 
ATOM     20  C   UNL     1      -3.172 -10.937  12.068  0.00  0.00    +0.080 A 
ATOM     23  C   UNL     1      -1.563 -10.159  13.571  0.00  0.00    +0.116 A 
ATOM     24  C   UNL     1      -1.899 -10.440  12.263  0.00  0.00    +0.048 A 
ATOM     36  H   UNL     1      -4.195 -10.759  16.289  0.00  0.00    +0.149 HD
BRANCH  20  25
ATOM     25  C   UNL     1      -3.648 -11.271  10.747  0.00  0.00    +0.042 A 
ATOM     29  C   UNL     1      -3.987 -10.273   9.829  0.00  0.00    +0.129 A 
ATOM     30  C   UNL     1      -3.770 -12.615  10.382  0.00  0.00    +0.013 A 
ATOM     31  C   UNL     1      -4.445 -10.615   8.557  0.00  0.00    +0.046 A 
ATOM     32  C   UNL     1      -4.228 -12.958   9.111  0.00  0.00    +0.001 A 
ATOM     33  C   UNL     1      -4.565 -11.958   8.198  0.00  0.00    +0.004 A 
BRANCH  29   6
ATOM      6  O   UNL     1      -3.879  -8.952  10.154  0.00  0.00    -0.494 OA
ATOM     34  C   UNL     1      -5.093  -8.244  10.393  0.00  0.00    +0.277 C 
ENDBRANCH  29   6
ENDBRANCH  20  25
ENDBRANCH  14   8
BRANCH  13   7
ATOM      7  N   UNL     1      -8.948  -8.309  15.471  0.00  0.00    -0.186 NA
ATOM     35  H   UNL     1      -8.123  -7.793  15.143  0.00  0.00    +0.148 HD
BRANCH   7   1
ATOM      1  S   UNL     1     -10.339  -7.445  15.936  0.00  0.00    +0.034 S 
ATOM      4  O   UNL     1     -10.231  -6.063  15.507  0.00  0.00    -0.158 OA
ATOM      5  O   UNL     1     -10.635  -7.771  17.318  0.00  0.00    -0.158 OA
BRANCH   1  18
ATOM     18  C   UNL     1     -11.572  -8.236  14.928  0.00  0.00    +0.220 C 
BRANCH  18  19
ATOM     19  C   UNL     1     -12.877  -8.153  15.655  0.00  0.00    -0.025 A 
ATOM     21  C   UNL     1     -13.349  -9.258  16.359  0.00  0.00    +0.005 A 
ATOM     22  C   UNL     1     -13.611  -6.970  15.626  0.00  0.00    +0.005 A 
ATOM     26  C   UNL     1     -14.565  -9.181  17.036  0.00  0.00    +0.000 A 
ATOM     27  C   UNL     1     -14.828  -6.893  16.305  0.00  0.00    +0.000 A 
ATOM     28  C   UNL     1     -15.305  -7.999  17.010  0.00  0.00    +0.000 A 
ENDBRANCH  18  19
ENDBRANCH   1  18
ENDBRANCH   7   1
ENDBRANCH  13   7
TORSDOF 7
ENDMDL
