MODEL 1
REMARK VINA RESULT:      -5.6      0.000      0.000
REMARK  Name = 75367805
REMARK  10 active torsions:
REMARK  status: ('A' for Active; 'I' for Inactive)
REMARK    1  A    between atoms: O_1  and  C_5
REMARK    2  A    between atoms: O_1  and  C_11
REMARK    3  A    between atoms: O_3  and  C_21
REMARK    4  A    between atoms: O_3  and  C_22
REMARK    5  A    between atoms: N_4  and  C_9
REMARK    6  A    between atoms: C_9  and  C_14
REMARK    7  A    between atoms: C_11  and  C_12
REMARK    8  A    between atoms: C_12  and  C_13
REMARK    9  A    between atoms: C_13  and  C_15
REMARK   10  A    between atoms: C_13  and  C_16
REMARK                            x       y       z     vdW  Elec       q    Type
REMARK                         _______ _______ _______ _____ _____    ______ ____
ROOT
ATOM      2  O   UNL     1      -3.478 -13.720  15.036  0.00  0.00    -0.376 OA
ATOM      4  N   UNL     1      -2.735 -11.483  12.993  0.00  0.00    -0.293 NA
ATOM      5  C   UNL     1      -3.165 -11.370  15.527  0.00  0.00    +0.158 C 
ATOM      6  C   UNL     1      -2.853 -10.658  14.201  0.00  0.00    +0.118 C 
ATOM      7  C   UNL     1      -2.099 -12.784  13.211  0.00  0.00    +0.113 C 
ATOM      8  C   UNL     1      -4.153 -12.523  15.405  0.00  0.00    +0.192 C 
ATOM     10  C   UNL     1      -3.144 -13.807  13.658  0.00  0.00    +0.175 C 
ENDROOT
BRANCH   5   1
ATOM      1  O   UNL     1      -3.717 -10.409  16.428  0.00  0.00    -0.373 OA
BRANCH   1  11
ATOM     11  C   UNL     1      -5.057 -10.729  16.764  0.00  0.00    +0.160 C 
BRANCH  11  12
ATOM     12  C   UNL     1      -5.286 -10.397  18.233  0.00  0.00    +0.031 C 
BRANCH  12  13
ATOM     13  C   UNL     1      -5.265 -11.626  19.157  0.00  0.00    -0.015 C 
ATOM     15  C   UNL     1      -6.174 -12.719  18.587  0.00  0.00    +0.007 C 
ATOM     16  C   UNL     1      -3.855 -12.181  19.358  0.00  0.00    +0.007 C 
ENDBRANCH  12  13
ENDBRANCH  11  12
ENDBRANCH   1  11
ENDBRANCH   5   1
BRANCH   4   9
ATOM      9  C   UNL     1      -2.064 -10.730  11.934  0.00  0.00    +0.119 C 
BRANCH   9  14
ATOM     14  C   UNL     1      -2.983 -10.452  10.774  0.00  0.00    -0.033 A 
ATOM     17  C   UNL     1      -3.157  -9.146  10.318  0.00  0.00    +0.008 A 
ATOM     18  C   UNL     1      -3.660 -11.503  10.155  0.00  0.00    +0.008 A 
ATOM     19  C   UNL     1      -4.007  -8.889   9.242  0.00  0.00    +0.046 A 
ATOM     20  C   UNL     1      -4.511 -11.247   9.079  0.00  0.00    +0.046 A 
ATOM     21  C   UNL     1      -4.685  -9.940   8.624  0.00  0.00    +0.120 A 
BRANCH  21   3
ATOM      3  O   UNL     1      -5.514  -9.691   7.574  0.00  0.00    -0.495 OA
ATOM     22  C   UNL     1      -5.560 -10.668   6.536  0.00  0.00    +0.277 C 
ENDBRANCH  21   3
ENDBRANCH   9  14
ENDBRANCH   4   9
TORSDOF 7
ENDMDL
MODEL 2
REMARK VINA RESULT:      -5.4     22.299     26.462
REMARK  Name = 75367805
REMARK  10 active torsions:
REMARK  status: ('A' for Active; 'I' for Inactive)
REMARK    1  A    between atoms: O_1  and  C_5
REMARK    2  A    between atoms: O_1  and  C_11
REMARK    3  A    between atoms: O_3  and  C_21
REMARK    4  A    between atoms: O_3  and  C_22
REMARK    5  A    between atoms: N_4  and  C_9
REMARK    6  A    between atoms: C_9  and  C_14
REMARK    7  A    between atoms: C_11  and  C_12
REMARK    8  A    between atoms: C_12  and  C_13
REMARK    9  A    between atoms: C_13  and  C_15
REMARK   10  A    between atoms: C_13  and  C_16
REMARK                            x       y       z     vdW  Elec       q    Type
REMARK                         _______ _______ _______ _____ _____    ______ ____
ROOT
ATOM      2  O   UNL     1     -18.072   5.876  34.131  0.00  0.00    -0.376 OA
ATOM      4  N   UNL     1     -15.659   4.161  33.146  0.00  0.00    -0.293 NA
ATOM      5  C   UNL     1     -17.492   5.396  31.830  0.00  0.00    +0.158 C 
ATOM      6  C   UNL     1     -16.256   4.482  31.845  0.00  0.00    +0.118 C 
ATOM      7  C   UNL     1     -15.677   5.266  34.107  0.00  0.00    +0.113 C 
ATOM      8  C   UNL     1     -18.469   5.152  32.972  0.00  0.00    +0.192 C 
ATOM     10  C   UNL     1     -17.007   5.281  34.860  0.00  0.00    +0.175 C 
ENDROOT
BRANCH   5   1
ATOM      1  O   UNL     1     -18.187   5.182  30.601  0.00  0.00    -0.373 OA
BRANCH   1  11
ATOM     11  C   UNL     1     -18.656   3.847  30.500  0.00  0.00    +0.160 C 
BRANCH  11  12
ATOM     12  C   UNL     1     -18.393   3.343  29.086  0.00  0.00    +0.031 C 
BRANCH  12  13
ATOM     13  C   UNL     1     -17.062   2.588  28.935  0.00  0.00    -0.015 C 
ATOM     15  C   UNL     1     -17.325   1.166  28.434  0.00  0.00    +0.007 C 
ATOM     16  C   UNL     1     -16.093   3.298  27.990  0.00  0.00    +0.007 C 
ENDBRANCH  12  13
ENDBRANCH  11  12
ENDBRANCH   1  11
ENDBRANCH   5   1
BRANCH   4   9
ATOM      9  C   UNL     1     -14.307   3.633  32.962  0.00  0.00    +0.119 C 
BRANCH   9  14
ATOM     14  C   UNL     1     -14.293   2.434  32.052  0.00  0.00    -0.033 A 
ATOM     17  C   UNL     1     -14.918   1.251  32.445  0.00  0.00    +0.008 A 
ATOM     18  C   UNL     1     -13.655   2.506  30.814  0.00  0.00    +0.008 A 
ATOM     19  C   UNL     1     -14.906   0.140  31.602  0.00  0.00    +0.046 A 
ATOM     20  C   UNL     1     -13.641   1.396  29.969  0.00  0.00    +0.046 A 
ATOM     21  C   UNL     1     -14.267   0.213  30.364  0.00  0.00    +0.120 A 
BRANCH  21   3
ATOM      3  O   UNL     1     -14.255  -0.870  29.539  0.00  0.00    -0.495 OA
ATOM     22  C   UNL     1     -12.980  -1.412  29.199  0.00  0.00    +0.277 C 
ENDBRANCH  21   3
ENDBRANCH   9  14
ENDBRANCH   4   9
TORSDOF 7
ENDMDL
MODEL 3
REMARK VINA RESULT:      -5.4     23.068     25.589
REMARK  Name = 75367805
REMARK  10 active torsions:
REMARK  status: ('A' for Active; 'I' for Inactive)
REMARK    1  A    between atoms: O_1  and  C_5
REMARK    2  A    between atoms: O_1  and  C_11
REMARK    3  A    between atoms: O_3  and  C_21
REMARK    4  A    between atoms: O_3  and  C_22
REMARK    5  A    between atoms: N_4  and  C_9
REMARK    6  A    between atoms: C_9  and  C_14
REMARK    7  A    between atoms: C_11  and  C_12
REMARK    8  A    between atoms: C_12  and  C_13
REMARK    9  A    between atoms: C_13  and  C_15
REMARK   10  A    between atoms: C_13  and  C_16
REMARK                            x       y       z     vdW  Elec       q    Type
REMARK                         _______ _______ _______ _____ _____    ______ ____
ROOT
ATOM      2  O   UNL     1      11.449   7.250   3.608  0.00  0.00    -0.376 OA
ATOM      4  N   UNL     1      12.051   4.632   2.020  0.00  0.00    -0.293 NA
ATOM      5  C   UNL     1      10.530   5.055   4.052  0.00  0.00    +0.158 C 
ATOM      6  C   UNL     1      11.150   4.080   3.039  0.00  0.00    +0.118 C 
ATOM      7  C   UNL     1      11.655   5.949   1.516  0.00  0.00    +0.113 C 
ATOM      8  C   UNL     1      11.470   6.157   4.520  0.00  0.00    +0.192 C 
ATOM     10  C   UNL     1      12.212   7.045   2.426  0.00  0.00    +0.175 C 
ENDROOT
BRANCH   5   1
ATOM      1  O   UNL     1      10.125   4.305   5.199  0.00  0.00    -0.373 OA
BRANCH   1  11
ATOM     11  C   UNL     1       9.675   5.157   6.239  0.00  0.00    +0.160 C 
BRANCH  11  12
ATOM     12  C   UNL     1       9.859   4.441   7.571  0.00  0.00    +0.031 C 
BRANCH  12  13
ATOM     13  C   UNL     1       9.809   5.377   8.790  0.00  0.00    -0.015 C 
ATOM     15  C   UNL     1       9.088   6.675   8.419  0.00  0.00    +0.007 C 
ATOM     16  C   UNL     1       9.122   4.730   9.993  0.00  0.00    +0.007 C 
ENDBRANCH  12  13
ENDBRANCH  11  12
ENDBRANCH   1  11
ENDBRANCH   5   1
BRANCH   4   9
ATOM      9  C   UNL     1      12.228   3.672   0.931  0.00  0.00    +0.119 C 
BRANCH   9  14
ATOM     14  C   UNL     1      13.533   3.878   0.208  0.00  0.00    -0.033 A 
ATOM     17  C   UNL     1      14.733   3.869   0.919  0.00  0.00    +0.008 A 
ATOM     18  C   UNL     1      13.541   4.076  -1.172  0.00  0.00    +0.008 A 
ATOM     19  C   UNL     1      15.942   4.059   0.249  0.00  0.00    +0.046 A 
ATOM     20  C   UNL     1      14.749   4.265  -1.843  0.00  0.00    +0.046 A 
ATOM     21  C   UNL     1      15.950   4.257  -1.132  0.00  0.00    +0.120 A 
BRANCH  21   3
ATOM      3  O   UNL     1      17.129   4.441  -1.787  0.00  0.00    -0.495 OA
ATOM     22  C   UNL     1      17.751   5.719  -1.656  0.00  0.00    +0.277 C 
ENDBRANCH  21   3
ENDBRANCH   9  14
ENDBRANCH   4   9
TORSDOF 7
ENDMDL
MODEL 4
REMARK VINA RESULT:      -5.2      1.425      1.804
REMARK  Name = 75367805
REMARK  10 active torsions:
REMARK  status: ('A' for Active; 'I' for Inactive)
REMARK    1  A    between atoms: O_1  and  C_5
REMARK    2  A    between atoms: O_1  and  C_11
REMARK    3  A    between atoms: O_3  and  C_21
REMARK    4  A    between atoms: O_3  and  C_22
REMARK    5  A    between atoms: N_4  and  C_9
REMARK    6  A    between atoms: C_9  and  C_14
REMARK    7  A    between atoms: C_11  and  C_12
REMARK    8  A    between atoms: C_12  and  C_13
REMARK    9  A    between atoms: C_13  and  C_15
REMARK   10  A    between atoms: C_13  and  C_16
REMARK                            x       y       z     vdW  Elec       q    Type
REMARK                         _______ _______ _______ _____ _____    ______ ____
ROOT
ATOM      2  O   UNL     1      -3.124 -13.832  14.473  0.00  0.00    -0.376 OA
ATOM      4  N   UNL     1      -2.898 -11.263  12.717  0.00  0.00    -0.293 NA
ATOM      5  C   UNL     1      -2.796 -11.570  15.270  0.00  0.00    +0.158 C 
ATOM      6  C   UNL     1      -2.792 -10.644  14.043  0.00  0.00    +0.118 C 
ATOM      7  C   UNL     1      -2.187 -12.537  12.588  0.00  0.00    +0.113 C 
ATOM      8  C   UNL     1      -3.749 -12.753  15.160  0.00  0.00    +0.192 C 
ATOM     10  C   UNL     1      -3.081 -13.684  13.060  0.00  0.00    +0.175 C 
ENDROOT
BRANCH   5   1
ATOM      1  O   UNL     1      -3.182 -10.797  16.408  0.00  0.00    -0.373 OA
BRANCH   1  11
ATOM     11  C   UNL     1      -4.592 -10.763  16.553  0.00  0.00    +0.160 C 
BRANCH  11  12
ATOM     12  C   UNL     1      -4.926 -10.430  18.002  0.00  0.00    +0.031 C 
BRANCH  12  13
ATOM     13  C   UNL     1      -5.126 -11.668  18.892  0.00  0.00    -0.015 C 
ATOM     15  C   UNL     1      -3.773 -12.151  19.420  0.00  0.00    +0.007 C 
ATOM     16  C   UNL     1      -6.071 -11.397  20.063  0.00  0.00    +0.007 C 
ENDBRANCH  12  13
ENDBRANCH  11  12
ENDBRANCH   1  11
ENDBRANCH   5   1
BRANCH   4   9
ATOM      9  C   UNL     1      -2.488 -10.314  11.684  0.00  0.00    +0.119 C 
BRANCH   9  14
ATOM     14  C   UNL     1      -3.672  -9.699  10.984  0.00  0.00    -0.033 A 
ATOM     17  C   UNL     1      -4.875  -9.528  11.669  0.00  0.00    +0.008 A 
ATOM     18  C   UNL     1      -3.565  -9.300   9.652  0.00  0.00    +0.008 A 
ATOM     19  C   UNL     1      -5.971  -8.958  11.022  0.00  0.00    +0.046 A 
ATOM     20  C   UNL     1      -4.660  -8.729   9.004  0.00  0.00    +0.046 A 
ATOM     21  C   UNL     1      -5.864  -8.559   9.689  0.00  0.00    +0.120 A 
BRANCH  21   3
ATOM      3  O   UNL     1      -6.933  -8.002   9.057  0.00  0.00    -0.495 OA
ATOM     22  C   UNL     1      -8.216  -8.554   9.344  0.00  0.00    +0.277 C 
ENDBRANCH  21   3
ENDBRANCH   9  14
ENDBRANCH   4   9
TORSDOF 7
ENDMDL
MODEL 5
REMARK VINA RESULT:      -5.1      3.897      5.989
REMARK  Name = 75367805
REMARK  10 active torsions:
REMARK  status: ('A' for Active; 'I' for Inactive)
REMARK    1  A    between atoms: O_1  and  C_5
REMARK    2  A    between atoms: O_1  and  C_11
REMARK    3  A    between atoms: O_3  and  C_21
REMARK    4  A    between atoms: O_3  and  C_22
REMARK    5  A    between atoms: N_4  and  C_9
REMARK    6  A    between atoms: C_9  and  C_14
REMARK    7  A    between atoms: C_11  and  C_12
REMARK    8  A    between atoms: C_12  and  C_13
REMARK    9  A    between atoms: C_13  and  C_15
REMARK   10  A    between atoms: C_13  and  C_16
REMARK                            x       y       z     vdW  Elec       q    Type
REMARK                         _______ _______ _______ _____ _____    ______ ____
ROOT
ATOM      2  O   UNL     1      -8.435 -13.331  16.912  0.00  0.00    -0.376 OA
ATOM      4  N   UNL     1      -5.981 -11.413  17.095  0.00  0.00    -0.293 NA
ATOM      5  C   UNL     1      -8.418 -11.104  17.862  0.00  0.00    +0.158 C 
ATOM      6  C   UNL     1      -7.000 -10.537  17.686  0.00  0.00    +0.118 C 
ATOM      7  C   UNL     1      -6.088 -12.818  17.494  0.00  0.00    +0.113 C 
ATOM      8  C   UNL     1      -8.885 -11.994  16.718  0.00  0.00    +0.192 C 
ATOM     10  C   UNL     1      -7.071 -13.547  16.577  0.00  0.00    +0.175 C 
ENDROOT
BRANCH   5   1
ATOM      1  O   UNL     1      -9.325 -10.005  17.964  0.00  0.00    -0.373 OA
BRANCH   1  11
ATOM     11  C   UNL     1      -8.845  -8.873  17.259  0.00  0.00    +0.160 C 
BRANCH  11  12
ATOM     12  C   UNL     1      -9.914  -7.788  17.289  0.00  0.00    +0.031 C 
BRANCH  12  13
ATOM     13  C   UNL     1     -10.204  -7.164  15.914  0.00  0.00    -0.015 C 
ATOM     15  C   UNL     1     -10.738  -8.236  14.960  0.00  0.00    +0.007 C 
ATOM     16  C   UNL     1     -11.198  -6.006  15.998  0.00  0.00    +0.007 C 
ENDBRANCH  12  13
ENDBRANCH  11  12
ENDBRANCH   1  11
ENDBRANCH   5   1
BRANCH   4   9
ATOM      9  C   UNL     1      -4.645 -10.881  17.360  0.00  0.00    +0.119 C 
BRANCH   9  14
ATOM     14  C   UNL     1      -3.843 -10.724  16.096  0.00  0.00    -0.033 A 
ATOM     17  C   UNL     1      -2.456 -10.589  16.162  0.00  0.00    +0.008 A 
ATOM     18  C   UNL     1      -4.486 -10.715  14.858  0.00  0.00    +0.008 A 
ATOM     19  C   UNL     1      -1.712 -10.445  14.991  0.00  0.00    +0.046 A 
ATOM     20  C   UNL     1      -3.743 -10.571  13.686  0.00  0.00    +0.046 A 
ATOM     21  C   UNL     1      -2.356 -10.436  13.753  0.00  0.00    +0.120 A 
BRANCH  21   3
ATOM      3  O   UNL     1      -1.631 -10.296  12.609  0.00  0.00    -0.495 OA
ATOM     22  C   UNL     1      -2.356 -10.262  11.381  0.00  0.00    +0.277 C 
ENDBRANCH  21   3
ENDBRANCH   9  14
ENDBRANCH   4   9
TORSDOF 7
ENDMDL
MODEL 6
REMARK VINA RESULT:      -5.1      3.576      5.842
REMARK  Name = 75367805
REMARK  10 active torsions:
REMARK  status: ('A' for Active; 'I' for Inactive)
REMARK    1  A    between atoms: O_1  and  C_5
REMARK    2  A    between atoms: O_1  and  C_11
REMARK    3  A    between atoms: O_3  and  C_21
REMARK    4  A    between atoms: O_3  and  C_22
REMARK    5  A    between atoms: N_4  and  C_9
REMARK    6  A    between atoms: C_9  and  C_14
REMARK    7  A    between atoms: C_11  and  C_12
REMARK    8  A    between atoms: C_12  and  C_13
REMARK    9  A    between atoms: C_13  and  C_15
REMARK   10  A    between atoms: C_13  and  C_16
REMARK                            x       y       z     vdW  Elec       q    Type
REMARK                         _______ _______ _______ _____ _____    ______ ____
ROOT
ATOM      2  O   UNL     1      -7.447 -13.962  17.703  0.00  0.00    -0.376 OA
ATOM      4  N   UNL     1      -5.228 -11.770  17.777  0.00  0.00    -0.293 NA
ATOM      5  C   UNL     1      -7.336 -12.079  19.220  0.00  0.00    +0.158 C 
ATOM      6  C   UNL     1      -6.092 -11.257  18.847  0.00  0.00    +0.118 C 
ATOM      7  C   UNL     1      -5.087 -13.227  17.762  0.00  0.00    +0.113 C 
ATOM      8  C   UNL     1      -8.048 -12.716  18.034  0.00  0.00    +0.192 C 
ATOM     10  C   UNL     1      -6.235 -13.854  16.969  0.00  0.00    +0.175 C 
ENDROOT
BRANCH   5   1
ATOM      1  O   UNL     1      -8.261 -11.211  19.877  0.00  0.00    -0.373 OA
BRANCH   1  11
ATOM     11  C   UNL     1      -9.594 -11.481  19.475  0.00  0.00    +0.160 C 
BRANCH  11  12
ATOM     12  C   UNL     1     -10.508 -10.417  20.070  0.00  0.00    +0.031 C 
BRANCH  12  13
ATOM     13  C   UNL     1     -11.241  -9.570  19.017  0.00  0.00    -0.015 C 
ATOM     15  C   UNL     1     -10.477  -9.615  17.691  0.00  0.00    +0.007 C 
ATOM     16  C   UNL     1     -12.682 -10.029  18.800  0.00  0.00    +0.007 C 
ENDBRANCH  12  13
ENDBRANCH  11  12
ENDBRANCH   1  11
ENDBRANCH   5   1
BRANCH   4   9
ATOM      9  C   UNL     1      -3.926 -11.106  17.820  0.00  0.00    +0.119 C 
BRANCH   9  14
ATOM     14  C   UNL     1      -3.369 -10.873  16.440  0.00  0.00    -0.033 A 
ATOM     17  C   UNL     1      -4.226 -10.818  15.342  0.00  0.00    +0.008 A 
ATOM     18  C   UNL     1      -1.995 -10.710  16.261  0.00  0.00    +0.008 A 
ATOM     19  C   UNL     1      -3.711 -10.600  14.064  0.00  0.00    +0.046 A 
ATOM     20  C   UNL     1      -1.479 -10.492  14.985  0.00  0.00    +0.046 A 
ATOM     21  C   UNL     1      -2.337 -10.438  13.886  0.00  0.00    +0.120 A 
BRANCH  21   3
ATOM      3  O   UNL     1      -1.833 -10.225  12.639  0.00  0.00    -0.495 OA
ATOM     22  C   UNL     1      -2.594 -10.717  11.538  0.00  0.00    +0.277 C 
ENDBRANCH  21   3
ENDBRANCH   9  14
ENDBRANCH   4   9
TORSDOF 7
ENDMDL
MODEL 7
REMARK VINA RESULT:      -5.0      2.003      7.565
REMARK  Name = 75367805
REMARK  10 active torsions:
REMARK  status: ('A' for Active; 'I' for Inactive)
REMARK    1  A    between atoms: O_1  and  C_5
REMARK    2  A    between atoms: O_1  and  C_11
REMARK    3  A    between atoms: O_3  and  C_21
REMARK    4  A    between atoms: O_3  and  C_22
REMARK    5  A    between atoms: N_4  and  C_9
REMARK    6  A    between atoms: C_9  and  C_14
REMARK    7  A    between atoms: C_11  and  C_12
REMARK    8  A    between atoms: C_12  and  C_13
REMARK    9  A    between atoms: C_13  and  C_15
REMARK   10  A    between atoms: C_13  and  C_16
REMARK                            x       y       z     vdW  Elec       q    Type
REMARK                         _______ _______ _______ _____ _____    ______ ____
ROOT
ATOM      2  O   UNL     1      -3.988 -14.303  13.638  0.00  0.00    -0.376 OA
ATOM      4  N   UNL     1      -3.087 -11.843  15.332  0.00  0.00    -0.293 NA
ATOM      5  C   UNL     1      -3.284 -12.150  12.785  0.00  0.00    +0.158 C 
ATOM      6  C   UNL     1      -2.897 -11.279  13.991  0.00  0.00    +0.118 C 
ATOM      7  C   UNL     1      -4.285 -12.674  15.473  0.00  0.00    +0.113 C 
ATOM      8  C   UNL     1      -2.947 -13.626  12.942  0.00  0.00    +0.192 C 
ATOM     10  C   UNL     1      -3.977 -14.110  15.046  0.00  0.00    +0.175 C 
ENDROOT
BRANCH   5   1
ATOM      1  O   UNL     1      -2.587 -11.657  11.640  0.00  0.00    -0.373 OA
BRANCH   1  11
ATOM     11  C   UNL     1      -2.242 -10.290  11.796  0.00  0.00    +0.160 C 
BRANCH  11  12
ATOM     12  C   UNL     1      -2.675  -9.532  10.547  0.00  0.00    +0.031 C 
BRANCH  12  13
ATOM     13  C   UNL     1      -4.154  -9.736  10.180  0.00  0.00    -0.015 C 
ATOM     15  C   UNL     1      -5.048  -9.147  11.274  0.00  0.00    +0.007 C 
ATOM     16  C   UNL     1      -4.511  -9.113   8.830  0.00  0.00    +0.007 C 
ENDBRANCH  12  13
ENDBRANCH  11  12
ENDBRANCH   1  11
ENDBRANCH   5   1
BRANCH   4   9
ATOM      9  C   UNL     1      -3.051 -10.780  16.335  0.00  0.00    +0.119 C 
BRANCH   9  14
ATOM     14  C   UNL     1      -4.205 -10.879  17.298  0.00  0.00    -0.033 A 
ATOM     17  C   UNL     1      -5.394 -10.200  17.035  0.00  0.00    +0.008 A 
ATOM     18  C   UNL     1      -4.084 -11.651  18.454  0.00  0.00    +0.008 A 
ATOM     19  C   UNL     1      -6.463 -10.292  17.926  0.00  0.00    +0.046 A 
ATOM     20  C   UNL     1      -5.152 -11.744  19.346  0.00  0.00    +0.046 A 
ATOM     21  C   UNL     1      -6.342 -11.064  19.082  0.00  0.00    +0.120 A 
BRANCH  21   3
ATOM      3  O   UNL     1      -7.384 -11.155  19.952  0.00  0.00    -0.495 OA
ATOM     22  C   UNL     1      -8.686 -11.314  19.392  0.00  0.00    +0.277 C 
ENDBRANCH  21   3
ENDBRANCH   9  14
ENDBRANCH   4   9
TORSDOF 7
ENDMDL
MODEL 8
REMARK VINA RESULT:      -5.0     24.585     28.535
REMARK  Name = 75367805
REMARK  10 active torsions:
REMARK  status: ('A' for Active; 'I' for Inactive)
REMARK    1  A    between atoms: O_1  and  C_5
REMARK    2  A    between atoms: O_1  and  C_11
REMARK    3  A    between atoms: O_3  and  C_21
REMARK    4  A    between atoms: O_3  and  C_22
REMARK    5  A    between atoms: N_4  and  C_9
REMARK    6  A    between atoms: C_9  and  C_14
REMARK    7  A    between atoms: C_11  and  C_12
REMARK    8  A    between atoms: C_12  and  C_13
REMARK    9  A    between atoms: C_13  and  C_15
REMARK   10  A    between atoms: C_13  and  C_16
REMARK                            x       y       z     vdW  Elec       q    Type
REMARK                         _______ _______ _______ _____ _____    ______ ____
ROOT
ATOM      2  O   UNL     1     -13.841   8.673  33.317  0.00  0.00    -0.376 OA
ATOM      4  N   UNL     1     -14.444   5.656  33.830  0.00  0.00    -0.293 NA
ATOM      5  C   UNL     1     -13.284   7.414  35.308  0.00  0.00    +0.158 C 
ATOM      6  C   UNL     1     -13.740   5.964  35.080  0.00  0.00    +0.118 C 
ATOM      7  C   UNL     1     -15.346   6.713  33.370  0.00  0.00    +0.113 C 
ATOM      8  C   UNL     1     -12.763   8.112  34.059  0.00  0.00    +0.192 C 
ATOM     10  C   UNL     1     -14.570   7.735  32.538  0.00  0.00    +0.175 C 
ENDROOT
BRANCH   5   1
ATOM      1  O   UNL     1     -12.234   7.402  36.276  0.00  0.00    -0.373 OA
BRANCH   1  11
ATOM     11  C   UNL     1     -11.598   8.666  36.362  0.00  0.00    +0.160 C 
BRANCH  11  12
ATOM     12  C   UNL     1     -11.125   8.880  37.795  0.00  0.00    +0.031 C 
BRANCH  12  13
ATOM     13  C   UNL     1      -9.853   8.094  38.151  0.00  0.00    -0.015 C 
ATOM     15  C   UNL     1      -8.833   8.215  37.017  0.00  0.00    +0.007 C 
ATOM     16  C   UNL     1      -9.225   8.566  39.463  0.00  0.00    +0.007 C 
ENDBRANCH  12  13
ENDBRANCH  11  12
ENDBRANCH   1  11
ENDBRANCH   5   1
BRANCH   4   9
ATOM      9  C   UNL     1     -15.137   4.373  33.946  0.00  0.00    +0.119 C 
BRANCH   9  14
ATOM     14  C   UNL     1     -14.685   3.394  32.896  0.00  0.00    -0.033 A 
ATOM     17  C   UNL     1     -13.841   3.813  31.867  0.00  0.00    +0.008 A 
ATOM     18  C   UNL     1     -15.107   2.066  32.953  0.00  0.00    +0.008 A 
ATOM     19  C   UNL     1     -13.421   2.906  30.895  0.00  0.00    +0.046 A 
ATOM     20  C   UNL     1     -14.688   1.157  31.981  0.00  0.00    +0.046 A 
ATOM     21  C   UNL     1     -13.845   1.578  30.952  0.00  0.00    +0.120 A 
BRANCH  21   3
ATOM      3  O   UNL     1     -13.435   0.691  30.004  0.00  0.00    -0.495 OA
ATOM     22  C   UNL     1     -14.176  -0.522  29.886  0.00  0.00    +0.277 C 
ENDBRANCH  21   3
ENDBRANCH   9  14
ENDBRANCH   4   9
TORSDOF 7
ENDMDL
MODEL 9
REMARK VINA RESULT:      -4.9     22.022     25.492
REMARK  Name = 75367805
REMARK  10 active torsions:
REMARK  status: ('A' for Active; 'I' for Inactive)
REMARK    1  A    between atoms: O_1  and  C_5
REMARK    2  A    between atoms: O_1  and  C_11
REMARK    3  A    between atoms: O_3  and  C_21
REMARK    4  A    between atoms: O_3  and  C_22
REMARK    5  A    between atoms: N_4  and  C_9
REMARK    6  A    between atoms: C_9  and  C_14
REMARK    7  A    between atoms: C_11  and  C_12
REMARK    8  A    between atoms: C_12  and  C_13
REMARK    9  A    between atoms: C_13  and  C_15
REMARK   10  A    between atoms: C_13  and  C_16
REMARK                            x       y       z     vdW  Elec       q    Type
REMARK                         _______ _______ _______ _____ _____    ______ ____
ROOT
ATOM      2  O   UNL     1      11.626   9.463   2.538  0.00  0.00    -0.376 OA
ATOM      4  N   UNL     1       8.966   8.263   3.641  0.00  0.00    -0.293 NA
ATOM      5  C   UNL     1      10.477   7.502   1.703  0.00  0.00    +0.158 C 
ATOM      6  C   UNL     1       9.195   7.329   2.533  0.00  0.00    +0.118 C 
ATOM      7  C   UNL     1      10.178   8.647   4.367  0.00  0.00    +0.113 C 
ATOM      8  C   UNL     1      10.869   8.952   1.446  0.00  0.00    +0.192 C 
ATOM     10  C   UNL     1      10.851   9.830   3.671  0.00  0.00    +0.175 C 
ENDROOT
BRANCH   5   1
ATOM      1  O   UNL     1      10.276   6.869   0.438  0.00  0.00    -0.373 OA
BRANCH   1  11
ATOM     11  C   UNL     1      10.129   5.466   0.583  0.00  0.00    +0.160 C 
BRANCH  11  12
ATOM     12  C   UNL     1      11.506   4.820   0.502  0.00  0.00    +0.031 C 
BRANCH  12  13
ATOM     13  C   UNL     1      11.716   3.680   1.512  0.00  0.00    -0.015 C 
ATOM     15  C   UNL     1      13.197   3.296   1.561  0.00  0.00    +0.007 C 
ATOM     16  C   UNL     1      11.231   4.048   2.914  0.00  0.00    +0.007 C 
ENDBRANCH  12  13
ENDBRANCH  11  12
ENDBRANCH   1  11
ENDBRANCH   5   1
BRANCH   4   9
ATOM      9  C   UNL     1       7.946   7.732   4.544  0.00  0.00    +0.119 C 
BRANCH   9  14
ATOM     14  C   UNL     1       8.554   6.957   5.684  0.00  0.00    -0.033 A 
ATOM     17  C   UNL     1       9.144   5.716   5.447  0.00  0.00    +0.008 A 
ATOM     18  C   UNL     1       8.528   7.482   6.976  0.00  0.00    +0.008 A 
ATOM     19  C   UNL     1       9.709   4.998   6.502  0.00  0.00    +0.046 A 
ATOM     20  C   UNL     1       9.092   6.765   8.031  0.00  0.00    +0.046 A 
ATOM     21  C   UNL     1       9.682   5.523   7.794  0.00  0.00    +0.120 A 
BRANCH  21   3
ATOM      3  O   UNL     1      10.233   4.825   8.824  0.00  0.00    -0.495 OA
ATOM     22  C   UNL     1       9.422   4.625   9.980  0.00  0.00    +0.277 C 
ENDBRANCH  21   3
ENDBRANCH   9  14
ENDBRANCH   4   9
TORSDOF 7
ENDMDL
MODEL 10
REMARK VINA RESULT:      -4.8     21.704     23.686
REMARK  Name = 75367805
REMARK  10 active torsions:
REMARK  status: ('A' for Active; 'I' for Inactive)
REMARK    1  A    between atoms: O_1  and  C_5
REMARK    2  A    between atoms: O_1  and  C_11
REMARK    3  A    between atoms: O_3  and  C_21
REMARK    4  A    between atoms: O_3  and  C_22
REMARK    5  A    between atoms: N_4  and  C_9
REMARK    6  A    between atoms: C_9  and  C_14
REMARK    7  A    between atoms: C_11  and  C_12
REMARK    8  A    between atoms: C_12  and  C_13
REMARK    9  A    between atoms: C_13  and  C_15
REMARK   10  A    between atoms: C_13  and  C_16
REMARK                            x       y       z     vdW  Elec       q    Type
REMARK                         _______ _______ _______ _____ _____    ______ ____
ROOT
ATOM      2  O   UNL     1     -16.178   7.448  21.759  0.00  0.00    -0.376 OA
ATOM      4  N   UNL     1     -13.148   7.753  21.080  0.00  0.00    -0.293 NA
ATOM      5  C   UNL     1     -14.573   8.832  22.930  0.00  0.00    +0.158 C 
ATOM      6  C   UNL     1     -13.224   8.689  22.207  0.00  0.00    +0.118 C 
ATOM      7  C   UNL     1     -13.938   6.532  21.255  0.00  0.00    +0.113 C 
ATOM      8  C   UNL     1     -15.787   8.794  22.011  0.00  0.00    +0.192 C 
ATOM     10  C   UNL     1     -15.378   6.773  20.799  0.00  0.00    +0.175 C 
ENDROOT
BRANCH   5   1
ATOM      1  O   UNL     1     -14.579  10.085  23.616  0.00  0.00    -0.373 OA
BRANCH   1  11
ATOM     11  C   UNL     1     -13.265  10.481  23.975  0.00  0.00    +0.160 C 
BRANCH  11  12
ATOM     12  C   UNL     1     -13.137  10.430  25.492  0.00  0.00    +0.031 C 
BRANCH  12  13
ATOM     13  C   UNL     1     -11.814  11.007  26.022  0.00  0.00    -0.015 C 
ATOM     15  C   UNL     1     -12.095  12.227  26.903  0.00  0.00    +0.007 C 
ATOM     16  C   UNL     1     -11.003   9.977  26.809  0.00  0.00    +0.007 C 
ENDBRANCH  12  13
ENDBRANCH  11  12
ENDBRANCH   1  11
ENDBRANCH   5   1
BRANCH   4   9
ATOM      9  C   UNL     1     -11.752   7.447  20.773  0.00  0.00    +0.119 C 
BRANCH   9  14
ATOM     14  C   UNL     1     -11.280   8.161  19.533  0.00  0.00    -0.033 A 
ATOM     17  C   UNL     1     -11.566   7.634  18.274  0.00  0.00    +0.008 A 
ATOM     18  C   UNL     1     -10.559   9.349  19.644  0.00  0.00    +0.008 A 
ATOM     19  C   UNL     1     -11.131   8.295  17.125  0.00  0.00    +0.046 A 
ATOM     20  C   UNL     1     -10.123  10.011  18.497  0.00  0.00    +0.046 A 
ATOM     21  C   UNL     1     -10.409   9.484  17.237  0.00  0.00    +0.120 A 
BRANCH  21   3
ATOM      3  O   UNL     1      -9.984  10.130  16.117  0.00  0.00    -0.495 OA
ATOM     22  C   UNL     1     -10.363  11.498  15.974  0.00  0.00    +0.277 C 
ENDBRANCH  21   3
ENDBRANCH   9  14
ENDBRANCH   4   9
TORSDOF 7
ENDMDL
