MODEL 1
REMARK VINA RESULT:      -5.8      0.000      0.000
REMARK  Name = 7135154
REMARK  12 active torsions:
REMARK  status: ('A' for Active; 'I' for Inactive)
REMARK    1  A    between atoms: O_2  and  C_15
REMARK    2  A    between atoms: O_3  and  C_20
REMARK    3  A    between atoms: N_8  and  C_26
REMARK    4  A    between atoms: N_8  and  C_27
REMARK    5  A    between atoms: C_10  and  C_18
REMARK    6  A    between atoms: C_12  and  C_20
REMARK    7  A    between atoms: C_12  and  C_21
REMARK    8  A    between atoms: C_13  and  C_23
REMARK    9  A    between atoms: C_23  and  C_24
REMARK   10  A    between atoms: C_26  and  C_29
REMARK   11  A    between atoms: C_27  and  C_30
REMARK   12  A    between atoms: C_28  and  C_31
REMARK                            x       y       z     vdW  Elec       q    Type
REMARK                         _______ _______ _______ _____ _____    ______ ____
ROOT
ATOM      1  S   UNL     1      -6.423  -7.648  39.292  0.00  0.00    -0.057 S 
ATOM      5  O   UNL     1     -10.610  -5.690  39.353  0.00  0.00    -0.266 OA
ATOM      7  N   UNL     1      -8.947  -8.037  38.873  0.00  0.00    -0.229 NA
ATOM      9  N   UNL     1      -8.291  -5.830  39.591  0.00  0.00    -0.258 N 
ATOM     10  C   UNL     1      -8.052 -11.544  37.545  0.00  0.00    -0.019 C 
ATOM     11  C   UNL     1      -6.790 -11.673  38.507  0.00  0.00    +0.011 C 
ATOM     12  C   UNL     1      -5.881 -12.949  38.328  0.00  0.00    +0.021 C 
ATOM     13  C   UNL     1      -9.042 -10.458  38.172  0.00  0.00    +0.054 C 
ATOM     14  C   UNL     1      -8.794 -12.904  37.484  0.00  0.00    +0.010 C 
ATOM     15  C   UNL     1      -6.783 -14.212  38.239  0.00  0.00    +0.123 C 
ATOM     16  C   UNL     1      -5.991 -10.339  38.579  0.00  0.00    +0.049 C 
ATOM     17  C   UNL     1      -7.885 -14.090  37.194  0.00  0.00    +0.032 C 
ATOM     18  C   UNL     1      -7.670 -11.121  36.104  0.00  0.00    +0.012 C 
ATOM     19  C   UNL     1      -8.292  -9.222  38.598  0.00  0.00    +0.058 A 
ATOM     21  C   UNL     1      -4.981 -13.112  39.586  0.00  0.00    +0.016 C 
ATOM     22  C   UNL     1      -6.925  -9.196  38.792  0.00  0.00    +0.015 A 
ATOM     25  C   UNL     1      -8.062  -7.135  39.241  0.00  0.00    +0.165 A 
ATOM     28  C   UNL     1      -9.536  -5.164  39.634  0.00  0.00    +0.285 C 
ATOM     37  H   UNL     1      -7.459  -5.301  39.838  0.00  0.00    +0.157 HD
ENDROOT
BRANCH  28  31
ATOM      6  O   UNL     1      -8.766  -3.405  41.120  0.00  0.00    -0.458 OA
ATOM     31  C   UNL     1      -9.467  -3.739  40.006  0.00  0.00    +0.189 A 
ATOM     32  C   UNL     1     -10.000  -2.616  39.416  0.00  0.00    +0.054 A 
ATOM     33  C   UNL     1      -9.601  -1.523  40.221  0.00  0.00    +0.042 A 
ATOM     34  C   UNL     1      -8.852  -2.055  41.245  0.00  0.00    +0.196 A 
ENDBRANCH  28  31
BRANCH  15   2
ATOM      2  O   UNL     1      -6.000 -15.370  37.947  0.00  0.00    -0.391 OA
ATOM     35  H   UNL     1      -6.500 -15.912  37.314  0.00  0.00    +0.210 HD
ENDBRANCH  15   2
BRANCH  12  20
ATOM     20  C   UNL     1      -4.909 -12.880  37.130  0.00  0.00    +0.165 C 
BRANCH  20   3
ATOM      3  O   UNL     1      -3.690 -13.466  37.528  0.00  0.00    -0.394 OA
ATOM     36  H   UNL     1      -2.973 -12.948  37.125  0.00  0.00    +0.209 HD
ENDBRANCH  20   3
ENDBRANCH  12  20
BRANCH  13  23
ATOM     23  C   UNL     1     -10.246 -10.107  37.289  0.00  0.00    +0.106 C 
BRANCH  23  24
ATOM      4  O   UNL     1     -11.856  -9.994  39.063  0.00  0.00    -0.276 OA
ATOM      8  N   UNL     1     -12.403 -11.308  37.230  0.00  0.00    -0.302 N 
ATOM     24  C   UNL     1     -11.565 -10.453  37.954  0.00  0.00    +0.216 C 
BRANCH   8  26
ATOM     26  C   UNL     1     -12.036 -11.838  35.920  0.00  0.00    +0.104 C 
ATOM     29  C   UNL     1     -13.164 -11.683  34.922  0.00  0.00    +0.024 C 
ENDBRANCH   8  26
BRANCH   8  27
ATOM     27  C   UNL     1     -13.704 -11.735  37.731  0.00  0.00    +0.104 C 
ATOM     30  C   UNL     1     -13.611 -13.056  38.464  0.00  0.00    +0.024 C 
ENDBRANCH   8  27
ENDBRANCH  23  24
ENDBRANCH  13  23
TORSDOF 8
ENDMDL
MODEL 2
REMARK VINA RESULT:      -5.7     43.214     44.910
REMARK  Name = 7135154
REMARK  12 active torsions:
REMARK  status: ('A' for Active; 'I' for Inactive)
REMARK    1  A    between atoms: O_2  and  C_15
REMARK    2  A    between atoms: O_3  and  C_20
REMARK    3  A    between atoms: N_8  and  C_26
REMARK    4  A    between atoms: N_8  and  C_27
REMARK    5  A    between atoms: C_10  and  C_18
REMARK    6  A    between atoms: C_12  and  C_20
REMARK    7  A    between atoms: C_12  and  C_21
REMARK    8  A    between atoms: C_13  and  C_23
REMARK    9  A    between atoms: C_23  and  C_24
REMARK   10  A    between atoms: C_26  and  C_29
REMARK   11  A    between atoms: C_27  and  C_30
REMARK   12  A    between atoms: C_28  and  C_31
REMARK                            x       y       z     vdW  Elec       q    Type
REMARK                         _______ _______ _______ _____ _____    ______ ____
ROOT
ATOM      1  S   UNL     1      11.254   3.644   2.566  0.00  0.00    -0.057 S 
ATOM      5  O   UNL     1       9.171   6.913   5.085  0.00  0.00    -0.266 OA
ATOM      7  N   UNL     1      10.110   5.964   2.492  0.00  0.00    -0.229 NA
ATOM      9  N   UNL     1      10.260   4.893   4.647  0.00  0.00    -0.258 N 
ATOM     10  C   UNL     1      11.113   6.195  -1.223  0.00  0.00    -0.019 C 
ATOM     11  C   UNL     1      11.023   4.619  -1.428  0.00  0.00    +0.011 C 
ATOM     12  C   UNL     1      11.469   4.052  -2.830  0.00  0.00    +0.021 C 
ATOM     13  C   UNL     1      10.226   6.580   0.049  0.00  0.00    +0.054 C 
ATOM     14  C   UNL     1      10.521   6.911  -2.466  0.00  0.00    +0.010 C 
ATOM     15  C   UNL     1      10.826   4.909  -3.957  0.00  0.00    +0.123 C 
ATOM     16  C   UNL     1      11.633   3.853  -0.218  0.00  0.00    +0.049 C 
ATOM     17  C   UNL     1      11.073   6.403  -3.791  0.00  0.00    +0.032 C 
ATOM     18  C   UNL     1      12.564   6.692  -1.009  0.00  0.00    +0.012 C 
ATOM     19  C   UNL     1      10.506   5.654   1.205  0.00  0.00    +0.058 A 
ATOM     21  C   UNL     1      10.929   2.602  -2.987  0.00  0.00    +0.016 C 
ATOM     22  C   UNL     1      11.122   4.427   1.060  0.00  0.00    +0.015 A 
ATOM     25  C   UNL     1      10.458   4.981   3.294  0.00  0.00    +0.165 A 
ATOM     28  C   UNL     1       9.634   5.846   5.482  0.00  0.00    +0.285 C 
ATOM     37  H   UNL     1      10.615   4.044   5.078  0.00  0.00    +0.157 HD
ENDROOT
BRANCH  28  31
ATOM      6  O   UNL     1       9.778   4.193   7.254  0.00  0.00    -0.458 OA
ATOM     31  C   UNL     1       9.605   5.497   6.914  0.00  0.00    +0.189 A 
ATOM     32  C   UNL     1       9.431   6.270   8.038  0.00  0.00    +0.054 A 
ATOM     33  C   UNL     1       9.501   5.385   9.139  0.00  0.00    +0.042 A 
ATOM     34  C   UNL     1       9.712   4.133   8.610  0.00  0.00    +0.196 A 
ENDBRANCH  28  31
BRANCH  15   2
ATOM      2  O   UNL     1      11.312   4.503  -5.237  0.00  0.00    -0.391 OA
ATOM     35  H   UNL     1      11.235   3.536  -5.288  0.00  0.00    +0.210 HD
ENDBRANCH  15   2
BRANCH  12  20
ATOM     20  C   UNL     1      12.998   3.948  -3.021  0.00  0.00    +0.165 C 
BRANCH  20   3
ATOM      3  O   UNL     1      13.251   2.876  -3.902  0.00  0.00    -0.394 OA
ATOM     36  H   UNL     1      13.971   2.348  -3.517  0.00  0.00    +0.209 HD
ENDBRANCH  20   3
ENDBRANCH  12  20
BRANCH  13  23
ATOM     23  C   UNL     1      10.322   8.051   0.472  0.00  0.00    +0.106 C 
BRANCH  23  24
ATOM      4  O   UNL     1       8.205   8.638  -0.489  0.00  0.00    -0.276 OA
ATOM      8  N   UNL     1       8.660   9.465   1.630  0.00  0.00    -0.302 N 
ATOM     24  C   UNL     1       8.968   8.735   0.476  0.00  0.00    +0.216 C 
BRANCH   8  26
ATOM     26  C   UNL     1       9.580   9.567   2.759  0.00  0.00    +0.104 C 
ATOM     29  C   UNL     1      10.204  10.945   2.846  0.00  0.00    +0.024 C 
ENDBRANCH   8  26
BRANCH   8  27
ATOM     27  C   UNL     1       7.399  10.179   1.790  0.00  0.00    +0.104 C 
ATOM     30  C   UNL     1       6.660   9.727   3.032  0.00  0.00    +0.024 C 
ENDBRANCH   8  27
ENDBRANCH  23  24
ENDBRANCH  13  23
TORSDOF 8
ENDMDL
MODEL 3
REMARK VINA RESULT:      -5.7     22.687     25.083
REMARK  Name = 7135154
REMARK  12 active torsions:
REMARK  status: ('A' for Active; 'I' for Inactive)
REMARK    1  A    between atoms: O_2  and  C_15
REMARK    2  A    between atoms: O_3  and  C_20
REMARK    3  A    between atoms: N_8  and  C_26
REMARK    4  A    between atoms: N_8  and  C_27
REMARK    5  A    between atoms: C_10  and  C_18
REMARK    6  A    between atoms: C_12  and  C_20
REMARK    7  A    between atoms: C_12  and  C_21
REMARK    8  A    between atoms: C_13  and  C_23
REMARK    9  A    between atoms: C_23  and  C_24
REMARK   10  A    between atoms: C_26  and  C_29
REMARK   11  A    between atoms: C_27  and  C_30
REMARK   12  A    between atoms: C_28  and  C_31
REMARK                            x       y       z     vdW  Elec       q    Type
REMARK                         _______ _______ _______ _____ _____    ______ ____
ROOT
ATOM      1  S   UNL     1      -5.573 -10.959  12.590  0.00  0.00    -0.057 S 
ATOM      5  O   UNL     1      -8.718  -8.423  10.343  0.00  0.00    -0.266 OA
ATOM      7  N   UNL     1      -7.732  -9.556  12.844  0.00  0.00    -0.229 NA
ATOM      9  N   UNL     1      -6.819  -9.754  10.621  0.00  0.00    -0.258 N 
ATOM     10  C   UNL     1      -7.857 -10.655  16.537  0.00  0.00    -0.019 C 
ATOM     11  C   UNL     1      -6.272 -10.756  16.643  0.00  0.00    +0.011 C 
ATOM     12  C   UNL     1      -5.678 -11.313  17.994  0.00  0.00    +0.021 C 
ATOM     13  C   UNL     1      -8.210  -9.685  15.317  0.00  0.00    +0.054 C 
ATOM     14  C   UNL     1      -8.422 -10.027  17.839  0.00  0.00    +0.010 C 
ATOM     15  C   UNL     1      -6.384 -10.615  19.190  0.00  0.00    +0.123 C 
ATOM     16  C   UNL     1      -5.657 -11.408  15.371  0.00  0.00    +0.049 C 
ATOM     17  C   UNL     1      -7.904 -10.680  19.113  0.00  0.00    +0.032 C 
ATOM     18  C   UNL     1      -8.534 -12.030  16.314  0.00  0.00    +0.012 C 
ATOM     19  C   UNL     1      -7.395 -10.031  14.097  0.00  0.00    +0.058 A 
ATOM     21  C   UNL     1      -4.168 -10.952  18.072  0.00  0.00    +0.016 C 
ATOM     22  C   UNL     1      -6.243 -10.790  14.146  0.00  0.00    +0.015 A 
ATOM     25  C   UNL     1      -6.847  -9.988  11.971  0.00  0.00    +0.165 A 
ATOM     28  C   UNL     1      -7.739  -8.993   9.867  0.00  0.00    +0.285 C 
ATOM     37  H   UNL     1      -6.044 -10.190  10.128  0.00  0.00    +0.157 HD
ENDROOT
BRANCH  28  31
ATOM      6  O   UNL     1      -8.264  -8.159   7.648  0.00  0.00    -0.458 OA
ATOM     31  C   UNL     1      -7.475  -8.955   8.416  0.00  0.00    +0.189 A 
ATOM     32  C   UNL     1      -6.539  -9.599   7.643  0.00  0.00    +0.054 A 
ATOM     33  C   UNL     1      -6.766  -9.172   6.313  0.00  0.00    +0.042 A 
ATOM     34  C   UNL     1      -7.826  -8.297   6.369  0.00  0.00    +0.196 A 
ENDBRANCH  28  31
BRANCH  15   2
ATOM      2  O   UNL     1      -5.962 -11.190  20.428  0.00  0.00    -0.391 OA
ATOM     35  H   UNL     1      -6.758 -11.368  20.955  0.00  0.00    +0.210 HD
ENDBRANCH  15   2
BRANCH  12  20
ATOM     20  C   UNL     1      -5.744 -12.850  18.135  0.00  0.00    +0.165 C 
BRANCH  20   3
ATOM      3  O   UNL     1      -4.486 -13.297  18.589  0.00  0.00    -0.394 OA
ATOM     36  H   UNL     1      -4.201 -12.693  19.295  0.00  0.00    +0.209 HD
ENDBRANCH  20   3
ENDBRANCH  12  20
BRANCH  13  23
ATOM     23  C   UNL     1      -9.705  -9.594  14.986  0.00  0.00    +0.106 C 
BRANCH  23  24
ATOM      4  O   UNL     1      -9.703  -7.405  15.965  0.00  0.00    -0.276 OA
ATOM      8  N   UNL     1     -11.400  -7.878  14.454  0.00  0.00    -0.302 N 
ATOM     24  C   UNL     1     -10.253  -8.195  15.192  0.00  0.00    +0.216 C 
BRANCH   8  26
ATOM     26  C   UNL     1     -12.033  -8.830  13.546  0.00  0.00    +0.104 C 
ATOM     29  C   UNL     1     -11.957  -8.360  12.108  0.00  0.00    +0.024 C 
ENDBRANCH   8  26
BRANCH   8  27
ATOM     27  C   UNL     1     -12.048  -6.575  14.539  0.00  0.00    +0.104 C 
ATOM     30  C   UNL     1     -13.127  -6.560  15.601  0.00  0.00    +0.024 C 
ENDBRANCH   8  27
ENDBRANCH  23  24
ENDBRANCH  13  23
TORSDOF 8
ENDMDL
MODEL 4
REMARK VINA RESULT:      -5.7     42.600     44.461
REMARK  Name = 7135154
REMARK  12 active torsions:
REMARK  status: ('A' for Active; 'I' for Inactive)
REMARK    1  A    between atoms: O_2  and  C_15
REMARK    2  A    between atoms: O_3  and  C_20
REMARK    3  A    between atoms: N_8  and  C_26
REMARK    4  A    between atoms: N_8  and  C_27
REMARK    5  A    between atoms: C_10  and  C_18
REMARK    6  A    between atoms: C_12  and  C_20
REMARK    7  A    between atoms: C_12  and  C_21
REMARK    8  A    between atoms: C_13  and  C_23
REMARK    9  A    between atoms: C_23  and  C_24
REMARK   10  A    between atoms: C_26  and  C_29
REMARK   11  A    between atoms: C_27  and  C_30
REMARK   12  A    between atoms: C_28  and  C_31
REMARK                            x       y       z     vdW  Elec       q    Type
REMARK                         _______ _______ _______ _____ _____    ______ ____
ROOT
ATOM      1  S   UNL     1      10.868   4.440   1.723  0.00  0.00    -0.057 S 
ATOM      5  O   UNL     1       8.834   6.284  -1.996  0.00  0.00    -0.266 OA
ATOM      7  N   UNL     1       9.540   6.472   0.828  0.00  0.00    -0.229 NA
ATOM      9  N   UNL     1      10.019   4.708  -0.744  0.00  0.00    -0.258 N 
ATOM     10  C   UNL     1       9.402   7.808   4.442  0.00  0.00    -0.019 C 
ATOM     11  C   UNL     1      10.799   7.149   4.823  0.00  0.00    +0.011 C 
ATOM     12  C   UNL     1      11.259   7.264   6.327  0.00  0.00    +0.021 C 
ATOM     13  C   UNL     1       9.347   7.964   2.852  0.00  0.00    +0.054 C 
ATOM     14  C   UNL     1       9.309   9.221   5.074  0.00  0.00    +0.010 C 
ATOM     15  C   UNL     1      11.056   8.727   6.814  0.00  0.00    +0.123 C 
ATOM     16  C   UNL     1      10.930   5.713   4.236  0.00  0.00    +0.049 C 
ATOM     17  C   UNL     1       9.651   9.256   6.557  0.00  0.00    +0.032 C 
ATOM     18  C   UNL     1       8.190   6.969   4.919  0.00  0.00    +0.012 C 
ATOM     19  C   UNL     1       9.793   6.698   2.168  0.00  0.00    +0.058 A 
ATOM     21  C   UNL     1      12.779   6.953   6.419  0.00  0.00    +0.016 C 
ATOM     22  C   UNL     1      10.518   5.709   2.802  0.00  0.00    +0.015 A 
ATOM     25  C   UNL     1      10.054   5.311   0.486  0.00  0.00    +0.165 A 
ATOM     28  C   UNL     1       9.421   5.207  -1.923  0.00  0.00    +0.285 C 
ATOM     37  H   UNL     1      10.476   3.801  -0.790  0.00  0.00    +0.157 HD
ENDROOT
BRANCH  28  31
ATOM      6  O   UNL     1       9.791   3.002  -2.870  0.00  0.00    -0.458 OA
ATOM     31  C   UNL     1       9.503   4.312  -3.091  0.00  0.00    +0.189 A 
ATOM     32  C   UNL     1       9.337   4.550  -4.436  0.00  0.00    +0.054 A 
ATOM     33  C   UNL     1       9.535   3.307  -5.082  0.00  0.00    +0.042 A 
ATOM     34  C   UNL     1       9.809   2.397  -4.087  0.00  0.00    +0.196 A 
ENDBRANCH  28  31
BRANCH  15   2
ATOM      2  O   UNL     1      11.341   8.837   8.209  0.00  0.00    -0.391 OA
ATOM     35  H   UNL     1      12.284   8.641   8.334  0.00  0.00    +0.210 HD
ENDBRANCH  15   2
BRANCH  12  20
ATOM     20  C   UNL     1      10.573   6.265   7.285  0.00  0.00    +0.165 C 
BRANCH  20   3
ATOM      3  O   UNL     1      11.573   5.682   8.090  0.00  0.00    -0.394 OA
ATOM     36  H   UNL     1      12.290   6.332   8.178  0.00  0.00    +0.209 HD
ENDBRANCH  20   3
ENDBRANCH  12  20
BRANCH  13  23
ATOM     23  C   UNL     1       7.999   8.453   2.305  0.00  0.00    +0.106 C 
BRANCH  23  24
ATOM      4  O   UNL     1       9.038  10.284   1.157  0.00  0.00    -0.276 OA
ATOM      8  N   UNL     1       6.976  10.694   2.137  0.00  0.00    -0.302 N 
ATOM     24  C   UNL     1       8.069   9.885   1.808  0.00  0.00    +0.216 C 
BRANCH   8  26
ATOM     26  C   UNL     1       5.840  10.199   2.911  0.00  0.00    +0.104 C 
ATOM     29  C   UNL     1       5.879  10.702   4.339  0.00  0.00    +0.024 C 
ENDBRANCH   8  26
BRANCH   8  27
ATOM     27  C   UNL     1       6.889  12.093   1.734  0.00  0.00    +0.104 C 
ATOM     30  C   UNL     1       5.603  12.376   0.986  0.00  0.00    +0.024 C 
ENDBRANCH   8  27
ENDBRANCH  23  24
ENDBRANCH  13  23
TORSDOF 8
ENDMDL
MODEL 5
REMARK VINA RESULT:      -5.6     18.937     22.427
REMARK  Name = 7135154
REMARK  12 active torsions:
REMARK  status: ('A' for Active; 'I' for Inactive)
REMARK    1  A    between atoms: O_2  and  C_15
REMARK    2  A    between atoms: O_3  and  C_20
REMARK    3  A    between atoms: N_8  and  C_26
REMARK    4  A    between atoms: N_8  and  C_27
REMARK    5  A    between atoms: C_10  and  C_18
REMARK    6  A    between atoms: C_12  and  C_20
REMARK    7  A    between atoms: C_12  and  C_21
REMARK    8  A    between atoms: C_13  and  C_23
REMARK    9  A    between atoms: C_23  and  C_24
REMARK   10  A    between atoms: C_26  and  C_29
REMARK   11  A    between atoms: C_27  and  C_30
REMARK   12  A    between atoms: C_28  and  C_31
REMARK                            x       y       z     vdW  Elec       q    Type
REMARK                         _______ _______ _______ _____ _____    ______ ____
ROOT
ATOM      1  S   UNL     1      -4.412  13.218  33.568  0.00  0.00    -0.057 S 
ATOM      5  O   UNL     1      -0.029  12.395  34.785  0.00  0.00    -0.266 OA
ATOM      7  N   UNL     1      -2.870  11.826  35.112  0.00  0.00    -0.229 NA
ATOM      9  N   UNL     1      -1.795  13.391  33.626  0.00  0.00    -0.258 N 
ATOM     10  C   UNL     1      -6.042  10.437  36.808  0.00  0.00    -0.019 C 
ATOM     11  C   UNL     1      -6.900  10.546  35.471  0.00  0.00    +0.011 C 
ATOM     12  C   UNL     1      -8.435  10.199  35.576  0.00  0.00    +0.021 C 
ATOM     13  C   UNL     1      -4.497  10.393  36.400  0.00  0.00    +0.054 C 
ATOM     14  C   UNL     1      -6.392   9.114  37.539  0.00  0.00    +0.010 C 
ATOM     15  C   UNL     1      -8.608   8.876  36.374  0.00  0.00    +0.123 C 
ATOM     16  C   UNL     1      -6.607  11.874  34.714  0.00  0.00    +0.049 C 
ATOM     17  C   UNL     1      -7.886   8.885  37.716  0.00  0.00    +0.032 C 
ATOM     18  C   UNL     1      -6.285  11.620  37.777  0.00  0.00    +0.012 C 
ATOM     19  C   UNL     1      -4.174  11.457  35.384  0.00  0.00    +0.058 A 
ATOM     21  C   UNL     1      -8.999   9.955  34.147  0.00  0.00    +0.016 C 
ATOM     22  C   UNL     1      -5.135  12.096  34.625  0.00  0.00    +0.015 A 
ATOM     25  C   UNL     1      -2.874  12.751  34.176  0.00  0.00    +0.165 A 
ATOM     28  C   UNL     1      -0.433  13.194  33.943  0.00  0.00    +0.285 C 
ATOM     37  H   UNL     1      -2.023  14.082  32.916  0.00  0.00    +0.157 HD
ENDROOT
BRANCH  28  31
ATOM      6  O   UNL     1       1.301  14.894  33.943  0.00  0.00    -0.458 OA
ATOM     31  C   UNL     1       0.509  14.064  33.215  0.00  0.00    +0.189 A 
ATOM     32  C   UNL     1       0.762  14.210  31.871  0.00  0.00    +0.054 A 
ATOM     33  C   UNL     1       1.774  15.193  31.766  0.00  0.00    +0.042 A 
ATOM     34  C   UNL     1       2.068  15.578  33.054  0.00  0.00    +0.196 A 
ENDBRANCH  28  31
BRANCH  15   2
ATOM      2  O   UNL     1      -9.992   8.601  36.599  0.00  0.00    -0.391 OA
ATOM     35  H   UNL     1     -10.232   8.985  37.458  0.00  0.00    +0.210 HD
ENDBRANCH  15   2
BRANCH  12  20
ATOM     20  C   UNL     1      -9.306  11.324  36.178  0.00  0.00    +0.165 C 
BRANCH  20   3
ATOM      3  O   UNL     1     -10.568  11.276  35.551  0.00  0.00    -0.394 OA
ATOM     36  H   UNL     1     -11.240  11.261  36.253  0.00  0.00    +0.209 HD
ENDBRANCH  20   3
ENDBRANCH  12  20
BRANCH  13  23
ATOM     23  C   UNL     1      -3.523  10.434  37.585  0.00  0.00    +0.106 C 
BRANCH  23  24
ATOM      4  O   UNL     1      -2.031   8.818  36.632  0.00  0.00    -0.276 OA
ATOM      8  N   UNL     1      -2.545   8.573  38.881  0.00  0.00    -0.302 N 
ATOM     24  C   UNL     1      -2.632   9.208  37.636  0.00  0.00    +0.216 C 
BRANCH   8  26
ATOM     26  C   UNL     1      -3.267   9.054  40.056  0.00  0.00    +0.104 C 
ATOM     29  C   UNL     1      -4.342   8.077  40.486  0.00  0.00    +0.024 C 
ENDBRANCH   8  26
BRANCH   8  27
ATOM     27  C   UNL     1      -1.730   7.384  39.096  0.00  0.00    +0.104 C 
ATOM     30  C   UNL     1      -0.334   7.745  39.559  0.00  0.00    +0.024 C 
ENDBRANCH   8  27
ENDBRANCH  23  24
ENDBRANCH  13  23
TORSDOF 8
ENDMDL
MODEL 6
REMARK VINA RESULT:      -5.5     43.675     45.294
REMARK  Name = 7135154
REMARK  12 active torsions:
REMARK  status: ('A' for Active; 'I' for Inactive)
REMARK    1  A    between atoms: O_2  and  C_15
REMARK    2  A    between atoms: O_3  and  C_20
REMARK    3  A    between atoms: N_8  and  C_26
REMARK    4  A    between atoms: N_8  and  C_27
REMARK    5  A    between atoms: C_10  and  C_18
REMARK    6  A    between atoms: C_12  and  C_20
REMARK    7  A    between atoms: C_12  and  C_21
REMARK    8  A    between atoms: C_13  and  C_23
REMARK    9  A    between atoms: C_23  and  C_24
REMARK   10  A    between atoms: C_26  and  C_29
REMARK   11  A    between atoms: C_27  and  C_30
REMARK   12  A    between atoms: C_28  and  C_31
REMARK                            x       y       z     vdW  Elec       q    Type
REMARK                         _______ _______ _______ _____ _____    ______ ____
ROOT
ATOM      1  S   UNL     1      16.373   7.351   1.902  0.00  0.00    -0.057 S 
ATOM      5  O   UNL     1      15.846   8.547   6.336  0.00  0.00    -0.266 OA
ATOM      7  N   UNL     1      14.700   7.490   3.871  0.00  0.00    -0.229 NA
ATOM      9  N   UNL     1      16.952   8.236   4.302  0.00  0.00    -0.258 N 
ATOM     10  C   UNL     1      11.924   6.424   1.416  0.00  0.00    -0.019 C 
ATOM     11  C   UNL     1      12.928   5.559   0.533  0.00  0.00    +0.011 C 
ATOM     12  C   UNL     1      12.351   4.918  -0.787  0.00  0.00    +0.021 C 
ATOM     13  C   UNL     1      12.566   6.592   2.870  0.00  0.00    +0.054 C 
ATOM     14  C   UNL     1      10.580   5.664   1.561  0.00  0.00    +0.010 C 
ATOM     15  C   UNL     1      10.985   4.243  -0.474  0.00  0.00    +0.123 C 
ATOM     16  C   UNL     1      14.286   6.293   0.333  0.00  0.00    +0.049 C 
ATOM     17  C   UNL     1      10.007   5.167   0.241  0.00  0.00    +0.032 C 
ATOM     18  C   UNL     1      11.643   7.822   0.812  0.00  0.00    +0.012 C 
ATOM     19  C   UNL     1      14.018   6.985   2.780  0.00  0.00    +0.058 A 
ATOM     21  C   UNL     1      13.317   3.803  -1.275  0.00  0.00    +0.016 C 
ATOM     22  C   UNL     1      14.776   6.825   1.637  0.00  0.00    +0.015 A 
ATOM     25  C   UNL     1      15.946   7.726   3.523  0.00  0.00    +0.165 A 
ATOM     28  C   UNL     1      16.868   8.622   5.658  0.00  0.00    +0.285 C 
ATOM     37  H   UNL     1      17.846   8.345   3.831  0.00  0.00    +0.157 HD
ENDROOT
BRANCH  28  31
ATOM      6  O   UNL     1      18.972   8.329   6.835  0.00  0.00    -0.458 OA
ATOM     31  C   UNL     1      18.109   9.183   6.225  0.00  0.00    +0.189 A 
ATOM     32  C   UNL     1      18.595  10.469   6.260  0.00  0.00    +0.054 A 
ATOM     33  C   UNL     1      19.837  10.401   6.935  0.00  0.00    +0.042 A 
ATOM     34  C   UNL     1      20.021   9.079   7.265  0.00  0.00    +0.196 A 
ENDBRANCH  28  31
BRANCH  15   2
ATOM      2  O   UNL     1      10.373   3.766  -1.673  0.00  0.00    -0.391 OA
ATOM     35  H   UNL     1       9.868   2.968  -1.448  0.00  0.00    +0.210 HD
ENDBRANCH  15   2
BRANCH  12  20
ATOM     20  C   UNL     1      12.220   5.901  -1.971  0.00  0.00    +0.165 C 
BRANCH  20   3
ATOM      3  O   UNL     1      12.456   5.180  -3.160  0.00  0.00    -0.394 OA
ATOM     36  H   UNL     1      12.484   5.822  -3.889  0.00  0.00    +0.209 HD
ENDBRANCH  20   3
ENDBRANCH  12  20
BRANCH  13  23
ATOM     23  C   UNL     1      11.788   7.527   3.806  0.00  0.00    +0.106 C 
BRANCH  23  24
ATOM      4  O   UNL     1      11.133   5.735   5.258  0.00  0.00    -0.276 OA
ATOM      8  N   UNL     1       9.525   7.336   4.775  0.00  0.00    -0.302 N 
ATOM     24  C   UNL     1      10.803   6.774   4.679  0.00  0.00    +0.216 C 
BRANCH   8  26
ATOM     26  C   UNL     1       9.158   8.567   4.079  0.00  0.00    +0.104 C 
ATOM     29  C   UNL     1       8.352   8.280   2.829  0.00  0.00    +0.024 C 
ENDBRANCH   8  26
BRANCH   8  27
ATOM     27  C   UNL     1       8.465   6.735   5.574  0.00  0.00    +0.104 C 
ATOM     30  C   UNL     1       8.383   7.363   6.950  0.00  0.00    +0.024 C 
ENDBRANCH   8  27
ENDBRANCH  23  24
ENDBRANCH  13  23
TORSDOF 8
ENDMDL
MODEL 7
REMARK VINA RESULT:      -5.5     19.868     22.925
REMARK  Name = 7135154
REMARK  12 active torsions:
REMARK  status: ('A' for Active; 'I' for Inactive)
REMARK    1  A    between atoms: O_2  and  C_15
REMARK    2  A    between atoms: O_3  and  C_20
REMARK    3  A    between atoms: N_8  and  C_26
REMARK    4  A    between atoms: N_8  and  C_27
REMARK    5  A    between atoms: C_10  and  C_18
REMARK    6  A    between atoms: C_12  and  C_20
REMARK    7  A    between atoms: C_12  and  C_21
REMARK    8  A    between atoms: C_13  and  C_23
REMARK    9  A    between atoms: C_23  and  C_24
REMARK   10  A    between atoms: C_26  and  C_29
REMARK   11  A    between atoms: C_27  and  C_30
REMARK   12  A    between atoms: C_28  and  C_31
REMARK                            x       y       z     vdW  Elec       q    Type
REMARK                         _______ _______ _______ _____ _____    ______ ____
ROOT
ATOM      1  S   UNL     1     -10.763 -11.026  19.208  0.00  0.00    -0.057 S 
ATOM      5  O   UNL     1      -7.199  -9.218  16.885  0.00  0.00    -0.266 OA
ATOM      7  N   UNL     1     -10.066  -9.296  17.414  0.00  0.00    -0.229 NA
ATOM      9  N   UNL     1      -8.301 -10.605  18.406  0.00  0.00    -0.258 N 
ATOM     10  C   UNL     1     -13.811  -8.626  16.792  0.00  0.00    -0.019 C 
ATOM     11  C   UNL     1     -14.201  -8.949  18.302  0.00  0.00    +0.011 C 
ATOM     12  C   UNL     1     -15.737  -8.955  18.660  0.00  0.00    +0.021 C 
ATOM     13  C   UNL     1     -12.260  -8.243  16.753  0.00  0.00    +0.054 C 
ATOM     14  C   UNL     1     -14.629  -7.404  16.299  0.00  0.00    +0.010 C 
ATOM     15  C   UNL     1     -16.408  -7.690  18.053  0.00  0.00    +0.123 C 
ATOM     16  C   UNL     1     -13.427 -10.190  18.836  0.00  0.00    +0.049 C 
ATOM     17  C   UNL     1     -16.123  -7.513  16.566  0.00  0.00    +0.032 C 
ATOM     18  C   UNL     1     -14.072  -9.816  15.836  0.00  0.00    +0.012 C 
ATOM     19  C   UNL     1     -11.439  -9.225  17.548  0.00  0.00    +0.058 A 
ATOM     21  C   UNL     1     -15.899  -8.868  20.203  0.00  0.00    +0.016 C 
ATOM     22  C   UNL     1     -11.981 -10.077  18.491  0.00  0.00    +0.015 A 
ATOM     25  C   UNL     1      -9.603 -10.215  18.234  0.00  0.00    +0.165 A 
ATOM     28  C   UNL     1      -7.163 -10.102  17.737  0.00  0.00    +0.285 C 
ATOM     37  H   UNL     1      -8.162 -11.342  19.092  0.00  0.00    +0.157 HD
ENDROOT
BRANCH  28  31
ATOM      6  O   UNL     1      -4.889 -10.743  17.180  0.00  0.00    -0.458 OA
ATOM     31  C   UNL     1      -5.889 -10.750  18.100  0.00  0.00    +0.189 A 
ATOM     32  C   UNL     1      -5.487 -11.394  19.246  0.00  0.00    +0.054 A 
ATOM     33  C   UNL     1      -4.155 -11.810  19.017  0.00  0.00    +0.042 A 
ATOM     34  C   UNL     1      -3.837 -11.391  17.746  0.00  0.00    +0.196 A 
ENDBRANCH  28  31
BRANCH  15   2
ATOM      2  O   UNL     1     -17.823  -7.730  18.247  0.00  0.00    -0.391 OA
ATOM     35  H   UNL     1     -18.233  -7.913  17.386  0.00  0.00    +0.210 HD
ENDBRANCH  15   2
BRANCH  12  20
ATOM     20  C   UNL     1     -16.488 -10.235  18.235  0.00  0.00    +0.165 C 
BRANCH  20   3
ATOM      3  O   UNL     1     -17.592 -10.395  19.098  0.00  0.00    -0.394 OA
ATOM     36  H   UNL     1     -17.755 -11.349  19.187  0.00  0.00    +0.209 HD
ENDBRANCH  20   3
ENDBRANCH  12  20
BRANCH  13  23
ATOM     23  C   UNL     1     -11.687  -8.044  15.344  0.00  0.00    +0.106 C 
BRANCH  23  24
ATOM      4  O   UNL     1     -10.890  -5.806  15.668  0.00  0.00    -0.276 OA
ATOM      8  N   UNL     1     -12.253  -6.178  13.828  0.00  0.00    -0.302 N 
ATOM     24  C   UNL     1     -11.564  -6.577  14.979  0.00  0.00    +0.216 C 
BRANCH   8  26
ATOM     26  C   UNL     1     -13.045  -7.109  13.028  0.00  0.00    +0.104 C 
ATOM     29  C   UNL     1     -12.339  -7.472  11.738  0.00  0.00    +0.024 C 
ENDBRANCH   8  26
BRANCH   8  27
ATOM     27  C   UNL     1     -12.234  -4.803  13.342  0.00  0.00    +0.104 C 
ATOM     30  C   UNL     1     -13.632  -4.226  13.256  0.00  0.00    +0.024 C 
ENDBRANCH   8  27
ENDBRANCH  23  24
ENDBRANCH  13  23
TORSDOF 8
ENDMDL
MODEL 8
REMARK VINA RESULT:      -5.3     26.976     30.384
REMARK  Name = 7135154
REMARK  12 active torsions:
REMARK  status: ('A' for Active; 'I' for Inactive)
REMARK    1  A    between atoms: O_2  and  C_15
REMARK    2  A    between atoms: O_3  and  C_20
REMARK    3  A    between atoms: N_8  and  C_26
REMARK    4  A    between atoms: N_8  and  C_27
REMARK    5  A    between atoms: C_10  and  C_18
REMARK    6  A    between atoms: C_12  and  C_20
REMARK    7  A    between atoms: C_12  and  C_21
REMARK    8  A    between atoms: C_13  and  C_23
REMARK    9  A    between atoms: C_23  and  C_24
REMARK   10  A    between atoms: C_26  and  C_29
REMARK   11  A    between atoms: C_27  and  C_30
REMARK   12  A    between atoms: C_28  and  C_31
REMARK                            x       y       z     vdW  Elec       q    Type
REMARK                         _______ _______ _______ _____ _____    ______ ____
ROOT
ATOM      1  S   UNL     1     -12.523   8.878  12.867  0.00  0.00    -0.057 S 
ATOM      5  O   UNL     1     -15.598   5.663  14.122  0.00  0.00    -0.266 OA
ATOM      7  N   UNL     1     -13.846   7.878  14.852  0.00  0.00    -0.229 NA
ATOM      9  N   UNL     1     -14.211   6.879  12.688  0.00  0.00    -0.258 N 
ATOM     10  C   UNL     1     -11.837  10.195  17.189  0.00  0.00    -0.019 C 
ATOM     11  C   UNL     1     -11.689  11.322  16.074  0.00  0.00    +0.011 C 
ATOM     12  C   UNL     1     -10.794  12.570  16.431  0.00  0.00    +0.021 C 
ATOM     13  C   UNL     1     -13.093   9.284  16.806  0.00  0.00    +0.054 C 
ATOM     14  C   UNL     1     -12.118  10.862  18.561  0.00  0.00    +0.010 C 
ATOM     15  C   UNL     1     -11.172  13.081  17.850  0.00  0.00    +0.123 C 
ATOM     16  C   UNL     1     -11.376  10.704  14.680  0.00  0.00    +0.049 C 
ATOM     17  C   UNL     1     -11.152  11.986  18.909  0.00  0.00    +0.032 C 
ATOM     18  C   UNL     1     -10.576   9.306  17.317  0.00  0.00    +0.012 C 
ATOM     19  C   UNL     1     -13.060   8.901  15.349  0.00  0.00    +0.058 A 
ATOM     21  C   UNL     1     -11.100  13.719  15.429  0.00  0.00    +0.016 C 
ATOM     22  C   UNL     1     -12.297   9.563  14.409  0.00  0.00    +0.015 A 
ATOM     25  C   UNL     1     -13.640   7.771  13.558  0.00  0.00    +0.165 A 
ATOM     28  C   UNL     1     -15.155   5.873  12.995  0.00  0.00    +0.285 C 
ATOM     37  H   UNL     1     -13.905   6.965  11.723  0.00  0.00    +0.157 HD
ENDROOT
BRANCH  28  31
ATOM      6  O   UNL     1     -16.608   5.446  11.097  0.00  0.00    -0.458 OA
ATOM     31  C   UNL     1     -15.560   5.030  11.856  0.00  0.00    +0.189 A 
ATOM     32  C   UNL     1     -15.061   3.840  11.380  0.00  0.00    +0.054 A 
ATOM     33  C   UNL     1     -15.853   3.504  10.256  0.00  0.00    +0.042 A 
ATOM     34  C   UNL     1     -16.780   4.511  10.126  0.00  0.00    +0.196 A 
ENDBRANCH  28  31
BRANCH  15   2
ATOM      2  O   UNL     1     -10.292  14.130  18.258  0.00  0.00    -0.391 OA
ATOM     35  H   UNL     1      -9.819  14.441  17.469  0.00  0.00    +0.210 HD
ENDBRANCH  15   2
BRANCH  12  20
ATOM     20  C   UNL     1      -9.273  12.320  16.323  0.00  0.00    +0.165 C 
BRANCH  20   3
ATOM      3  O   UNL     1      -8.797  13.035  15.205  0.00  0.00    -0.394 OA
ATOM     36  H   UNL     1      -9.141  13.941  15.272  0.00  0.00    +0.209 HD
ENDBRANCH  20   3
ENDBRANCH  12  20
BRANCH  13  23
ATOM     23  C   UNL     1     -13.289   8.057  17.705  0.00  0.00    +0.106 C 
BRANCH  23  24
ATOM      4  O   UNL     1     -15.185   8.901  18.905  0.00  0.00    -0.276 OA
ATOM      8  N   UNL     1     -13.425   8.075  20.171  0.00  0.00    -0.302 N 
ATOM     24  C   UNL     1     -14.064   8.389  18.966  0.00  0.00    +0.216 C 
BRANCH   8  26
ATOM     26  C   UNL     1     -12.097   7.469  20.217  0.00  0.00    +0.104 C 
ATOM     29  C   UNL     1     -12.051   6.305  21.186  0.00  0.00    +0.024 C 
ENDBRANCH   8  26
BRANCH   8  27
ATOM     27  C   UNL     1     -14.037   8.329  21.470  0.00  0.00    +0.104 C 
ATOM     30  C   UNL     1     -13.503   9.602  22.094  0.00  0.00    +0.024 C 
ENDBRANCH   8  27
ENDBRANCH  23  24
ENDBRANCH  13  23
TORSDOF 8
ENDMDL
MODEL 9
REMARK VINA RESULT:      -5.3     19.029     22.630
REMARK  Name = 7135154
REMARK  12 active torsions:
REMARK  status: ('A' for Active; 'I' for Inactive)
REMARK    1  A    between atoms: O_2  and  C_15
REMARK    2  A    between atoms: O_3  and  C_20
REMARK    3  A    between atoms: N_8  and  C_26
REMARK    4  A    between atoms: N_8  and  C_27
REMARK    5  A    between atoms: C_10  and  C_18
REMARK    6  A    between atoms: C_12  and  C_20
REMARK    7  A    between atoms: C_12  and  C_21
REMARK    8  A    between atoms: C_13  and  C_23
REMARK    9  A    between atoms: C_23  and  C_24
REMARK   10  A    between atoms: C_26  and  C_29
REMARK   11  A    between atoms: C_27  and  C_30
REMARK   12  A    between atoms: C_28  and  C_31
REMARK                            x       y       z     vdW  Elec       q    Type
REMARK                         _______ _______ _______ _____ _____    ______ ____
ROOT
ATOM      1  S   UNL     1      -4.934  12.563  33.634  0.00  0.00    -0.057 S 
ATOM      5  O   UNL     1      -7.359   9.588  36.211  0.00  0.00    -0.266 OA
ATOM      7  N   UNL     1      -4.861  11.003  35.697  0.00  0.00    -0.229 NA
ATOM      9  N   UNL     1      -6.938  11.094  34.475  0.00  0.00    -0.258 N 
ATOM     10  C   UNL     1      -1.097  11.783  35.990  0.00  0.00    -0.019 C 
ATOM     11  C   UNL     1      -1.272  13.246  35.388  0.00  0.00    +0.011 C 
ATOM     12  C   UNL     1       0.043  14.080  35.137  0.00  0.00    +0.021 C 
ATOM     13  C   UNL     1      -2.512  11.311  36.563  0.00  0.00    +0.054 C 
ATOM     14  C   UNL     1      -0.085  11.827  37.165  0.00  0.00    +0.010 C 
ATOM     15  C   UNL     1       0.960  13.979  36.389  0.00  0.00    +0.123 C 
ATOM     16  C   UNL     1      -2.258  13.251  34.183  0.00  0.00    +0.049 C 
ATOM     17  C   UNL     1       1.216  12.544  36.832  0.00  0.00    +0.032 C 
ATOM     18  C   UNL     1      -0.597  10.757  34.943  0.00  0.00    +0.012 C 
ATOM     19  C   UNL     1      -3.616  11.591  35.576  0.00  0.00    +0.058 A 
ATOM     21  C   UNL     1      -0.332  15.578  34.958  0.00  0.00    +0.016 C 
ATOM     22  C   UNL     1      -3.487  12.479  34.526  0.00  0.00    +0.015 A 
ATOM     25  C   UNL     1      -5.634  11.435  34.725  0.00  0.00    +0.165 A 
ATOM     28  C   UNL     1      -7.741  10.197  35.214  0.00  0.00    +0.285 C 
ATOM     37  H   UNL     1      -7.350  11.543  33.662  0.00  0.00    +0.157 HD
ENDROOT
BRANCH  28  31
ATOM      6  O   UNL     1      -9.250   9.935  33.330  0.00  0.00    -0.458 OA
ATOM     31  C   UNL     1      -9.100   9.992  34.679  0.00  0.00    +0.189 A 
ATOM     32  C   UNL     1     -10.313   9.836  35.307  0.00  0.00    +0.054 A 
ATOM     33  C   UNL     1     -11.270   9.673  34.278  0.00  0.00    +0.042 A 
ATOM     34  C   UNL     1     -10.574   9.741  33.094  0.00  0.00    +0.196 A 
ENDBRANCH  28  31
BRANCH  15   2
ATOM      2  O   UNL     1       2.215  14.615  36.145  0.00  0.00    -0.391 OA
ATOM     35  H   UNL     1       2.766  13.995  35.639  0.00  0.00    +0.210 HD
ENDBRANCH  15   2
BRANCH  12  20
ATOM     20  C   UNL     1       0.813  13.690  33.856  0.00  0.00    +0.165 C 
BRANCH  20   3
ATOM      3  O   UNL     1       1.643  14.774  33.504  0.00  0.00    -0.394 OA
ATOM     36  H   UNL     1       1.514  14.943  32.556  0.00  0.00    +0.209 HD
ENDBRANCH  20   3
ENDBRANCH  12  20
BRANCH  13  23
ATOM     23  C   UNL     1      -2.551   9.857  37.051  0.00  0.00    +0.106 C 
BRANCH  23  24
ATOM      4  O   UNL     1      -3.086  10.756  39.208  0.00  0.00    -0.276 OA
ATOM      8  N   UNL     1      -2.593   8.491  39.108  0.00  0.00    -0.302 N 
ATOM     24  C   UNL     1      -2.770   9.762  38.548  0.00  0.00    +0.216 C 
BRANCH   8  26
ATOM     26  C   UNL     1      -2.218   7.329  38.306  0.00  0.00    +0.104 C 
ATOM     29  C   UNL     1      -0.742   7.018  38.435  0.00  0.00    +0.024 C 
ENDBRANCH   8  26
BRANCH   8  27
ATOM     27  C   UNL     1      -2.768   8.232  40.532  0.00  0.00    +0.104 C 
ATOM     30  C   UNL     1      -4.154   7.703  40.833  0.00  0.00    +0.024 C 
ENDBRANCH   8  27
ENDBRANCH  23  24
ENDBRANCH  13  23
TORSDOF 8
ENDMDL
MODEL 10
REMARK VINA RESULT:      -5.2     44.092     45.769
REMARK  Name = 7135154
REMARK  12 active torsions:
REMARK  status: ('A' for Active; 'I' for Inactive)
REMARK    1  A    between atoms: O_2  and  C_15
REMARK    2  A    between atoms: O_3  and  C_20
REMARK    3  A    between atoms: N_8  and  C_26
REMARK    4  A    between atoms: N_8  and  C_27
REMARK    5  A    between atoms: C_10  and  C_18
REMARK    6  A    between atoms: C_12  and  C_20
REMARK    7  A    between atoms: C_12  and  C_21
REMARK    8  A    between atoms: C_13  and  C_23
REMARK    9  A    between atoms: C_23  and  C_24
REMARK   10  A    between atoms: C_26  and  C_29
REMARK   11  A    between atoms: C_27  and  C_30
REMARK   12  A    between atoms: C_28  and  C_31
REMARK                            x       y       z     vdW  Elec       q    Type
REMARK                         _______ _______ _______ _____ _____    ______ ____
ROOT
ATOM      1  S   UNL     1      15.302   8.240   6.303  0.00  0.00    -0.057 S 
ATOM      5  O   UNL     1      11.495   6.040   4.879  0.00  0.00    -0.266 OA
ATOM      7  N   UNL     1      14.143   7.109   4.285  0.00  0.00    -0.229 NA
ATOM      9  N   UNL     1      12.921   7.143   6.364  0.00  0.00    -0.258 N 
ATOM     10  C   UNL     1      17.080   8.305   2.093  0.00  0.00    -0.019 C 
ATOM     11  C   UNL     1      18.117   8.220   3.298  0.00  0.00    +0.011 C 
ATOM     12  C   UNL     1      19.581   8.737   3.021  0.00  0.00    +0.021 C 
ATOM     13  C   UNL     1      15.843   7.354   2.439  0.00  0.00    +0.054 C 
ATOM     14  C   UNL     1      17.752   7.781   0.797  0.00  0.00    +0.010 C 
ATOM     15  C   UNL     1      20.081   8.157   1.667  0.00  0.00    +0.123 C 
ATOM     16  C   UNL     1      17.500   8.764   4.619  0.00  0.00    +0.049 C 
ATOM     17  C   UNL     1      19.114   8.400   0.515  0.00  0.00    +0.032 C 
ATOM     18  C   UNL     1      16.568   9.745   1.840  0.00  0.00    +0.012 C 
ATOM     19  C   UNL     1      15.372   7.571   3.854  0.00  0.00    +0.058 A 
ATOM     21  C   UNL     1      20.528   8.201   4.131  0.00  0.00    +0.016 C 
ATOM     22  C   UNL     1      16.139   8.190   4.821  0.00  0.00    +0.015 A 
ATOM     25  C   UNL     1      13.996   7.412   5.557  0.00  0.00    +0.165 A 
ATOM     28  C   UNL     1      11.728   6.478   6.003  0.00  0.00    +0.285 C 
ATOM     37  H   UNL     1      13.011   7.472   7.321  0.00  0.00    +0.157 HD
ENDROOT
BRANCH  28  31
ATOM      6  O   UNL     1      10.978   5.525   8.106  0.00  0.00    -0.458 OA
ATOM     31  C   UNL     1      10.723   6.374   7.077  0.00  0.00    +0.189 A 
ATOM     32  C   UNL     1       9.511   7.000   7.255  0.00  0.00    +0.054 A 
ATOM     33  C   UNL     1       8.989   6.504   8.473  0.00  0.00    +0.042 A 
ATOM     34  C   UNL     1       9.917   5.609   8.952  0.00  0.00    +0.196 A 
ENDBRANCH  28  31
BRANCH  15   2
ATOM      2  O   UNL     1      21.353   8.708   1.323  0.00  0.00    -0.391 OA
ATOM     35  H   UNL     1      21.239   9.222   0.506  0.00  0.00    +0.210 HD
ENDBRANCH  15   2
BRANCH  12  20
ATOM     20  C   UNL     1      19.734  10.274   3.051  0.00  0.00    +0.165 C 
BRANCH  20   3
ATOM      3  O   UNL     1      21.016  10.570   3.559  0.00  0.00    -0.394 OA
ATOM     36  H   UNL     1      21.032  10.288   4.489  0.00  0.00    +0.209 HD
ENDBRANCH  20   3
ENDBRANCH  12  20
BRANCH  13  23
ATOM     23  C   UNL     1      14.680   7.433   1.441  0.00  0.00    +0.106 C 
BRANCH  23  24
ATOM      4  O   UNL     1      15.270   5.413   0.293  0.00  0.00    -0.276 OA
ATOM      8  N   UNL     1      13.037   5.684   0.859  0.00  0.00    -0.302 N 
ATOM     24  C   UNL     1      14.376   6.088   0.809  0.00  0.00    +0.216 C 
BRANCH   8  26
ATOM     26  C   UNL     1      11.995   6.501   1.476  0.00  0.00    +0.104 C 
ATOM     29  C   UNL     1      10.611   6.003   1.116  0.00  0.00    +0.024 C 
ENDBRANCH   8  26
BRANCH   8  27
ATOM     27  C   UNL     1      12.581   4.418   0.298  0.00  0.00    +0.104 C 
ATOM     30  C   UNL     1      12.992   3.247   1.166  0.00  0.00    +0.024 C 
ENDBRANCH   8  27
ENDBRANCH  23  24
ENDBRANCH  13  23
TORSDOF 8
ENDMDL
