MODEL 1
REMARK VINA RESULT:      -7.0      0.000      0.000
REMARK  Name = 11867055
REMARK  9 active torsions:
REMARK  status: ('A' for Active; 'I' for Inactive)
REMARK    1  A    between atoms: O_3  and  C_15
REMARK    2  A    between atoms: O_4  and  C_20
REMARK    3  A    between atoms: N_8  and  C_26
REMARK    4  A    between atoms: C_10  and  C_18
REMARK    5  A    between atoms: C_12  and  C_20
REMARK    6  A    between atoms: C_12  and  C_21
REMARK    7  A    between atoms: C_13  and  C_23
REMARK    8  A    between atoms: C_23  and  C_24
REMARK    9  A    between atoms: C_31  and  C_32
REMARK                            x       y       z     vdW  Elec       q    Type
REMARK                         _______ _______ _______ _____ _____    ______ ____
ROOT
ATOM      1  S   UNL     1      11.249   3.680   2.394  0.00  0.00    -0.057 S 
ATOM      6  O   UNL     1       9.150   7.035   4.846  0.00  0.00    -0.270 OA
ATOM      7  N   UNL     1      10.084   5.984   2.243  0.00  0.00    -0.229 NA
ATOM      9  N   UNL     1      10.265   4.999   4.435  0.00  0.00    -0.261 N 
ATOM     10  C   UNL     1      11.049   6.083  -1.489  0.00  0.00    -0.019 C 
ATOM     11  C   UNL     1      10.971   4.498  -1.632  0.00  0.00    +0.011 C 
ATOM     12  C   UNL     1      11.409   3.883  -3.016  0.00  0.00    +0.021 C 
ATOM     13  C   UNL     1      10.171   6.508  -0.223  0.00  0.00    +0.054 C 
ATOM     14  C   UNL     1      10.440   6.746  -2.752  0.00  0.00    +0.010 C 
ATOM     15  C   UNL     1      10.748   4.690  -4.169  0.00  0.00    +0.123 C 
ATOM     16  C   UNL     1      11.600   3.785  -0.400  0.00  0.00    +0.049 C 
ATOM     17  C   UNL     1      10.983   6.193  -4.061  0.00  0.00    +0.032 C 
ATOM     18  C   UNL     1      12.498   6.599  -1.307  0.00  0.00    +0.012 C 
ATOM     19  C   UNL     1      10.471   5.630   0.964  0.00  0.00    +0.058 A 
ATOM     21  C   UNL     1      10.880   2.424  -3.111  0.00  0.00    +0.016 C 
ATOM     22  C   UNL     1      11.096   4.403   0.860  0.00  0.00    +0.015 A 
ATOM     25  C   UNL     1      10.449   5.036   3.079  0.00  0.00    +0.165 A 
ATOM     31  C   UNL     1       9.640   5.977   5.226  0.00  0.00    +0.250 C 
ATOM     41  H   UNL     1      10.594   4.141   4.865  0.00  0.00    +0.157 HD
ENDROOT
BRANCH  31  32
ATOM      2  F   UNL     1       9.303   4.784  10.704  0.00  0.00    -0.205 F 
ATOM     32  C   UNL     1       9.550   5.661   6.676  0.00  0.00    +0.037 A 
ATOM     33  C   UNL     1       9.864   4.381   7.131  0.00  0.00    +0.016 A 
ATOM     34  C   UNL     1       9.153   6.645   7.581  0.00  0.00    +0.016 A 
ATOM     35  C   UNL     1       9.780   4.084   8.492  0.00  0.00    +0.039 A 
ATOM     36  C   UNL     1       9.069   6.349   8.942  0.00  0.00    +0.039 A 
ATOM     37  C   UNL     1       9.383   5.069   9.397  0.00  0.00    +0.123 A 
ENDBRANCH  31  32
BRANCH  15   3
ATOM      3  O   UNL     1      11.225   4.240  -5.436  0.00  0.00    -0.391 OA
ATOM     38  H   UNL     1      12.054   3.755  -5.283  0.00  0.00    +0.210 HD
ENDBRANCH  15   3
BRANCH  12  20
ATOM     20  C   UNL     1      12.937   3.784  -3.218  0.00  0.00    +0.165 C 
BRANCH  20   4
ATOM      4  O   UNL     1      13.192   2.669  -4.043  0.00  0.00    -0.394 OA
ATOM     39  H   UNL     1      12.852   1.884  -3.582  0.00  0.00    +0.209 HD
ENDBRANCH  20   4
ENDBRANCH  12  20
BRANCH  13  23
ATOM     23  C   UNL     1      10.258   7.995   0.143  0.00  0.00    +0.106 C 
BRANCH  23  24
ATOM      5  O   UNL     1       8.240   8.960  -0.780  0.00  0.00    -0.276 OA
ATOM      8  N   UNL     1       8.497   8.828   1.526  0.00  0.00    -0.312 N 
ATOM     24  C   UNL     1       8.894   8.643   0.210  0.00  0.00    +0.214 C 
ATOM     40  H   UNL     1       9.096   8.484   2.271  0.00  0.00    +0.149 HD
BRANCH   8  26
ATOM     26  C   UNL     1       7.237   9.429   1.892  0.00  0.00    +0.073 C 
ATOM     27  C   UNL     1       7.244  10.934   1.655  0.00  0.00    +0.022 C 
ATOM     28  C   UNL     1       6.971   9.324   3.388  0.00  0.00    +0.022 C 
ATOM     29  C   UNL     1       7.938  11.513   2.885  0.00  0.00    +0.002 C 
ATOM     30  C   UNL     1       7.725  10.498   4.008  0.00  0.00    +0.002 C 
ENDBRANCH   8  26
ENDBRANCH  23  24
ENDBRANCH  13  23
TORSDOF 7
ENDMDL
MODEL 2
REMARK VINA RESULT:      -6.7     23.854     28.152
REMARK  Name = 11867055
REMARK  9 active torsions:
REMARK  status: ('A' for Active; 'I' for Inactive)
REMARK    1  A    between atoms: O_3  and  C_15
REMARK    2  A    between atoms: O_4  and  C_20
REMARK    3  A    between atoms: N_8  and  C_26
REMARK    4  A    between atoms: C_10  and  C_18
REMARK    5  A    between atoms: C_12  and  C_20
REMARK    6  A    between atoms: C_12  and  C_21
REMARK    7  A    between atoms: C_13  and  C_23
REMARK    8  A    between atoms: C_23  and  C_24
REMARK    9  A    between atoms: C_31  and  C_32
REMARK                            x       y       z     vdW  Elec       q    Type
REMARK                         _______ _______ _______ _____ _____    ______ ____
ROOT
ATOM      1  S   UNL     1      -9.650 -10.199  13.238  0.00  0.00    -0.057 S 
ATOM      6  O   UNL     1      -5.967  -9.007  10.652  0.00  0.00    -0.270 OA
ATOM      7  N   UNL     1      -7.069 -10.042  13.195  0.00  0.00    -0.229 NA
ATOM      9  N   UNL     1      -8.234  -9.339  11.206  0.00  0.00    -0.261 N 
ATOM     10  C   UNL     1      -7.075 -11.042  16.919  0.00  0.00    -0.019 C 
ATOM     11  C   UNL     1      -8.395 -11.920  16.762  0.00  0.00    +0.011 C 
ATOM     12  C   UNL     1      -9.001 -12.541  18.079  0.00  0.00    +0.021 C 
ATOM     13  C   UNL     1      -6.406 -10.895  15.475  0.00  0.00    +0.054 C 
ATOM     14  C   UNL     1      -6.074 -11.777  17.849  0.00  0.00    +0.010 C 
ATOM     15  C   UNL     1      -7.861 -13.194  18.911  0.00  0.00    +0.123 C 
ATOM     16  C   UNL     1      -9.446 -11.209  15.861  0.00  0.00    +0.049 C 
ATOM     17  C   UNL     1      -6.685 -12.255  19.157  0.00  0.00    +0.032 C 
ATOM     18  C   UNL     1      -7.354  -9.635  17.504  0.00  0.00    +0.012 C 
ATOM     19  C   UNL     1      -7.435 -10.527  14.437  0.00  0.00    +0.058 A 
ATOM     21  C   UNL     1      -9.998 -13.670  17.693  0.00  0.00    +0.016 C 
ATOM     22  C   UNL     1      -8.792 -10.694  14.624  0.00  0.00    +0.015 A 
ATOM     25  C   UNL     1      -8.153  -9.826  12.483  0.00  0.00    +0.165 A 
ATOM     31  C   UNL     1      -7.162  -8.965  10.380  0.00  0.00    +0.250 C 
ATOM     41  H   UNL     1      -9.183  -9.298  10.847  0.00  0.00    +0.157 HD
ENDROOT
BRANCH  31  32
ATOM      2  F   UNL     1      -8.585  -7.194   5.243  0.00  0.00    -0.205 F 
ATOM     32  C   UNL     1      -7.540  -8.497   9.020  0.00  0.00    +0.037 A 
ATOM     33  C   UNL     1      -8.295  -7.334   8.868  0.00  0.00    +0.016 A 
ATOM     34  C   UNL     1      -7.137  -9.219   7.897  0.00  0.00    +0.016 A 
ATOM     35  C   UNL     1      -8.648  -6.894   7.592  0.00  0.00    +0.039 A 
ATOM     36  C   UNL     1      -7.491  -8.779   6.621  0.00  0.00    +0.039 A 
ATOM     37  C   UNL     1      -8.246  -7.617   6.469  0.00  0.00    +0.123 A 
ENDBRANCH  31  32
BRANCH  15   3
ATOM      3  O   UNL     1      -8.355 -13.651  20.169  0.00  0.00    -0.391 OA
ATOM     38  H   UNL     1      -7.588 -13.875  20.723  0.00  0.00    +0.210 HD
ENDBRANCH  15   3
BRANCH  12  20
ATOM     20  C   UNL     1      -9.813 -11.548  18.941  0.00  0.00    +0.165 C 
BRANCH  20   4
ATOM      4  O   UNL     1     -10.827 -12.276  19.597  0.00  0.00    -0.394 OA
ATOM     39  H   UNL     1     -11.050 -13.035  19.032  0.00  0.00    +0.209 HD
ENDBRANCH  20   4
ENDBRANCH  12  20
BRANCH  13  23
ATOM     23  C   UNL     1      -5.197  -9.951  15.425  0.00  0.00    +0.106 C 
BRANCH  23  24
ATOM      5  O   UNL     1      -3.121 -11.145  15.770  0.00  0.00    -0.276 OA
ATOM      8  N   UNL     1      -3.841 -10.698  13.606  0.00  0.00    -0.312 N 
ATOM     24  C   UNL     1      -3.939 -10.665  14.989  0.00  0.00    +0.214 C 
ATOM     40  H   UNL     1      -4.601 -10.313  13.052  0.00  0.00    +0.149 HD
BRANCH   8  26
ATOM     26  C   UNL     1      -2.739 -11.315  12.909  0.00  0.00    +0.073 C 
ATOM     27  C   UNL     1      -1.845 -10.277  12.241  0.00  0.00    +0.022 C 
ATOM     28  C   UNL     1      -3.212 -12.159  11.732  0.00  0.00    +0.022 C 
ATOM     29  C   UNL     1      -2.556  -9.943  10.933  0.00  0.00    +0.002 C 
ATOM     30  C   UNL     1      -3.400 -11.168  10.584  0.00  0.00    +0.002 C 
ENDBRANCH   8  26
ENDBRANCH  23  24
ENDBRANCH  13  23
TORSDOF 7
ENDMDL
MODEL 3
REMARK VINA RESULT:      -6.7     42.771     44.986
REMARK  Name = 11867055
REMARK  9 active torsions:
REMARK  status: ('A' for Active; 'I' for Inactive)
REMARK    1  A    between atoms: O_3  and  C_15
REMARK    2  A    between atoms: O_4  and  C_20
REMARK    3  A    between atoms: N_8  and  C_26
REMARK    4  A    between atoms: C_10  and  C_18
REMARK    5  A    between atoms: C_12  and  C_20
REMARK    6  A    between atoms: C_12  and  C_21
REMARK    7  A    between atoms: C_13  and  C_23
REMARK    8  A    between atoms: C_23  and  C_24
REMARK    9  A    between atoms: C_31  and  C_32
REMARK                            x       y       z     vdW  Elec       q    Type
REMARK                         _______ _______ _______ _____ _____    ______ ____
ROOT
ATOM      1  S   UNL     1      -6.429  -9.245  38.463  0.00  0.00    -0.057 S 
ATOM      6  O   UNL     1     -11.060  -9.221  38.938  0.00  0.00    -0.270 OA
ATOM      7  N   UNL     1      -8.403  -8.268  39.820  0.00  0.00    -0.229 NA
ATOM      9  N   UNL     1      -8.957  -9.802  38.046  0.00  0.00    -0.261 N 
ATOM     10  C   UNL     1      -5.813  -6.625  42.158  0.00  0.00    -0.019 C 
ATOM     11  C   UNL     1      -4.744  -6.463  40.988  0.00  0.00    +0.011 C 
ATOM     12  C   UNL     1      -3.323  -5.910  41.390  0.00  0.00    +0.021 C 
ATOM     13  C   UNL     1      -7.259  -6.762  41.490  0.00  0.00    +0.054 C 
ATOM     14  C   UNL     1      -5.804  -5.354  43.046  0.00  0.00    +0.010 C 
ATOM     15  C   UNL     1      -3.496  -4.670  42.313  0.00  0.00    +0.123 C 
ATOM     16  C   UNL     1      -4.693  -7.729  40.085  0.00  0.00    +0.049 C 
ATOM     17  C   UNL     1      -4.415  -4.931  43.502  0.00  0.00    +0.032 C 
ATOM     18  C   UNL     1      -5.541  -7.859  43.054  0.00  0.00    +0.012 C 
ATOM     19  C   UNL     1      -7.237  -7.746  40.348  0.00  0.00    +0.058 A 
ATOM     21  C   UNL     1      -2.584  -5.434  40.108  0.00  0.00    +0.016 C 
ATOM     22  C   UNL     1      -6.076  -8.152  39.721  0.00  0.00    +0.015 A 
ATOM     25  C   UNL     1      -8.099  -9.076  38.828  0.00  0.00    +0.165 A 
ATOM     31  C   UNL     1     -10.358  -9.834  38.141  0.00  0.00    +0.250 C 
ATOM     41  H   UNL     1      -8.492 -10.324  37.311  0.00  0.00    +0.157 HD
ENDROOT
BRANCH  31  32
ATOM      2  F   UNL     1     -12.951 -13.063  34.347  0.00  0.00    -0.205 F 
ATOM     32  C   UNL     1     -11.045 -10.689  37.137  0.00  0.00    +0.037 A 
ATOM     33  C   UNL     1     -12.276 -10.297  36.612  0.00  0.00    +0.016 A 
ATOM     34  C   UNL     1     -10.457 -11.883  36.720  0.00  0.00    +0.016 A 
ATOM     35  C   UNL     1     -12.920 -11.099  35.670  0.00  0.00    +0.039 A 
ATOM     36  C   UNL     1     -11.101 -12.686  35.778  0.00  0.00    +0.039 A 
ATOM     37  C   UNL     1     -12.332 -12.293  35.253  0.00  0.00    +0.123 A 
ENDBRANCH  31  32
BRANCH  15   3
ATOM      3  O   UNL     1      -2.231  -4.224  42.799  0.00  0.00    -0.391 OA
ATOM     38  H   UNL     1      -1.824  -4.963  43.282  0.00  0.00    +0.210 HD
ENDBRANCH  15   3
BRANCH  12  20
ATOM     20  C   UNL     1      -2.390  -6.956  42.042  0.00  0.00    +0.165 C 
BRANCH  20   4
ATOM      4  O   UNL     1      -1.064  -6.628  41.693  0.00  0.00    -0.394 OA
ATOM     39  H   UNL     1      -1.030  -5.666  41.559  0.00  0.00    +0.209 HD
ENDBRANCH  20   4
ENDBRANCH  12  20
BRANCH  13  23
ATOM     23  C   UNL     1      -8.391  -7.073  42.477  0.00  0.00    +0.106 C 
BRANCH  23  24
ATOM      5  O   UNL     1     -10.361  -5.948  43.320  0.00  0.00    -0.276 OA
ATOM      8  N   UNL     1      -9.042  -4.903  41.717  0.00  0.00    -0.312 N 
ATOM     24  C   UNL     1      -9.384  -5.938  42.575  0.00  0.00    +0.214 C 
ATOM     40  H   UNL     1      -8.183  -4.978  41.179  0.00  0.00    +0.149 HD
BRANCH   8  26
ATOM     26  C   UNL     1      -9.814  -3.690  41.599  0.00  0.00    +0.073 C 
ATOM     27  C   UNL     1     -10.895  -3.814  40.532  0.00  0.00    +0.022 C 
ATOM     28  C   UNL     1      -8.971  -2.528  41.090  0.00  0.00    +0.022 C 
ATOM     29  C   UNL     1     -10.169  -3.545  39.217  0.00  0.00    +0.002 C 
ATOM     30  C   UNL     1      -8.957  -2.683  39.571  0.00  0.00    +0.002 C 
ENDBRANCH   8  26
ENDBRANCH  23  24
ENDBRANCH  13  23
TORSDOF 7
ENDMDL
MODEL 4
REMARK VINA RESULT:      -6.6      1.462      2.140
REMARK  Name = 11867055
REMARK  9 active torsions:
REMARK  status: ('A' for Active; 'I' for Inactive)
REMARK    1  A    between atoms: O_3  and  C_15
REMARK    2  A    between atoms: O_4  and  C_20
REMARK    3  A    between atoms: N_8  and  C_26
REMARK    4  A    between atoms: C_10  and  C_18
REMARK    5  A    between atoms: C_12  and  C_20
REMARK    6  A    between atoms: C_12  and  C_21
REMARK    7  A    between atoms: C_13  and  C_23
REMARK    8  A    between atoms: C_23  and  C_24
REMARK    9  A    between atoms: C_31  and  C_32
REMARK                            x       y       z     vdW  Elec       q    Type
REMARK                         _______ _______ _______ _____ _____    ______ ____
ROOT
ATOM      1  S   UNL     1      11.231   3.662   2.389  0.00  0.00    -0.057 S 
ATOM      6  O   UNL     1       9.124   6.985   4.877  0.00  0.00    -0.270 OA
ATOM      7  N   UNL     1      10.055   5.962   2.262  0.00  0.00    -0.229 NA
ATOM      9  N   UNL     1      10.247   4.958   4.444  0.00  0.00    -0.261 N 
ATOM     10  C   UNL     1      11.010   6.099  -1.472  0.00  0.00    -0.019 C 
ATOM     11  C   UNL     1      10.938   4.515  -1.629  0.00  0.00    +0.011 C 
ATOM     12  C   UNL     1      11.375   3.914  -3.019  0.00  0.00    +0.021 C 
ATOM     13  C   UNL     1      10.133   6.508  -0.200  0.00  0.00    +0.054 C 
ATOM     14  C   UNL     1      10.394   6.770  -2.727  0.00  0.00    +0.010 C 
ATOM     15  C   UNL     1      10.707   4.729  -4.163  0.00  0.00    +0.123 C 
ATOM     16  C   UNL     1      11.575   3.794  -0.405  0.00  0.00    +0.049 C 
ATOM     17  C   UNL     1      10.936   6.231  -4.042  0.00  0.00    +0.032 C 
ATOM     18  C   UNL     1      12.457   6.620  -1.289  0.00  0.00    +0.012 C 
ATOM     19  C   UNL     1      10.441   5.621   0.979  0.00  0.00    +0.058 A 
ATOM     21  C   UNL     1      10.854   2.453  -3.126  0.00  0.00    +0.016 C 
ATOM     22  C   UNL     1      11.071   4.399   0.862  0.00  0.00    +0.015 A 
ATOM     25  C   UNL     1      10.427   5.009   3.088  0.00  0.00    +0.165 A 
ATOM     31  C   UNL     1       9.620   5.926   5.246  0.00  0.00    +0.250 C 
ATOM     41  H   UNL     1      10.582   4.098   4.866  0.00  0.00    +0.157 HD
ENDROOT
BRANCH  31  32
ATOM      2  F   UNL     1       9.303   4.683  10.714  0.00  0.00    -0.205 F 
ATOM     32  C   UNL     1       9.535   5.597   6.693  0.00  0.00    +0.037 A 
ATOM     33  C   UNL     1       9.871   4.318   7.138  0.00  0.00    +0.016 A 
ATOM     34  C   UNL     1       9.122   6.567   7.606  0.00  0.00    +0.016 A 
ATOM     35  C   UNL     1       9.793   4.009   8.496  0.00  0.00    +0.039 A 
ATOM     36  C   UNL     1       9.043   6.258   8.964  0.00  0.00    +0.039 A 
ATOM     37  C   UNL     1       9.378   4.979   9.409  0.00  0.00    +0.123 A 
ENDBRANCH  31  32
BRANCH  15   3
ATOM      3  O   UNL     1      11.183   4.292  -5.436  0.00  0.00    -0.391 OA
ATOM     38  H   UNL     1      12.015   3.810  -5.290  0.00  0.00    +0.210 HD
ENDBRANCH  15   3
BRANCH  12  20
ATOM     20  C   UNL     1      12.904   3.825  -3.227  0.00  0.00    +0.165 C 
BRANCH  20   4
ATOM      4  O   UNL     1      13.168   2.675  -3.999  0.00  0.00    -0.394 OA
ATOM     39  H   UNL     1      13.634   2.042  -3.427  0.00  0.00    +0.209 HD
ENDBRANCH  20   4
ENDBRANCH  12  20
BRANCH  13  23
ATOM     23  C   UNL     1      10.214   7.993   0.180  0.00  0.00    +0.106 C 
BRANCH  23  24
ATOM      5  O   UNL     1       8.315   8.828   1.425  0.00  0.00    -0.276 OA
ATOM      8  N   UNL     1       8.281   8.894  -0.898  0.00  0.00    -0.312 N 
ATOM     24  C   UNL     1       8.845   8.612   0.338  0.00  0.00    +0.214 C 
ATOM     40  H   UNL     1       8.829   8.719  -1.736  0.00  0.00    +0.149 HD
BRANCH   8  26
ATOM     26  C   UNL     1       6.976   9.488  -1.052  0.00  0.00    +0.073 C 
ATOM     27  C   UNL     1       6.073   8.638  -1.936  0.00  0.00    +0.022 C 
ATOM     28  C   UNL     1       7.039  10.810  -1.806  0.00  0.00    +0.022 C 
ATOM     29  C   UNL     1       6.469   9.011  -3.361  0.00  0.00    +0.002 C 
ATOM     30  C   UNL     1       7.050  10.423  -3.284  0.00  0.00    +0.002 C 
ENDBRANCH   8  26
ENDBRANCH  23  24
ENDBRANCH  13  23
TORSDOF 7
ENDMDL
MODEL 5
REMARK VINA RESULT:      -6.6      5.365      7.088
REMARK  Name = 11867055
REMARK  9 active torsions:
REMARK  status: ('A' for Active; 'I' for Inactive)
REMARK    1  A    between atoms: O_3  and  C_15
REMARK    2  A    between atoms: O_4  and  C_20
REMARK    3  A    between atoms: N_8  and  C_26
REMARK    4  A    between atoms: C_10  and  C_18
REMARK    5  A    between atoms: C_12  and  C_20
REMARK    6  A    between atoms: C_12  and  C_21
REMARK    7  A    between atoms: C_13  and  C_23
REMARK    8  A    between atoms: C_23  and  C_24
REMARK    9  A    between atoms: C_31  and  C_32
REMARK                            x       y       z     vdW  Elec       q    Type
REMARK                         _______ _______ _______ _____ _____    ______ ____
ROOT
ATOM      1  S   UNL     1      15.252   7.727   6.220  0.00  0.00    -0.057 S 
ATOM      6  O   UNL     1      11.099   6.128   4.853  0.00  0.00    -0.270 OA
ATOM      7  N   UNL     1      13.801   7.118   4.167  0.00  0.00    -0.229 NA
ATOM      9  N   UNL     1      12.797   6.815   6.337  0.00  0.00    -0.261 N 
ATOM     10  C   UNL     1      16.608   8.524   1.928  0.00  0.00    -0.019 C 
ATOM     11  C   UNL     1      17.746   8.121   2.967  0.00  0.00    +0.011 C 
ATOM     12  C   UNL     1      19.217   8.578   2.630  0.00  0.00    +0.021 C 
ATOM     13  C   UNL     1      15.328   7.613   2.221  0.00  0.00    +0.054 C 
ATOM     14  C   UNL     1      17.098   8.231   0.487  0.00  0.00    +0.010 C 
ATOM     15  C   UNL     1      19.527   8.253   1.141  0.00  0.00    +0.123 C 
ATOM     16  C   UNL     1      17.314   8.427   4.431  0.00  0.00    +0.049 C 
ATOM     17  C   UNL     1      18.477   8.795   0.177  0.00  0.00    +0.032 C 
ATOM     18  C   UNL     1      16.210  10.018   2.023  0.00  0.00    +0.012 C 
ATOM     19  C   UNL     1      15.020   7.570   3.695  0.00  0.00    +0.058 A 
ATOM     21  C   UNL     1      20.214   7.761   3.499  0.00  0.00    +0.016 C 
ATOM     22  C   UNL     1      15.931   7.921   4.671  0.00  0.00    +0.015 A 
ATOM     25  C   UNL     1      13.808   7.164   5.482  0.00  0.00    +0.165 A 
ATOM     31  C   UNL     1      11.528   6.327   5.984  0.00  0.00    +0.250 C 
ATOM     41  H   UNL     1      13.050   6.895   7.317  0.00  0.00    +0.157 HD
ENDROOT
BRANCH  31  32
ATOM      2  F   UNL     1       8.153   5.077  10.296  0.00  0.00    -0.205 F 
ATOM     32  C   UNL     1      10.634   5.996   7.125  0.00  0.00    +0.037 A 
ATOM     33  C   UNL     1      10.542   4.681   7.580  0.00  0.00    +0.016 A 
ATOM     34  C   UNL     1       9.889   7.001   7.741  0.00  0.00    +0.016 A 
ATOM     35  C   UNL     1       9.704   4.370   8.651  0.00  0.00    +0.039 A 
ATOM     36  C   UNL     1       9.050   6.690   8.812  0.00  0.00    +0.039 A 
ATOM     37  C   UNL     1       8.957   5.375   9.267  0.00  0.00    +0.123 A 
ENDBRANCH  31  32
BRANCH  15   3
ATOM      3  O   UNL     1      20.803   8.770   0.768  0.00  0.00    -0.391 OA
ATOM     38  H   UNL     1      20.709   9.187  -0.105  0.00  0.00    +0.210 HD
ENDBRANCH  15   3
BRANCH  12  20
ATOM     20  C   UNL     1      19.515  10.062   2.942  0.00  0.00    +0.165 C 
BRANCH  20   4
ATOM      4  O   UNL     1      20.834  10.143   3.434  0.00  0.00    -0.394 OA
ATOM     39  H   UNL     1      21.097   9.248   3.705  0.00  0.00    +0.209 HD
ENDBRANCH  20   4
ENDBRANCH  12  20
BRANCH  13  23
ATOM     23  C   UNL     1      14.085   7.977   1.398  0.00  0.00    +0.106 C 
BRANCH  23  24
ATOM      5  O   UNL     1      13.729   6.870  -0.724  0.00  0.00    -0.276 OA
ATOM      8  N   UNL     1      13.145   5.785   1.247  0.00  0.00    -0.312 N 
ATOM     24  C   UNL     1      13.647   6.842   0.502  0.00  0.00    +0.214 C 
ATOM     40  H   UNL     1      13.168   5.848   2.262  0.00  0.00    +0.149 HD
BRANCH   8  26
ATOM     26  C   UNL     1      12.650   4.567   0.654  0.00  0.00    +0.073 C 
ATOM     27  C   UNL     1      11.163   4.660   0.339  0.00  0.00    +0.022 C 
ATOM     28  C   UNL     1      12.717   3.395   1.624  0.00  0.00    +0.022 C 
ATOM     29  C   UNL     1      10.470   4.359   1.665  0.00  0.00    +0.002 C 
ATOM     30  C   UNL     1      11.452   3.510   2.472  0.00  0.00    +0.002 C 
ENDBRANCH   8  26
ENDBRANCH  23  24
ENDBRANCH  13  23
TORSDOF 7
ENDMDL
MODEL 6
REMARK VINA RESULT:      -6.6     24.172     28.249
REMARK  Name = 11867055
REMARK  9 active torsions:
REMARK  status: ('A' for Active; 'I' for Inactive)
REMARK    1  A    between atoms: O_3  and  C_15
REMARK    2  A    between atoms: O_4  and  C_20
REMARK    3  A    between atoms: N_8  and  C_26
REMARK    4  A    between atoms: C_10  and  C_18
REMARK    5  A    between atoms: C_12  and  C_20
REMARK    6  A    between atoms: C_12  and  C_21
REMARK    7  A    between atoms: C_13  and  C_23
REMARK    8  A    between atoms: C_23  and  C_24
REMARK    9  A    between atoms: C_31  and  C_32
REMARK                            x       y       z     vdW  Elec       q    Type
REMARK                         _______ _______ _______ _____ _____    ______ ____
ROOT
ATOM      1  S   UNL     1      -7.132 -10.814  12.468  0.00  0.00    -0.057 S 
ATOM      6  O   UNL     1      -3.398 -12.226  10.073  0.00  0.00    -0.270 OA
ATOM      7  N   UNL     1      -4.742 -11.781  12.671  0.00  0.00    -0.229 NA
ATOM      9  N   UNL     1      -5.562 -11.368  10.443  0.00  0.00    -0.261 N 
ATOM     10  C   UNL     1      -5.039 -11.368  16.493  0.00  0.00    -0.019 C 
ATOM     11  C   UNL     1      -6.614 -11.606  16.475  0.00  0.00    +0.011 C 
ATOM     12  C   UNL     1      -7.379 -11.432  17.843  0.00  0.00    +0.021 C 
ATOM     13  C   UNL     1      -4.428 -12.011  15.163  0.00  0.00    +0.054 C 
ATOM     14  C   UNL     1      -4.421 -12.095  17.716  0.00  0.00    +0.010 C 
ATOM     15  C   UNL     1      -6.604 -12.181  18.964  0.00  0.00    +0.123 C 
ATOM     16  C   UNL     1      -7.287 -10.868  15.281  0.00  0.00    +0.049 C 
ATOM     17  C   UNL     1      -5.129 -11.801  19.030  0.00  0.00    +0.032 C 
ATOM     18  C   UNL     1      -4.658  -9.868  16.563  0.00  0.00    +0.012 C 
ATOM     19  C   UNL     1      -5.234 -11.618  13.952  0.00  0.00    +0.058 A 
ATOM     21  C   UNL     1      -8.780 -12.095  17.727  0.00  0.00    +0.016 C 
ATOM     22  C   UNL     1      -6.522 -11.125  14.027  0.00  0.00    +0.015 A 
ATOM     25  C   UNL     1      -5.652 -11.383  11.809  0.00  0.00    +0.165 A 
ATOM     31  C   UNL     1      -4.466 -11.781   9.668  0.00  0.00    +0.250 C 
ATOM     41  H   UNL     1      -6.412 -11.056   9.984  0.00  0.00    +0.157 HD
ENDROOT
BRANCH  31  32
ATOM      2  F   UNL     1      -5.181 -11.422   4.109  0.00  0.00    -0.205 F 
ATOM     32  C   UNL     1      -4.655 -11.686   8.196  0.00  0.00    +0.037 A 
ATOM     33  C   UNL     1      -4.082 -12.641   7.356  0.00  0.00    +0.016 A 
ATOM     34  C   UNL     1      -5.405 -10.642   7.656  0.00  0.00    +0.016 A 
ATOM     35  C   UNL     1      -4.260 -12.552   5.975  0.00  0.00    +0.039 A 
ATOM     36  C   UNL     1      -5.583 -10.552   6.275  0.00  0.00    +0.039 A 
ATOM     37  C   UNL     1      -5.010 -11.507   5.435  0.00  0.00    +0.123 A 
ENDBRANCH  31  32
BRANCH  15   3
ATOM      3  O   UNL     1      -7.199 -11.936  20.237  0.00  0.00    -0.391 OA
ATOM     38  H   UNL     1      -8.095 -11.591  20.082  0.00  0.00    +0.210 HD
ENDBRANCH  15   3
BRANCH  12  20
ATOM     20  C   UNL     1      -7.647  -9.964  18.245  0.00  0.00    +0.165 C 
BRANCH  20   4
ATOM      4  O   UNL     1      -8.880  -9.922  18.927  0.00  0.00    -0.394 OA
ATOM     39  H   UNL     1      -9.502 -10.483  18.435  0.00  0.00    +0.209 HD
ENDBRANCH  20   4
ENDBRANCH  12  20
BRANCH  13  23
ATOM     23  C   UNL     1      -2.932 -11.740  14.953  0.00  0.00    +0.106 C 
BRANCH  23  24
ATOM      5  O   UNL     1      -1.215 -12.886  13.691  0.00  0.00    -0.276 OA
ATOM      8  N   UNL     1      -2.818 -14.123  14.832  0.00  0.00    -0.312 N 
ATOM     24  C   UNL     1      -2.209 -12.950  14.411  0.00  0.00    +0.214 C 
ATOM     40  H   UNL     1      -3.609 -14.063  15.468  0.00  0.00    +0.149 HD
BRANCH   8  26
ATOM     26  C   UNL     1      -2.343 -15.435  14.464  0.00  0.00    +0.073 C 
ATOM     27  C   UNL     1      -2.958 -15.907  13.153  0.00  0.00    +0.022 C 
ATOM     28  C   UNL     1      -2.796 -16.502  15.453  0.00  0.00    +0.022 C 
ATOM     29  C   UNL     1      -4.327 -16.455  13.547  0.00  0.00    +0.002 C 
ATOM     30  C   UNL     1      -4.209 -16.876  15.012  0.00  0.00    +0.002 C 
ENDBRANCH   8  26
ENDBRANCH  23  24
ENDBRANCH  13  23
TORSDOF 7
ENDMDL
MODEL 7
REMARK VINA RESULT:      -6.6     22.619     24.308
REMARK  Name = 11867055
REMARK  9 active torsions:
REMARK  status: ('A' for Active; 'I' for Inactive)
REMARK    1  A    between atoms: O_3  and  C_15
REMARK    2  A    between atoms: O_4  and  C_20
REMARK    3  A    between atoms: N_8  and  C_26
REMARK    4  A    between atoms: C_10  and  C_18
REMARK    5  A    between atoms: C_12  and  C_20
REMARK    6  A    between atoms: C_12  and  C_21
REMARK    7  A    between atoms: C_13  and  C_23
REMARK    8  A    between atoms: C_23  and  C_24
REMARK    9  A    between atoms: C_31  and  C_32
REMARK                            x       y       z     vdW  Elec       q    Type
REMARK                         _______ _______ _______ _____ _____    ______ ____
ROOT
ATOM      1  S   UNL     1      -7.608  -7.876   6.648  0.00  0.00    -0.057 S 
ATOM      6  O   UNL     1      -4.628 -11.420   7.125  0.00  0.00    -0.270 OA
ATOM      7  N   UNL     1      -6.658  -9.997   5.512  0.00  0.00    -0.229 NA
ATOM      9  N   UNL     1      -5.796  -9.454   7.696  0.00  0.00    -0.261 N 
ATOM     10  C   UNL     1      -9.247  -9.493   2.699  0.00  0.00    -0.019 C 
ATOM     11  C   UNL     1      -9.236  -7.909   2.866  0.00  0.00    +0.011 C 
ATOM     12  C   UNL     1     -10.264  -7.091   1.993  0.00  0.00    +0.021 C 
ATOM     13  C   UNL     1      -7.883 -10.062   3.308  0.00  0.00    +0.054 C 
ATOM     14  C   UNL     1      -9.297  -9.853   1.191  0.00  0.00    +0.010 C 
ATOM     15  C   UNL     1     -10.218  -7.608   0.527  0.00  0.00    +0.123 C 
ATOM     16  C   UNL     1      -9.218  -7.496   4.366  0.00  0.00    +0.049 C 
ATOM     17  C   UNL     1     -10.384  -9.120   0.419  0.00  0.00    +0.032 C 
ATOM     18  C   UNL     1     -10.448 -10.164   3.410  0.00  0.00    +0.012 C 
ATOM     19  C   UNL     1      -7.593  -9.449   4.654  0.00  0.00    +0.058 A 
ATOM     21  C   UNL     1      -9.833  -5.597   1.971  0.00  0.00    +0.016 C 
ATOM     22  C   UNL     1      -8.189  -8.287   5.101  0.00  0.00    +0.015 A 
ATOM     25  C   UNL     1      -6.589  -9.257   6.597  0.00  0.00    +0.165 A 
ATOM     31  C   UNL     1      -4.880 -10.500   7.895  0.00  0.00    +0.250 C 
ATOM     41  H   UNL     1      -5.883  -8.723   8.395  0.00  0.00    +0.157 HD
ENDROOT
BRANCH  31  32
ATOM      2  F   UNL     1      -2.025 -10.312  12.728  0.00  0.00    -0.205 F 
ATOM     32  C   UNL     1      -4.125 -10.450   9.175  0.00  0.00    +0.037 A 
ATOM     33  C   UNL     1      -3.978 -11.605   9.943  0.00  0.00    +0.016 A 
ATOM     34  C   UNL     1      -3.563  -9.249   9.607  0.00  0.00    +0.016 A 
ATOM     35  C   UNL     1      -3.268 -11.558  11.144  0.00  0.00    +0.039 A 
ATOM     36  C   UNL     1      -2.854  -9.202  10.807  0.00  0.00    +0.039 A 
ATOM     37  C   UNL     1      -2.707 -10.357  11.575  0.00  0.00    +0.123 A 
ENDBRANCH  31  32
BRANCH  15   3
ATOM      3  O   UNL     1     -11.227  -6.977  -0.260  0.00  0.00    -0.391 OA
ATOM     38  H   UNL     1     -11.197  -6.024  -0.070  0.00  0.00    +0.210 HD
ENDBRANCH  15   3
BRANCH  12  20
ATOM     20  C   UNL     1     -11.711  -7.097   2.534  0.00  0.00    +0.165 C 
BRANCH  20   4
ATOM      4  O   UNL     1     -12.265  -5.822   2.298  0.00  0.00    -0.394 OA
ATOM     39  H   UNL     1     -12.514  -5.784   1.360  0.00  0.00    +0.209 HD
ENDBRANCH  20   4
ENDBRANCH  12  20
BRANCH  13  23
ATOM     23  C   UNL     1      -7.797 -11.593   3.359  0.00  0.00    +0.106 C 
BRANCH  23  24
ATOM      5  O   UNL     1      -6.699 -12.355   1.342  0.00  0.00    -0.276 OA
ATOM      8  N   UNL     1      -5.518 -12.310   3.343  0.00  0.00    -0.312 N 
ATOM     24  C   UNL     1      -6.639 -12.123   2.546  0.00  0.00    +0.214 C 
ATOM     40  H   UNL     1      -5.564 -12.039   4.322  0.00  0.00    +0.149 HD
BRANCH   8  26
ATOM     26  C   UNL     1      -4.264 -12.810   2.835  0.00  0.00    +0.073 C 
ATOM     27  C   UNL     1      -4.181 -14.328   2.939  0.00  0.00    +0.022 C 
ATOM     28  C   UNL     1      -3.084 -12.349   3.681  0.00  0.00    +0.022 C 
ATOM     29  C   UNL     1      -3.763 -14.591   4.383  0.00  0.00    +0.002 C 
ATOM     30  C   UNL     1      -3.021 -13.336   4.844  0.00  0.00    +0.002 C 
ENDBRANCH   8  26
ENDBRANCH  23  24
ENDBRANCH  13  23
TORSDOF 7
ENDMDL
MODEL 8
REMARK VINA RESULT:      -6.6      7.045      9.159
REMARK  Name = 11867055
REMARK  9 active torsions:
REMARK  status: ('A' for Active; 'I' for Inactive)
REMARK    1  A    between atoms: O_3  and  C_15
REMARK    2  A    between atoms: O_4  and  C_20
REMARK    3  A    between atoms: N_8  and  C_26
REMARK    4  A    between atoms: C_10  and  C_18
REMARK    5  A    between atoms: C_12  and  C_20
REMARK    6  A    between atoms: C_12  and  C_21
REMARK    7  A    between atoms: C_13  and  C_23
REMARK    8  A    between atoms: C_23  and  C_24
REMARK    9  A    between atoms: C_31  and  C_32
REMARK                            x       y       z     vdW  Elec       q    Type
REMARK                         _______ _______ _______ _____ _____    ______ ____
ROOT
ATOM      1  S   UNL     1      15.437   8.070   6.089  0.00  0.00    -0.057 S 
ATOM      6  O   UNL     1      12.490   6.607   2.795  0.00  0.00    -0.270 OA
ATOM      7  N   UNL     1      15.220   7.420   3.594  0.00  0.00    -0.229 NA
ATOM      9  N   UNL     1      13.218   7.290   4.930  0.00  0.00    -0.261 N 
ATOM     10  C   UNL     1      18.873   8.555   3.114  0.00  0.00    -0.019 C 
ATOM     11  C   UNL     1      19.276   8.154   4.602  0.00  0.00    +0.011 C 
ATOM     12  C   UNL     1      20.737   8.517   5.070  0.00  0.00    +0.021 C 
ATOM     13  C   UNL     1      17.565   7.727   2.717  0.00  0.00    +0.054 C 
ATOM     14  C   UNL     1      20.017   8.156   2.145  0.00  0.00    +0.010 C 
ATOM     15  C   UNL     1      21.749   8.093   3.968  0.00  0.00    +0.123 C 
ATOM     16  C   UNL     1      18.171   8.564   5.620  0.00  0.00    +0.049 C 
ATOM     17  C   UNL     1      21.393   8.631   2.587  0.00  0.00    +0.032 C 
ATOM     18  C   UNL     1      18.593  10.070   2.955  0.00  0.00    +0.012 C 
ATOM     19  C   UNL     1      16.535   7.783   3.816  0.00  0.00    +0.058 A 
ATOM     21  C   UNL     1      21.077   7.701   6.349  0.00  0.00    +0.016 C 
ATOM     22  C   UNL     1      16.832   8.142   5.115  0.00  0.00    +0.015 A 
ATOM     25  C   UNL     1      14.547   7.540   4.718  0.00  0.00    +0.165 A 
ATOM     31  C   UNL     1      12.284   6.848   3.979  0.00  0.00    +0.250 C 
ATOM     41  H   UNL     1      12.931   7.413   5.896  0.00  0.00    +0.157 HD
ENDROOT
BRANCH  31  32
ATOM      2  F   UNL     1       7.082   6.016   5.927  0.00  0.00    -0.205 F 
ATOM     32  C   UNL     1      10.907   6.627   4.494  0.00  0.00    +0.037 A 
ATOM     33  C   UNL     1      10.703   5.827   5.619  0.00  0.00    +0.016 A 
ATOM     34  C   UNL     1       9.819   7.220   3.854  0.00  0.00    +0.016 A 
ATOM     35  C   UNL     1       9.411   5.621   6.103  0.00  0.00    +0.039 A 
ATOM     36  C   UNL     1       8.527   7.014   4.337  0.00  0.00    +0.039 A 
ATOM     37  C   UNL     1       8.323   6.214   5.462  0.00  0.00    +0.123 A 
ENDBRANCH  31  32
BRANCH  15   3
ATOM      3  O   UNL     1      23.068   8.523   4.303  0.00  0.00    -0.391 OA
ATOM     38  H   UNL     1      23.516   7.783   4.746  0.00  0.00    +0.210 HD
ENDBRANCH  15   3
BRANCH  12  20
ATOM     20  C   UNL     1      20.936   9.999   5.459  0.00  0.00    +0.165 C 
BRANCH  20   4
ATOM      4  O   UNL     1      21.771  10.039   6.595  0.00  0.00    -0.394 OA
ATOM     39  H   UNL     1      21.975  10.972   6.772  0.00  0.00    +0.209 HD
ENDBRANCH  20   4
ENDBRANCH  12  20
BRANCH  13  23
ATOM     23  C   UNL     1      16.958   8.105   1.360  0.00  0.00    +0.106 C 
BRANCH  23  24
ATOM      5  O   UNL     1      17.567   6.871  -0.630  0.00  0.00    -0.276 OA
ATOM      8  N   UNL     1      16.052   5.949   0.873  0.00  0.00    -0.312 N 
ATOM     24  C   UNL     1      16.917   6.931   0.411  0.00  0.00    +0.214 C 
ATOM     40  H   UNL     1      15.600   6.080   1.774  0.00  0.00    +0.149 HD
BRANCH   8  26
ATOM     26  C   UNL     1      15.812   4.714   0.166  0.00  0.00    +0.073 C 
ATOM     27  C   UNL     1      14.602   4.820  -0.753  0.00  0.00    +0.022 C 
ATOM     28  C   UNL     1      15.419   3.586   1.112  0.00  0.00    +0.022 C 
ATOM     29  C   UNL     1      13.403   4.592   0.162  0.00  0.00    +0.002 C 
ATOM     30  C   UNL     1      13.919   3.763   1.338  0.00  0.00    +0.002 C 
ENDBRANCH   8  26
ENDBRANCH  23  24
ENDBRANCH  13  23
TORSDOF 7
ENDMDL
MODEL 9
REMARK VINA RESULT:      -6.6     27.456     31.185
REMARK  Name = 11867055
REMARK  9 active torsions:
REMARK  status: ('A' for Active; 'I' for Inactive)
REMARK    1  A    between atoms: O_3  and  C_15
REMARK    2  A    between atoms: O_4  and  C_20
REMARK    3  A    between atoms: N_8  and  C_26
REMARK    4  A    between atoms: C_10  and  C_18
REMARK    5  A    between atoms: C_12  and  C_20
REMARK    6  A    between atoms: C_12  and  C_21
REMARK    7  A    between atoms: C_13  and  C_23
REMARK    8  A    between atoms: C_23  and  C_24
REMARK    9  A    between atoms: C_31  and  C_32
REMARK                            x       y       z     vdW  Elec       q    Type
REMARK                         _______ _______ _______ _____ _____    ______ ____
ROOT
ATOM      1  S   UNL     1     -11.860 -10.516  18.987  0.00  0.00    -0.057 S 
ATOM      6  O   UNL     1      -8.111  -8.882  16.762  0.00  0.00    -0.270 OA
ATOM      7  N   UNL     1     -11.042  -8.876  17.162  0.00  0.00    -0.229 NA
ATOM      9  N   UNL     1      -9.356 -10.180  18.285  0.00  0.00    -0.261 N 
ATOM     10  C   UNL     1     -14.739  -8.152  16.338  0.00  0.00    -0.019 C 
ATOM     11  C   UNL     1     -15.205  -8.406  17.840  0.00  0.00    +0.011 C 
ATOM     12  C   UNL     1     -16.755  -8.365  18.124  0.00  0.00    +0.021 C 
ATOM     13  C   UNL     1     -13.179  -7.803  16.358  0.00  0.00    +0.054 C 
ATOM     14  C   UNL     1     -15.505  -6.934  15.759  0.00  0.00    +0.010 C 
ATOM     15  C   UNL     1     -17.370  -7.112  17.438  0.00  0.00    +0.123 C 
ATOM     16  C   UNL     1     -14.486  -9.641  18.457  0.00  0.00    +0.049 C 
ATOM     17  C   UNL     1     -17.011  -7.001  15.960  0.00  0.00    +0.032 C 
ATOM     18  C   UNL     1     -14.982  -9.374  15.418  0.00  0.00    +0.012 C 
ATOM     19  C   UNL     1     -12.419  -8.771  17.228  0.00  0.00    +0.058 A 
ATOM     21  C   UNL     1     -16.985  -8.214  19.655  0.00  0.00    +0.016 C 
ATOM     22  C   UNL     1     -13.022  -9.572  18.176  0.00  0.00    +0.015 A 
ATOM     25  C   UNL     1     -10.638  -9.770  18.037  0.00  0.00    +0.165 A 
ATOM     31  C   UNL     1      -8.190  -9.724  17.650  0.00  0.00    +0.250 C 
ATOM     41  H   UNL     1      -9.285 -10.855  19.041  0.00  0.00    +0.157 HD
ENDROOT
BRANCH  31  32
ATOM      2  F   UNL     1      -3.397 -11.986  19.509  0.00  0.00    -0.205 F 
ATOM     32  C   UNL     1      -6.920 -10.322  18.142  0.00  0.00    +0.037 A 
ATOM     33  C   UNL     1      -6.843 -10.821  19.443  0.00  0.00    +0.016 A 
ATOM     34  C   UNL     1      -5.808 -10.386  17.304  0.00  0.00    +0.016 A 
ATOM     35  C   UNL     1      -5.653 -11.383  19.905  0.00  0.00    +0.039 A 
ATOM     36  C   UNL     1      -4.617 -10.948  17.765  0.00  0.00    +0.039 A 
ATOM     37  C   UNL     1      -4.540 -11.446  19.066  0.00  0.00    +0.123 A 
ENDBRANCH  31  32
BRANCH  15   3
ATOM      3  O   UNL     1     -18.791  -7.115  17.567  0.00  0.00    -0.391 OA
ATOM     38  H   UNL     1     -19.003  -7.347  18.488  0.00  0.00    +0.210 HD
ENDBRANCH  15   3
BRANCH  12  20
ATOM     20  C   UNL     1     -17.516  -9.646  17.715  0.00  0.00    +0.165 C 
BRANCH  20   4
ATOM      4  O   UNL     1     -18.563  -9.840  18.639  0.00  0.00    -0.394 OA
ATOM     39  H   UNL     1     -18.683  -9.004  19.120  0.00  0.00    +0.209 HD
ENDBRANCH  20   4
ENDBRANCH  12  20
BRANCH  13  23
ATOM     23  C   UNL     1     -12.537  -7.672  14.970  0.00  0.00    +0.106 C 
BRANCH  23  24
ATOM      5  O   UNL     1     -11.167  -5.686  15.149  0.00  0.00    -0.276 OA
ATOM      8  N   UNL     1     -13.031  -5.672  13.761  0.00  0.00    -0.312 N 
ATOM     24  C   UNL     1     -12.144  -6.247  14.660  0.00  0.00    +0.214 C 
ATOM     40  H   UNL     1     -13.780  -6.244  13.380  0.00  0.00    +0.149 HD
BRANCH   8  26
ATOM     26  C   UNL     1     -12.904  -4.316  13.287  0.00  0.00    +0.073 C 
ATOM     27  C   UNL     1     -14.265  -3.682  13.028  0.00  0.00    +0.022 C 
ATOM     28  C   UNL     1     -12.238  -4.253  11.918  0.00  0.00    +0.022 C 
ATOM     29  C   UNL     1     -14.667  -4.185  11.645  0.00  0.00    +0.002 C 
ATOM     30  C   UNL     1     -13.362  -4.511  10.917  0.00  0.00    +0.002 C 
ENDBRANCH   8  26
ENDBRANCH  23  24
ENDBRANCH  13  23
TORSDOF 7
ENDMDL
MODEL 10
REMARK VINA RESULT:      -6.3     15.392     19.392
REMARK  Name = 11867055
REMARK  9 active torsions:
REMARK  status: ('A' for Active; 'I' for Inactive)
REMARK    1  A    between atoms: O_3  and  C_15
REMARK    2  A    between atoms: O_4  and  C_20
REMARK    3  A    between atoms: N_8  and  C_26
REMARK    4  A    between atoms: C_10  and  C_18
REMARK    5  A    between atoms: C_12  and  C_20
REMARK    6  A    between atoms: C_12  and  C_21
REMARK    7  A    between atoms: C_13  and  C_23
REMARK    8  A    between atoms: C_23  and  C_24
REMARK    9  A    between atoms: C_31  and  C_32
REMARK                            x       y       z     vdW  Elec       q    Type
REMARK                         _______ _______ _______ _____ _____    ______ ____
ROOT
ATOM      1  S   UNL     1      20.842  -5.441   1.002  0.00  0.00    -0.057 S 
ATOM      6  O   UNL     1      18.010  -6.760  -2.450  0.00  0.00    -0.270 OA
ATOM      7  N   UNL     1      19.609  -7.452  -0.060  0.00  0.00    -0.229 NA
ATOM      9  N   UNL     1      19.314  -5.311  -1.125  0.00  0.00    -0.261 N 
ATOM     10  C   UNL     1      21.442  -9.734   2.451  0.00  0.00    -0.019 C 
ATOM     11  C   UNL     1      21.498  -8.596   3.564  0.00  0.00    +0.011 C 
ATOM     12  C   UNL     1      22.295  -8.926   4.884  0.00  0.00    +0.021 C 
ATOM     13  C   UNL     1      20.259  -9.376   1.438  0.00  0.00    +0.054 C 
ATOM     14  C   UNL     1      21.118 -11.095   3.120  0.00  0.00    +0.010 C 
ATOM     15  C   UNL     1      21.885 -10.337   5.393  0.00  0.00    +0.123 C 
ATOM     16  C   UNL     1      21.853  -7.213   2.946  0.00  0.00    +0.049 C 
ATOM     17  C   UNL     1      21.995 -11.416   4.321  0.00  0.00    +0.032 C 
ATOM     18  C   UNL     1      22.770  -9.871   1.665  0.00  0.00    +0.012 C 
ATOM     19  C   UNL     1      20.316  -7.926   1.030  0.00  0.00    +0.058 A 
ATOM     21  C   UNL     1      21.896  -7.904   5.986  0.00  0.00    +0.016 C 
ATOM     22  C   UNL     1      21.021  -6.969   1.732  0.00  0.00    +0.015 A 
ATOM     25  C   UNL     1      19.818  -6.159  -0.176  0.00  0.00    +0.165 A 
ATOM     31  C   UNL     1      18.457  -5.650  -2.185  0.00  0.00    +0.250 C 
ATOM     41  H   UNL     1      19.581  -4.342  -0.986  0.00  0.00    +0.157 HD
ENDROOT
BRANCH  31  32
ATOM      2  F   UNL     1      16.876  -1.369  -5.458  0.00  0.00    -0.205 F 
ATOM     32  C   UNL     1      18.038  -4.517  -3.052  0.00  0.00    +0.037 A 
ATOM     33  C   UNL     1      17.269  -3.481  -2.522  0.00  0.00    +0.016 A 
ATOM     34  C   UNL     1      18.415  -4.489  -4.395  0.00  0.00    +0.016 A 
ATOM     35  C   UNL     1      16.876  -2.417  -3.335  0.00  0.00    +0.039 A 
ATOM     36  C   UNL     1      18.022  -3.426  -5.208  0.00  0.00    +0.039 A 
ATOM     37  C   UNL     1      17.253  -2.391  -4.678  0.00  0.00    +0.123 A 
ENDBRANCH  31  32
BRANCH  15   3
ATOM      3  O   UNL     1      22.682 -10.720   6.513  0.00  0.00    -0.391 OA
ATOM     38  H   UNL     1      23.562 -10.965   6.179  0.00  0.00    +0.210 HD
ENDBRANCH  15   3
BRANCH  12  20
ATOM     20  C   UNL     1      23.830  -8.813   4.751  0.00  0.00    +0.165 C 
BRANCH  20   4
ATOM      4  O   UNL     1      24.339  -8.365   5.987  0.00  0.00    -0.394 OA
ATOM     39  H   UNL     1      23.655  -7.809   6.397  0.00  0.00    +0.209 HD
ENDBRANCH  20   4
ENDBRANCH  12  20
BRANCH  13  23
ATOM     23  C   UNL     1      20.163 -10.299   0.217  0.00  0.00    +0.106 C 
BRANCH  23  24
ATOM      5  O   UNL     1      18.269 -11.061  -1.082  0.00  0.00    -0.276 OA
ATOM      8  N   UNL     1      18.129 -11.024   1.238  0.00  0.00    -0.312 N 
ATOM     24  C   UNL     1      18.764 -10.834   0.019  0.00  0.00    +0.214 C 
ATOM     40  H   UNL     1      18.649 -10.849   2.093  0.00  0.00    +0.149 HD
BRANCH   8  26
ATOM     26  C   UNL     1      16.780 -11.524   1.354  0.00  0.00    +0.073 C 
ATOM     27  C   UNL     1      16.148 -11.129   2.682  0.00  0.00    +0.022 C 
ATOM     28  C   UNL     1      16.742 -13.047   1.402  0.00  0.00    +0.022 C 
ATOM     29  C   UNL     1      16.673 -12.158   3.679  0.00  0.00    +0.002 C 
ATOM     30  C   UNL     1      17.014 -13.404   2.861  0.00  0.00    +0.002 C 
ENDBRANCH   8  26
ENDBRANCH  23  24
ENDBRANCH  13  23
TORSDOF 7
ENDMDL
