MODEL 1
REMARK VINA RESULT:      -5.8      0.000      0.000
REMARK  Name = 11912776
REMARK  10 active torsions:
REMARK  status: ('A' for Active; 'I' for Inactive)
REMARK    1  A    between atoms: O_3  and  C_12
REMARK    2  A    between atoms: O_3  and  C_16
REMARK    3  A    between atoms: O_4  and  C_19
REMARK    4  A    between atoms: O_4  and  C_25
REMARK    5  A    between atoms: N_6  and  C_11
REMARK    6  A    between atoms: C_16  and  C_19
REMARK    7  A    between atoms: C_17  and  C_18
REMARK    8  A    between atoms: C_17  and  C_20
REMARK    9  A    between atoms: C_17  and  C_21
REMARK   10  A    between atoms: C_17  and  C_22
REMARK                            x       y       z     vdW  Elec       q    Type
REMARK                         _______ _______ _______ _____ _____    ______ ____
ROOT
ATOM      1  O   UNL     1      10.478   5.052   4.895  0.00  0.00    -0.369 OA
ATOM      2  O   UNL     1       9.576   7.219   2.920  0.00  0.00    -0.369 OA
ATOM      9  C   UNL     1      10.889   6.788   3.333  0.00  0.00    +0.172 C 
ATOM     10  C   UNL     1      10.797   6.449   4.808  0.00  0.00    +0.180 C 
ATOM     11  C   UNL     1      11.231   5.470   2.677  0.00  0.00    +0.130 C 
ATOM     12  C   UNL     1       9.650   7.315   5.271  0.00  0.00    +0.176 C 
ATOM     13  C   UNL     1      10.540   4.467   3.584  0.00  0.00    +0.185 C 
ATOM     14  C   UNL     1       8.725   7.285   4.075  0.00  0.00    +0.194 C 
ENDROOT
BRANCH  11   6
ATOM      6  N   UNL     1      12.663   5.259   2.692  0.00  0.00    -0.306 N 
ATOM      7  N   UNL     1      12.699   4.588   0.444  0.00  0.00    -0.219 NA
ATOM      8  N   UNL     1      14.727   4.669   1.744  0.00  0.00    -0.223 NA
ATOM     15  C   UNL     1      13.385   4.825   1.594  0.00  0.00    +0.216 A 
ATOM     18  C   UNL     1      13.434   4.167  -0.606  0.00  0.00    +0.052 A 
ATOM     23  C   UNL     1      14.800   3.977  -0.560  0.00  0.00    +0.043 A 
ATOM     24  C   UNL     1      15.399   4.245   0.654  0.00  0.00    +0.116 A 
ATOM     26  H   UNL     1      13.191   5.483   3.528  0.00  0.00    +0.149 HD
BRANCH  18  17
ATOM     17  C   UNL     1      12.697   3.901  -1.877  0.00  0.00    +0.005 C 
ATOM     20  C   UNL     1      13.516   4.139  -3.189  0.00  0.00    +0.017 C 
ATOM     21  C   UNL     1      12.215   2.419  -1.952  0.00  0.00    +0.017 C 
ATOM     22  C   UNL     1      11.438   4.813  -2.001  0.00  0.00    +0.017 C 
ENDBRANCH  18  17
ENDBRANCH  11   6
BRANCH  12   3
ATOM      3  O   UNL     1       9.021   6.839   6.439  0.00  0.00    -0.360 OA
BRANCH   3  16
ATOM     16  C   UNL     1       9.683   7.285   7.620  0.00  0.00    +0.280 C 
BRANCH  16  19
ATOM      5  O   UNL     1      11.217   5.579   8.404  0.00  0.00    -0.248 OA
ATOM     19  C   UNL     1      10.103   6.083   8.426  0.00  0.00    +0.333 C 
BRANCH  19   4
ATOM      4  O   UNL     1       9.043   5.659   9.174  0.00  0.00    -0.466 OA
ATOM     25  C   UNL     1       9.235   4.420   9.866  0.00  0.00    +0.280 C 
ENDBRANCH  19   4
ENDBRANCH  16  19
ENDBRANCH   3  16
ENDBRANCH  12   3
TORSDOF 6
ENDMDL
MODEL 2
REMARK VINA RESULT:      -5.8     13.169     17.802
REMARK  Name = 11912776
REMARK  10 active torsions:
REMARK  status: ('A' for Active; 'I' for Inactive)
REMARK    1  A    between atoms: O_3  and  C_12
REMARK    2  A    between atoms: O_3  and  C_16
REMARK    3  A    between atoms: O_4  and  C_19
REMARK    4  A    between atoms: O_4  and  C_25
REMARK    5  A    between atoms: N_6  and  C_11
REMARK    6  A    between atoms: C_16  and  C_19
REMARK    7  A    between atoms: C_17  and  C_18
REMARK    8  A    between atoms: C_17  and  C_20
REMARK    9  A    between atoms: C_17  and  C_21
REMARK   10  A    between atoms: C_17  and  C_22
REMARK                            x       y       z     vdW  Elec       q    Type
REMARK                         _______ _______ _______ _____ _____    ______ ____
ROOT
ATOM      1  O   UNL     1      13.659   8.062  16.400  0.00  0.00    -0.369 OA
ATOM      2  O   UNL     1      14.693  10.262  18.273  0.00  0.00    -0.369 OA
ATOM      9  C   UNL     1      13.580   9.351  18.389  0.00  0.00    +0.172 C 
ATOM     10  C   UNL     1      12.999   9.189  16.998  0.00  0.00    +0.180 C 
ATOM     11  C   UNL     1      14.077   7.968  18.741  0.00  0.00    +0.130 C 
ATOM     12  C   UNL     1      13.385  10.485  16.329  0.00  0.00    +0.176 C 
ATOM     13  C   UNL     1      14.479   7.414  17.385  0.00  0.00    +0.185 C 
ATOM     14  C   UNL     1      14.747  10.759  16.927  0.00  0.00    +0.194 C 
ENDROOT
BRANCH  11   6
ATOM      6  N   UNL     1      13.005   7.179  19.309  0.00  0.00    -0.306 N 
ATOM      7  N   UNL     1      12.480   8.830  20.892  0.00  0.00    -0.219 NA
ATOM      8  N   UNL     1      11.244   6.763  20.802  0.00  0.00    -0.223 NA
ATOM     15  C   UNL     1      12.219   7.603  20.366  0.00  0.00    +0.216 A 
ATOM     18  C   UNL     1      11.695   9.210  21.920  0.00  0.00    +0.052 A 
ATOM     23  C   UNL     1      10.678   8.435  22.438  0.00  0.00    +0.043 A 
ATOM     24  C   UNL     1      10.497   7.207  21.834  0.00  0.00    +0.116 A 
ATOM     26  H   UNL     1      12.769   6.286  18.891  0.00  0.00    +0.149 HD
BRANCH  18  17
ATOM     17  C   UNL     1      11.967  10.554  22.510  0.00  0.00    +0.005 C 
ATOM     20  C   UNL     1      11.192  10.877  23.830  0.00  0.00    +0.017 C 
ATOM     21  C   UNL     1      13.477  10.722  22.863  0.00  0.00    +0.017 C 
ATOM     22  C   UNL     1      11.587  11.695  21.515  0.00  0.00    +0.017 C 
ENDBRANCH  18  17
ENDBRANCH  11   6
BRANCH  12   3
ATOM      3  O   UNL     1      13.432  10.400  14.922  0.00  0.00    -0.360 OA
BRANCH   3  16
ATOM     16  C   UNL     1      14.229  11.435  14.352  0.00  0.00    +0.280 C 
BRANCH  16  19
ATOM      5  O   UNL     1      13.189  13.617  14.154  0.00  0.00    -0.248 OA
ATOM     19  C   UNL     1      13.318  12.472  13.746  0.00  0.00    +0.333 C 
BRANCH  19   4
ATOM      4  O   UNL     1      12.670  11.921  12.678  0.00  0.00    -0.466 OA
ATOM     25  C   UNL     1      11.254  12.130  12.643  0.00  0.00    +0.280 C 
ENDBRANCH  19   4
ENDBRANCH  16  19
ENDBRANCH   3  16
ENDBRANCH  12   3
TORSDOF 6
ENDMDL
MODEL 3
REMARK VINA RESULT:      -5.6     24.270     27.857
REMARK  Name = 11912776
REMARK  10 active torsions:
REMARK  status: ('A' for Active; 'I' for Inactive)
REMARK    1  A    between atoms: O_3  and  C_12
REMARK    2  A    between atoms: O_3  and  C_16
REMARK    3  A    between atoms: O_4  and  C_19
REMARK    4  A    between atoms: O_4  and  C_25
REMARK    5  A    between atoms: N_6  and  C_11
REMARK    6  A    between atoms: C_16  and  C_19
REMARK    7  A    between atoms: C_17  and  C_18
REMARK    8  A    between atoms: C_17  and  C_20
REMARK    9  A    between atoms: C_17  and  C_21
REMARK   10  A    between atoms: C_17  and  C_22
REMARK                            x       y       z     vdW  Elec       q    Type
REMARK                         _______ _______ _______ _____ _____    ______ ____
ROOT
ATOM      1  O   UNL     1      -6.349 -12.239  18.980  0.00  0.00    -0.369 OA
ATOM      2  O   UNL     1      -7.761 -10.855  16.634  0.00  0.00    -0.369 OA
ATOM      9  C   UNL     1      -6.472 -10.630  17.241  0.00  0.00    +0.172 C 
ATOM     10  C   UNL     1      -6.644 -10.855  18.731  0.00  0.00    +0.180 C 
ATOM     11  C   UNL     1      -5.506 -11.712  16.819  0.00  0.00    +0.130 C 
ATOM     12  C   UNL     1      -8.106 -10.547  18.942  0.00  0.00    +0.176 C 
ATOM     13  C   UNL     1      -5.840 -12.840  17.779  0.00  0.00    +0.185 C 
ATOM     14  C   UNL     1      -8.730 -11.077  17.670  0.00  0.00    +0.194 C 
ENDROOT
BRANCH  11   6
ATOM      6  N   UNL     1      -4.141 -11.271  17.017  0.00  0.00    -0.306 N 
ATOM      7  N   UNL     1      -3.772 -11.018  14.713  0.00  0.00    -0.219 NA
ATOM      8  N   UNL     1      -2.031 -10.529  16.307  0.00  0.00    -0.223 NA
ATOM     15  C   UNL     1      -3.289 -10.929  15.981  0.00  0.00    +0.216 A 
ATOM     18  C   UNL     1      -2.914 -10.677  13.730  0.00  0.00    +0.052 A 
ATOM     23  C   UNL     1      -1.618 -10.258  13.952  0.00  0.00    +0.043 A 
ATOM     24  C   UNL     1      -1.227 -10.203  15.274  0.00  0.00    +0.116 A 
ATOM     26  H   UNL     1      -3.788 -11.152  17.960  0.00  0.00    +0.149 HD
BRANCH  18  17
ATOM     17  C   UNL     1      -3.427 -10.768  12.331  0.00  0.00    +0.005 C 
ATOM     20  C   UNL     1      -2.669  -9.892  11.280  0.00  0.00    +0.017 C 
ATOM     21  C   UNL     1      -3.342 -12.229  11.792  0.00  0.00    +0.017 C 
ATOM     22  C   UNL     1      -4.920 -10.321  12.246  0.00  0.00    +0.017 C 
ENDBRANCH  18  17
ENDBRANCH  11   6
BRANCH  12   3
ATOM      3  O   UNL     1      -8.650 -11.156  20.091  0.00  0.00    -0.360 OA
BRANCH   3  16
ATOM     16  C   UNL     1     -10.058 -11.349  19.977  0.00  0.00    +0.280 C 
BRANCH  16  19
ATOM      5  O   UNL     1     -11.475 -13.031  20.999  0.00  0.00    -0.248 OA
ATOM     19  C   UNL     1     -10.403 -12.720  20.499  0.00  0.00    +0.333 C 
BRANCH  19   4
ATOM      4  O   UNL     1      -9.331 -13.546  20.319  0.00  0.00    -0.466 OA
ATOM     25  C   UNL     1      -9.212 -14.615  21.264  0.00  0.00    +0.280 C 
ENDBRANCH  19   4
ENDBRANCH  16  19
ENDBRANCH   3  16
ENDBRANCH  12   3
TORSDOF 6
ENDMDL
MODEL 4
REMARK VINA RESULT:      -5.5     23.572     26.817
REMARK  Name = 11912776
REMARK  10 active torsions:
REMARK  status: ('A' for Active; 'I' for Inactive)
REMARK    1  A    between atoms: O_3  and  C_12
REMARK    2  A    between atoms: O_3  and  C_16
REMARK    3  A    between atoms: O_4  and  C_19
REMARK    4  A    between atoms: O_4  and  C_25
REMARK    5  A    between atoms: N_6  and  C_11
REMARK    6  A    between atoms: C_16  and  C_19
REMARK    7  A    between atoms: C_17  and  C_18
REMARK    8  A    between atoms: C_17  and  C_20
REMARK    9  A    between atoms: C_17  and  C_21
REMARK   10  A    between atoms: C_17  and  C_22
REMARK                            x       y       z     vdW  Elec       q    Type
REMARK                         _______ _______ _______ _____ _____    ______ ____
ROOT
ATOM      1  O   UNL     1      -5.803 -12.142  17.443  0.00  0.00    -0.369 OA
ATOM      2  O   UNL     1      -7.106  -9.456  16.736  0.00  0.00    -0.369 OA
ATOM      9  C   UNL     1      -5.728  -9.881  16.731  0.00  0.00    +0.172 C 
ATOM     10  C   UNL     1      -5.550 -10.810  17.916  0.00  0.00    +0.180 C 
ATOM     11  C   UNL     1      -5.463 -10.764  15.533  0.00  0.00    +0.130 C 
ATOM     12  C   UNL     1      -6.626 -10.339  18.864  0.00  0.00    +0.176 C 
ATOM     13  C   UNL     1      -5.952 -12.119  16.015  0.00  0.00    +0.185 C 
ATOM     14  C   UNL     1      -7.744  -9.965  17.918  0.00  0.00    +0.194 C 
ENDROOT
BRANCH  11   6
ATOM      6  N   UNL     1      -4.044 -10.813  15.250  0.00  0.00    -0.306 N 
ATOM      7  N   UNL     1      -4.369 -10.319  12.979  0.00  0.00    -0.219 NA
ATOM      8  N   UNL     1      -2.155 -10.669  13.866  0.00  0.00    -0.223 NA
ATOM     15  C   UNL     1      -3.506 -10.594  13.994  0.00  0.00    +0.216 A 
ATOM     18  C   UNL     1      -3.810 -10.112  11.769  0.00  0.00    +0.052 A 
ATOM     23  C   UNL     1      -2.451 -10.163  11.532  0.00  0.00    +0.043 A 
ATOM     24  C   UNL     1      -1.665 -10.450  12.629  0.00  0.00    +0.116 A 
ATOM     26  H   UNL     1      -3.390 -10.965  16.009  0.00  0.00    +0.149 HD
BRANCH  18  17
ATOM     17  C   UNL     1      -4.742  -9.809  10.643  0.00  0.00    +0.005 C 
ATOM     20  C   UNL     1      -5.396 -11.055   9.960  0.00  0.00    +0.017 C 
ATOM     21  C   UNL     1      -5.933  -8.922  11.118  0.00  0.00    +0.017 C 
ATOM     22  C   UNL     1      -4.012  -9.043   9.496  0.00  0.00    +0.017 C 
ENDBRANCH  18  17
ENDBRANCH  11   6
BRANCH  12   3
ATOM      3  O   UNL     1      -7.025 -11.320  19.795  0.00  0.00    -0.360 OA
BRANCH   3  16
ATOM     16  C   UNL     1      -8.414 -11.623  19.687  0.00  0.00    +0.280 C 
BRANCH  16  19
ATOM      5  O   UNL     1      -8.961 -13.728  20.759  0.00  0.00    -0.248 OA
ATOM     19  C   UNL     1      -8.593 -13.117  19.766  0.00  0.00    +0.333 C 
BRANCH  19   4
ATOM      4  O   UNL     1      -8.278 -13.665  18.555  0.00  0.00    -0.466 OA
ATOM     25  C   UNL     1      -9.194 -13.379  17.493  0.00  0.00    +0.280 C 
ENDBRANCH  19   4
ENDBRANCH  16  19
ENDBRANCH   3  16
ENDBRANCH  12   3
TORSDOF 6
ENDMDL
MODEL 5
REMARK VINA RESULT:      -5.5     23.234     25.308
REMARK  Name = 11912776
REMARK  10 active torsions:
REMARK  status: ('A' for Active; 'I' for Inactive)
REMARK    1  A    between atoms: O_3  and  C_12
REMARK    2  A    between atoms: O_3  and  C_16
REMARK    3  A    between atoms: O_4  and  C_19
REMARK    4  A    between atoms: O_4  and  C_25
REMARK    5  A    between atoms: N_6  and  C_11
REMARK    6  A    between atoms: C_16  and  C_19
REMARK    7  A    between atoms: C_17  and  C_18
REMARK    8  A    between atoms: C_17  and  C_20
REMARK    9  A    between atoms: C_17  and  C_21
REMARK   10  A    between atoms: C_17  and  C_22
REMARK                            x       y       z     vdW  Elec       q    Type
REMARK                         _______ _______ _______ _____ _____    ______ ____
ROOT
ATOM      1  O   UNL     1      -4.798  -8.946  10.021  0.00  0.00    -0.369 OA
ATOM      2  O   UNL     1      -5.683 -11.882  10.113  0.00  0.00    -0.369 OA
ATOM      9  C   UNL     1      -4.426 -11.251  10.435  0.00  0.00    +0.172 C 
ATOM     10  C   UNL     1      -4.231 -10.128   9.435  0.00  0.00    +0.180 C 
ATOM     11  C   UNL     1      -4.529 -10.542  11.765  0.00  0.00    +0.130 C 
ATOM     12  C   UNL     1      -5.031 -10.603   8.248  0.00  0.00    +0.176 C 
ATOM     13  C   UNL     1      -5.173  -9.221  11.380  0.00  0.00    +0.185 C 
ATOM     14  C   UNL     1      -6.202 -11.297   8.909  0.00  0.00    +0.194 C 
ENDROOT
BRANCH  11   6
ATOM      6  N   UNL     1      -3.209 -10.316  12.316  0.00  0.00    -0.306 N 
ATOM      7  N   UNL     1      -3.918 -10.797  14.501  0.00  0.00    -0.219 NA
ATOM      8  N   UNL     1      -1.627 -10.202  14.045  0.00  0.00    -0.223 NA
ATOM     15  C   UNL     1      -2.909 -10.442  13.661  0.00  0.00    +0.216 A 
ATOM     18  C   UNL     1      -3.589 -10.910  15.804  0.00  0.00    +0.052 A 
ATOM     23  C   UNL     1      -2.319 -10.689  16.297  0.00  0.00    +0.043 A 
ATOM     24  C   UNL     1      -1.369 -10.334  15.362  0.00  0.00    +0.116 A 
ATOM     26  H   UNL     1      -2.439 -10.102  11.692  0.00  0.00    +0.149 HD
BRANCH  18  17
ATOM     17  C   UNL     1      -4.684 -11.299  16.740  0.00  0.00    +0.005 C 
ATOM     20  C   UNL     1      -5.487 -12.580  16.338  0.00  0.00    +0.017 C 
ATOM     21  C   UNL     1      -4.130 -11.587  18.169  0.00  0.00    +0.017 C 
ATOM     22  C   UNL     1      -5.749 -10.165  16.867  0.00  0.00    +0.017 C 
ENDBRANCH  18  17
ENDBRANCH  11   6
BRANCH  12   3
ATOM      3  O   UNL     1      -5.447  -9.561   7.394  0.00  0.00    -0.360 OA
BRANCH   3  16
ATOM     16  C   UNL     1      -6.814  -9.696   7.014  0.00  0.00    +0.280 C 
BRANCH  16  19
ATOM      5  O   UNL     1      -8.035  -7.767   6.196  0.00  0.00    -0.248 OA
ATOM     19  C   UNL     1      -7.482  -8.350   7.118  0.00  0.00    +0.333 C 
BRANCH  19   4
ATOM      4  O   UNL     1      -7.368  -7.897   8.401  0.00  0.00    -0.466 OA
ATOM     25  C   UNL     1      -8.454  -8.233   9.271  0.00  0.00    +0.280 C 
ENDBRANCH  19   4
ENDBRANCH  16  19
ENDBRANCH   3  16
ENDBRANCH  12   3
TORSDOF 6
ENDMDL
MODEL 6
REMARK VINA RESULT:      -5.5     25.549     30.120
REMARK  Name = 11912776
REMARK  10 active torsions:
REMARK  status: ('A' for Active; 'I' for Inactive)
REMARK    1  A    between atoms: O_3  and  C_12
REMARK    2  A    between atoms: O_3  and  C_16
REMARK    3  A    between atoms: O_4  and  C_19
REMARK    4  A    between atoms: O_4  and  C_25
REMARK    5  A    between atoms: N_6  and  C_11
REMARK    6  A    between atoms: C_16  and  C_19
REMARK    7  A    between atoms: C_17  and  C_18
REMARK    8  A    between atoms: C_17  and  C_20
REMARK    9  A    between atoms: C_17  and  C_21
REMARK   10  A    between atoms: C_17  and  C_22
REMARK                            x       y       z     vdW  Elec       q    Type
REMARK                         _______ _______ _______ _____ _____    ______ ____
ROOT
ATOM      1  O   UNL     1      -5.091 -10.917  18.841  0.00  0.00    -0.369 OA
ATOM      2  O   UNL     1      -7.015  -9.847  16.704  0.00  0.00    -0.369 OA
ATOM      9  C   UNL     1      -7.027 -11.063  17.480  0.00  0.00    +0.172 C 
ATOM     10  C   UNL     1      -5.584 -11.505  17.627  0.00  0.00    +0.180 C 
ATOM     11  C   UNL     1      -7.465 -10.769  18.896  0.00  0.00    +0.130 C 
ATOM     12  C   UNL     1      -4.932 -10.902  16.407  0.00  0.00    +0.176 C 
ATOM     13  C   UNL     1      -6.176 -10.289  19.541  0.00  0.00    +0.185 C 
ATOM     14  C   UNL     1      -5.672  -9.590  16.264  0.00  0.00    +0.194 C 
ENDROOT
BRANCH  11   6
ATOM      6  N   UNL     1      -7.928 -11.980  19.540  0.00  0.00    -0.306 N 
ATOM      7  N   UNL     1     -10.159 -11.253  19.550  0.00  0.00    -0.219 NA
ATOM      8  N   UNL     1      -9.552 -13.400  20.463  0.00  0.00    -0.223 NA
ATOM     15  C   UNL     1      -9.253 -12.218  19.861  0.00  0.00    +0.216 A 
ATOM     18  C   UNL     1     -11.440 -11.518  19.877  0.00  0.00    +0.052 A 
ATOM     23  C   UNL     1     -11.850 -12.685  20.489  0.00  0.00    +0.043 A 
ATOM     24  C   UNL     1     -10.852 -13.599  20.762  0.00  0.00    +0.116 A 
ATOM     26  H   UNL     1      -7.269 -12.727  19.728  0.00  0.00    +0.149 HD
BRANCH  18  17
ATOM     17  C   UNL     1     -12.449 -10.470  19.543  0.00  0.00    +0.005 C 
ATOM     20  C   UNL     1     -13.799 -11.000  18.958  0.00  0.00    +0.017 C 
ATOM     21  C   UNL     1     -12.841  -9.641  20.805  0.00  0.00    +0.017 C 
ATOM     22  C   UNL     1     -11.896  -9.474  18.477  0.00  0.00    +0.017 C 
ENDBRANCH  18  17
ENDBRANCH  11   6
BRANCH  12   3
ATOM      3  O   UNL     1      -3.542 -10.713  16.547  0.00  0.00    -0.360 OA
BRANCH   3  16
ATOM     16  C   UNL     1      -2.810 -11.331  15.492  0.00  0.00    +0.280 C 
BRANCH  16  19
ATOM      5  O   UNL     1      -0.720 -10.162  15.871  0.00  0.00    -0.248 OA
ATOM     19  C   UNL     1      -1.646 -10.448  15.125  0.00  0.00    +0.333 C 
BRANCH  19   4
ATOM      4  O   UNL     1      -1.799 -10.027  13.835  0.00  0.00    -0.466 OA
ATOM     25  C   UNL     1      -2.655 -10.835  13.021  0.00  0.00    +0.280 C 
ENDBRANCH  19   4
ENDBRANCH  16  19
ENDBRANCH   3  16
ENDBRANCH  12   3
TORSDOF 6
ENDMDL
MODEL 7
REMARK VINA RESULT:      -5.4     24.578     28.915
REMARK  Name = 11912776
REMARK  10 active torsions:
REMARK  status: ('A' for Active; 'I' for Inactive)
REMARK    1  A    between atoms: O_3  and  C_12
REMARK    2  A    between atoms: O_3  and  C_16
REMARK    3  A    between atoms: O_4  and  C_19
REMARK    4  A    between atoms: O_4  and  C_25
REMARK    5  A    between atoms: N_6  and  C_11
REMARK    6  A    between atoms: C_16  and  C_19
REMARK    7  A    between atoms: C_17  and  C_18
REMARK    8  A    between atoms: C_17  and  C_20
REMARK    9  A    between atoms: C_17  and  C_21
REMARK   10  A    between atoms: C_17  and  C_22
REMARK                            x       y       z     vdW  Elec       q    Type
REMARK                         _______ _______ _______ _____ _____    ______ ____
ROOT
ATOM      1  O   UNL     1      -6.992 -10.352  15.427  0.00  0.00    -0.369 OA
ATOM      2  O   UNL     1      -7.527 -10.641  18.433  0.00  0.00    -0.369 OA
ATOM      9  C   UNL     1      -7.523  -9.486  17.569  0.00  0.00    +0.172 C 
ATOM     10  C   UNL     1      -6.408  -9.696  16.563  0.00  0.00    +0.180 C 
ATOM     11  C   UNL     1      -8.776  -9.466  16.726  0.00  0.00    +0.130 C 
ATOM     12  C   UNL     1      -5.460 -10.603  17.308  0.00  0.00    +0.176 C 
ATOM     13  C   UNL     1      -8.418 -10.406  15.588  0.00  0.00    +0.185 C 
ATOM     14  C   UNL     1      -6.409 -11.478  18.097  0.00  0.00    +0.194 C 
ENDROOT
BRANCH  11   6
ATOM      6  N   UNL     1      -9.019  -8.132  16.219  0.00  0.00    -0.306 N 
ATOM      7  N   UNL     1     -11.347  -8.368  16.395  0.00  0.00    -0.219 NA
ATOM      8  N   UNL     1     -10.368  -6.325  15.572  0.00  0.00    -0.223 NA
ATOM     15  C   UNL     1     -10.282  -7.592  16.057  0.00  0.00    +0.216 A 
ATOM     18  C   UNL     1     -12.562  -7.810  16.223  0.00  0.00    +0.052 A 
ATOM     23  C   UNL     1     -12.760  -6.533  15.739  0.00  0.00    +0.043 A 
ATOM     24  C   UNL     1     -11.614  -5.830  15.426  0.00  0.00    +0.116 A 
ATOM     26  H   UNL     1      -8.232  -7.527  16.014  0.00  0.00    +0.149 HD
BRANCH  18  17
ATOM     17  C   UNL     1     -13.742  -8.648  16.589  0.00  0.00    +0.005 C 
ATOM     20  C   UNL     1     -13.632  -9.403  17.955  0.00  0.00    +0.017 C 
ATOM     21  C   UNL     1     -15.037  -7.785  16.695  0.00  0.00    +0.017 C 
ATOM     22  C   UNL     1     -14.001  -9.757  15.522  0.00  0.00    +0.017 C 
ENDBRANCH  18  17
ENDBRANCH  11   6
BRANCH  12   3
ATOM      3  O   UNL     1      -4.622 -11.358  16.463  0.00  0.00    -0.360 OA
BRANCH   3  16
ATOM     16  C   UNL     1      -3.365 -10.720  16.249  0.00  0.00    +0.280 C 
BRANCH  16  19
ATOM      5  O   UNL     1      -3.966 -10.624  13.902  0.00  0.00    -0.248 OA
ATOM     19  C   UNL     1      -3.103 -10.648  14.767  0.00  0.00    +0.333 C 
BRANCH  19   4
ATOM      4  O   UNL     1      -1.754 -10.615  14.558  0.00  0.00    -0.466 OA
ATOM     25  C   UNL     1      -0.969 -10.166  15.668  0.00  0.00    +0.280 C 
ENDBRANCH  19   4
ENDBRANCH  16  19
ENDBRANCH   3  16
ENDBRANCH  12   3
TORSDOF 6
ENDMDL
MODEL 8
REMARK VINA RESULT:      -5.3     16.223     19.927
REMARK  Name = 11912776
REMARK  10 active torsions:
REMARK  status: ('A' for Active; 'I' for Inactive)
REMARK    1  A    between atoms: O_3  and  C_12
REMARK    2  A    between atoms: O_3  and  C_16
REMARK    3  A    between atoms: O_4  and  C_19
REMARK    4  A    between atoms: O_4  and  C_25
REMARK    5  A    between atoms: N_6  and  C_11
REMARK    6  A    between atoms: C_16  and  C_19
REMARK    7  A    between atoms: C_17  and  C_18
REMARK    8  A    between atoms: C_17  and  C_20
REMARK    9  A    between atoms: C_17  and  C_21
REMARK   10  A    between atoms: C_17  and  C_22
REMARK                            x       y       z     vdW  Elec       q    Type
REMARK                         _______ _______ _______ _____ _____    ______ ____
ROOT
ATOM      1  O   UNL     1      19.169   8.313  22.252  0.00  0.00    -0.369 OA
ATOM      2  O   UNL     1      18.979   6.216  20.021  0.00  0.00    -0.369 OA
ATOM      9  C   UNL     1      18.105   6.517  21.128  0.00  0.00    +0.172 C 
ATOM     10  C   UNL     1      18.992   6.889  22.300  0.00  0.00    +0.180 C 
ATOM     11  C   UNL     1      17.327   7.780  20.844  0.00  0.00    +0.130 C 
ATOM     12  C   UNL     1      20.273   6.154  21.986  0.00  0.00    +0.176 C 
ATOM     13  C   UNL     1      18.314   8.865  21.239  0.00  0.00    +0.185 C 
ATOM     14  C   UNL     1      20.340   6.259  20.478  0.00  0.00    +0.194 C 
ENDROOT
BRANCH  11   6
ATOM      6  N   UNL     1      16.149   7.844  21.683  0.00  0.00    -0.306 N 
ATOM      7  N   UNL     1      14.733   8.249  19.856  0.00  0.00    -0.219 NA
ATOM      8  N   UNL     1      13.854   8.106  22.096  0.00  0.00    -0.223 NA
ATOM     15  C   UNL     1      14.874   8.073  21.198  0.00  0.00    +0.216 A 
ATOM     18  C   UNL     1      13.477   8.471  19.418  0.00  0.00    +0.052 A 
ATOM     23  C   UNL     1      12.373   8.523  20.245  0.00  0.00    +0.043 A 
ATOM     24  C   UNL     1      12.625   8.332  21.589  0.00  0.00    +0.116 A 
ATOM     26  H   UNL     1      16.235   7.662  22.677  0.00  0.00    +0.149 HD
BRANCH  18  17
ATOM     17  C   UNL     1      13.304   8.666  17.949  0.00  0.00    +0.005 C 
ATOM     20  C   UNL     1      14.140   7.703  17.041  0.00  0.00    +0.017 C 
ATOM     21  C   UNL     1      11.819   8.454  17.521  0.00  0.00    +0.017 C 
ATOM     22  C   UNL     1      13.718  10.107  17.517  0.00  0.00    +0.017 C 
ENDBRANCH  18  17
ENDBRANCH  11   6
BRANCH  12   3
ATOM      3  O   UNL     1      21.409   6.713  22.606  0.00  0.00    -0.360 OA
BRANCH   3  16
ATOM     16  C   UNL     1      22.591   5.968  22.324  0.00  0.00    +0.280 C 
BRANCH  16  19
ATOM      5  O   UNL     1      22.168   4.696  24.344  0.00  0.00    -0.248 OA
ATOM     19  C   UNL     1      22.620   4.749  23.209  0.00  0.00    +0.333 C 
BRANCH  19   4
ATOM      4  O   UNL     1      23.229   3.728  22.537  0.00  0.00    -0.466 OA
ATOM     25  C   UNL     1      22.592   3.327  21.319  0.00  0.00    +0.280 C 
ENDBRANCH  19   4
ENDBRANCH  16  19
ENDBRANCH   3  16
ENDBRANCH  12   3
TORSDOF 6
ENDMDL
MODEL 9
REMARK VINA RESULT:      -5.2     23.923     27.453
REMARK  Name = 11912776
REMARK  10 active torsions:
REMARK  status: ('A' for Active; 'I' for Inactive)
REMARK    1  A    between atoms: O_3  and  C_12
REMARK    2  A    between atoms: O_3  and  C_16
REMARK    3  A    between atoms: O_4  and  C_19
REMARK    4  A    between atoms: O_4  and  C_25
REMARK    5  A    between atoms: N_6  and  C_11
REMARK    6  A    between atoms: C_16  and  C_19
REMARK    7  A    between atoms: C_17  and  C_18
REMARK    8  A    between atoms: C_17  and  C_20
REMARK    9  A    between atoms: C_17  and  C_21
REMARK   10  A    between atoms: C_17  and  C_22
REMARK                            x       y       z     vdW  Elec       q    Type
REMARK                         _______ _______ _______ _____ _____    ______ ____
ROOT
ATOM      1  O   UNL     1      -7.932 -11.032  17.887  0.00  0.00    -0.369 OA
ATOM      2  O   UNL     1      -8.145  -9.560  15.204  0.00  0.00    -0.369 OA
ATOM      9  C   UNL     1      -7.083  -9.625  16.177  0.00  0.00    +0.172 C 
ATOM     10  C   UNL     1      -7.740  -9.651  17.543  0.00  0.00    +0.180 C 
ATOM     11  C   UNL     1      -6.379 -10.959  16.086  0.00  0.00    +0.130 C 
ATOM     12  C   UNL     1      -9.051  -8.949  17.288  0.00  0.00    +0.176 C 
ATOM     13  C   UNL     1      -7.283 -11.860  16.909  0.00  0.00    +0.185 C 
ATOM     14  C   UNL     1      -9.397  -9.417  15.892  0.00  0.00    +0.194 C 
ENDROOT
BRANCH  11   6
ATOM      6  N   UNL     1      -5.066 -10.877  16.690  0.00  0.00    -0.306 N 
ATOM      7  N   UNL     1      -3.989 -10.808  14.607  0.00  0.00    -0.219 NA
ATOM      8  N   UNL     1      -2.725 -10.726  16.657  0.00  0.00    -0.223 NA
ATOM     15  C   UNL     1      -3.891 -10.801  15.963  0.00  0.00    +0.216 A 
ATOM     18  C   UNL     1      -2.825 -10.733  13.930  0.00  0.00    +0.052 A 
ATOM     23  C   UNL     1      -1.588 -10.653  14.537  0.00  0.00    +0.043 A 
ATOM     24  C   UNL     1      -1.599 -10.654  15.917  0.00  0.00    +0.116 A 
ATOM     26  H   UNL     1      -4.986 -10.818  17.699  0.00  0.00    +0.149 HD
BRANCH  18  17
ATOM     17  C   UNL     1      -2.914 -10.739  12.440  0.00  0.00    +0.005 C 
ATOM     20  C   UNL     1      -1.774  -9.966  11.697  0.00  0.00    +0.017 C 
ATOM     21  C   UNL     1      -2.865 -12.193  11.876  0.00  0.00    +0.017 C 
ATOM     22  C   UNL     1      -4.244 -10.088  11.951  0.00  0.00    +0.017 C 
ENDBRANCH  18  17
ENDBRANCH  11   6
BRANCH  12   3
ATOM      3  O   UNL     1     -10.056  -9.278  18.221  0.00  0.00    -0.360 OA
BRANCH   3  16
ATOM     16  C   UNL     1     -11.363  -9.127  17.672  0.00  0.00    +0.280 C 
BRANCH  16  19
ATOM      5  O   UNL     1     -13.071 -10.808  18.046  0.00  0.00    -0.248 OA
ATOM     19  C   UNL     1     -12.331  -9.942  18.491  0.00  0.00    +0.333 C 
BRANCH  19   4
ATOM      4  O   UNL     1     -12.241  -9.556  19.797  0.00  0.00    -0.466 OA
ATOM     25  C   UNL     1     -13.413  -9.780  20.588  0.00  0.00    +0.280 C 
ENDBRANCH  19   4
ENDBRANCH  16  19
ENDBRANCH   3  16
ENDBRANCH  12   3
TORSDOF 6
ENDMDL
MODEL 10
REMARK VINA RESULT:      -5.2      3.343      8.249
REMARK  Name = 11912776
REMARK  10 active torsions:
REMARK  status: ('A' for Active; 'I' for Inactive)
REMARK    1  A    between atoms: O_3  and  C_12
REMARK    2  A    between atoms: O_3  and  C_16
REMARK    3  A    between atoms: O_4  and  C_19
REMARK    4  A    between atoms: O_4  and  C_25
REMARK    5  A    between atoms: N_6  and  C_11
REMARK    6  A    between atoms: C_16  and  C_19
REMARK    7  A    between atoms: C_17  and  C_18
REMARK    8  A    between atoms: C_17  and  C_20
REMARK    9  A    between atoms: C_17  and  C_21
REMARK   10  A    between atoms: C_17  and  C_22
REMARK                            x       y       z     vdW  Elec       q    Type
REMARK                         _______ _______ _______ _____ _____    ______ ____
ROOT
ATOM      1  O   UNL     1      12.007   5.693   0.275  0.00  0.00    -0.369 OA
ATOM      2  O   UNL     1      13.026   3.139   1.637  0.00  0.00    -0.369 OA
ATOM      9  C   UNL     1      13.363   4.528   1.833  0.00  0.00    +0.172 C 
ATOM     10  C   UNL     1      13.337   5.184   0.466  0.00  0.00    +0.180 C 
ATOM     11  C   UNL     1      12.260   5.226   2.594  0.00  0.00    +0.130 C 
ATOM     12  C   UNL     1      13.632   4.027  -0.457  0.00  0.00    +0.176 C 
ATOM     13  C   UNL     1      11.263   5.552   1.495  0.00  0.00    +0.185 C 
ATOM     14  C   UNL     1      12.920   2.882   0.228  0.00  0.00    +0.194 C 
ENDROOT
BRANCH  11   6
ATOM      6  N   UNL     1      12.759   6.444   3.197  0.00  0.00    -0.306 N 
ATOM      7  N   UNL     1      11.154   6.386   4.908  0.00  0.00    -0.219 NA
ATOM      8  N   UNL     1      12.783   8.159   4.798  0.00  0.00    -0.223 NA
ATOM     15  C   UNL     1      12.216   7.014   4.335  0.00  0.00    +0.216 A 
ATOM     18  C   UNL     1      10.650   6.969   6.014  0.00  0.00    +0.052 A 
ATOM     23  C   UNL     1      11.151   8.130   6.566  0.00  0.00    +0.043 A 
ATOM     24  C   UNL     1      12.228   8.687   5.908  0.00  0.00    +0.116 A 
ATOM     26  H   UNL     1      13.582   6.891   2.809  0.00  0.00    +0.149 HD
BRANCH  18  17
ATOM     17  C   UNL     1       9.484   6.293   6.657  0.00  0.00    +0.005 C 
ATOM     20  C   UNL     1       9.769   4.867   7.233  0.00  0.00    +0.017 C 
ATOM     21  C   UNL     1       8.940   7.126   7.858  0.00  0.00    +0.017 C 
ATOM     22  C   UNL     1       8.312   6.105   5.644  0.00  0.00    +0.017 C 
ENDBRANCH  18  17
ENDBRANCH  11   6
BRANCH  12   3
ATOM      3  O   UNL     1      13.170   4.226  -1.774  0.00  0.00    -0.360 OA
BRANCH   3  16
ATOM     16  C   UNL     1      12.358   3.144  -2.223  0.00  0.00    +0.280 C 
BRANCH  16  19
ATOM      5  O   UNL     1      10.735   4.861  -2.770  0.00  0.00    -0.248 OA
ATOM     19  C   UNL     1      11.001   3.680  -2.603  0.00  0.00    +0.333 C 
BRANCH  19   4
ATOM      4  O   UNL     1      10.131   2.634  -2.727  0.00  0.00    -0.466 OA
ATOM     25  C   UNL     1       9.384   2.597  -3.948  0.00  0.00    +0.280 C 
ENDBRANCH  19   4
ENDBRANCH  16  19
ENDBRANCH   3  16
ENDBRANCH  12   3
TORSDOF 6
ENDMDL
