MODEL 1
REMARK VINA RESULT:      -6.9      0.000      0.000
REMARK  Name = 45783401
REMARK  11 active torsions:
REMARK  status: ('A' for Active; 'I' for Inactive)
REMARK    1  A    between atoms: O_2  and  C_17
REMARK    2  A    between atoms: O_3  and  C_23
REMARK    3  A    between atoms: O_3  and  C_30
REMARK    4  A    between atoms: O_4  and  C_29
REMARK    5  A    between atoms: O_4  and  C_31
REMARK    6  A    between atoms: N_5  and  C_14
REMARK    7  A    between atoms: N_8  and  C_27
REMARK    8  A    between atoms: C_10  and  C_15
REMARK    9  A    between atoms: C_14  and  C_16
REMARK   10  A    between atoms: C_19  and  C_22
REMARK   11  A    between atoms: C_27  and  C_29
REMARK                            x       y       z     vdW  Elec       q    Type
REMARK                         _______ _______ _______ _____ _____    ______ ____
ROOT
ATOM      1  O   UNL     1      14.668   9.770  22.869  0.00  0.00    -0.336 OA
ATOM      6  N   UNL     1      15.622  10.034  20.860  0.00  0.00    -0.190 NA
ATOM      7  N   UNL     1      15.084   8.495  22.465  0.00  0.00    -0.056 NA
ATOM     15  C   UNL     1      15.022  10.616  21.867  0.00  0.00    +0.245 A 
ATOM     19  C   UNL     1      15.638   8.733  21.273  0.00  0.00    +0.205 A 
ENDROOT
BRANCH  19  22
ATOM      8  N   UNL     1      14.387   7.808  18.895  0.00  0.00    -0.326 N 
ATOM      9  N   UNL     1      16.134   6.256  18.525  0.00  0.00    -0.240 NA
ATOM     22  C   UNL     1      16.213   7.694  20.467  0.00  0.00    +0.062 A 
ATOM     24  C   UNL     1      15.617   7.232  19.305  0.00  0.00    +0.130 A 
ATOM     25  C   UNL     1      17.418   7.119  20.854  0.00  0.00    +0.016 A 
ATOM     26  C   UNL     1      17.983   6.113  20.078  0.00  0.00    +0.020 A 
ATOM     28  C   UNL     1      17.307   5.720  18.934  0.00  0.00    +0.113 A 
ATOM     33  H   UNL     1      14.192   8.740  19.246  0.00  0.00    +0.148 HD
BRANCH   8  27
ATOM     27  C   UNL     1      13.701   7.397  17.716  0.00  0.00    +0.131 C 
BRANCH  27  29
ATOM     29  C   UNL     1      12.950   8.574  17.115  0.00  0.00    +0.178 C 
BRANCH  29   4
ATOM      4  O   UNL     1      11.597   8.206  16.887  0.00  0.00    -0.381 OA
ATOM     31  C   UNL     1      10.978   9.059  15.932  0.00  0.00    +0.194 C 
ENDBRANCH  29   4
ENDBRANCH  27  29
ENDBRANCH   8  27
ENDBRANCH  19  22
BRANCH  15  10
ATOM      5  N   UNL     1      13.440  12.268  22.848  0.00  0.00    -0.287 NA
ATOM     10  C   UNL     1      14.677  12.078  22.064  0.00  0.00    +0.146 C 
ATOM     11  C   UNL     1      15.759  12.843  22.850  0.00  0.00    +0.030 C 
ATOM     12  C   UNL     1      15.024  13.479  24.022  0.00  0.00    +0.017 C 
ATOM     13  C   UNL     1      13.586  13.544  23.548  0.00  0.00    +0.085 C 
BRANCH   5  14
ATOM     14  C   UNL     1      12.232  12.226  22.033  0.00  0.00    +0.124 C 
BRANCH  14  16
ATOM     16  C   UNL     1      11.751  10.816  21.819  0.00  0.00    +0.008 A 
ATOM     17  C   UNL     1      11.279  10.053  22.887  0.00  0.00    +0.125 A 
ATOM     18  C   UNL     1      11.778  10.272  20.533  0.00  0.00    +0.012 A 
ATOM     20  C   UNL     1      10.836   8.748  22.672  0.00  0.00    +0.091 A 
ATOM     21  C   UNL     1      11.334   8.968  20.318  0.00  0.00    +0.046 A 
ATOM     23  C   UNL     1      10.864   8.205  21.387  0.00  0.00    +0.124 A 
BRANCH  17   2
ATOM      2  O   UNL     1      11.246  10.568  24.149  0.00  0.00    -0.506 OA
ATOM     32  H   UNL     1      11.236  11.538  24.095  0.00  0.00    +0.292 HD
ENDBRANCH  17   2
BRANCH  23   3
ATOM      3  O   UNL     1      10.431   6.932  21.177  0.00  0.00    -0.495 OA
ATOM     30  C   UNL     1      11.289   5.876  21.605  0.00  0.00    +0.277 C 
ENDBRANCH  23   3
ENDBRANCH  14  16
ENDBRANCH   5  14
ENDBRANCH  15  10
TORSDOF 9
ENDMDL
MODEL 2
REMARK VINA RESULT:      -6.8      1.789      5.073
REMARK  Name = 45783401
REMARK  11 active torsions:
REMARK  status: ('A' for Active; 'I' for Inactive)
REMARK    1  A    between atoms: O_2  and  C_17
REMARK    2  A    between atoms: O_3  and  C_23
REMARK    3  A    between atoms: O_3  and  C_30
REMARK    4  A    between atoms: O_4  and  C_29
REMARK    5  A    between atoms: O_4  and  C_31
REMARK    6  A    between atoms: N_5  and  C_14
REMARK    7  A    between atoms: N_8  and  C_27
REMARK    8  A    between atoms: C_10  and  C_15
REMARK    9  A    between atoms: C_14  and  C_16
REMARK   10  A    between atoms: C_19  and  C_22
REMARK   11  A    between atoms: C_27  and  C_29
REMARK                            x       y       z     vdW  Elec       q    Type
REMARK                         _______ _______ _______ _____ _____    ______ ____
ROOT
ATOM      1  O   UNL     1      14.052   6.618  20.122  0.00  0.00    -0.336 OA
ATOM      6  N   UNL     1      15.674   7.928  19.305  0.00  0.00    -0.190 NA
ATOM      7  N   UNL     1      15.096   6.571  21.054  0.00  0.00    -0.056 NA
ATOM     15  C   UNL     1      14.474   7.438  19.125  0.00  0.00    +0.245 A 
ATOM     19  C   UNL     1      16.014   7.369  20.503  0.00  0.00    +0.205 A 
ENDROOT
BRANCH  19  22
ATOM      8  N   UNL     1      16.829   9.991  21.233  0.00  0.00    -0.326 N 
ATOM      9  N   UNL     1      18.885   9.170  22.065  0.00  0.00    -0.240 NA
ATOM     22  C   UNL     1      17.284   7.626  21.119  0.00  0.00    +0.062 A 
ATOM     24  C   UNL     1      17.696   8.897  21.483  0.00  0.00    +0.130 A 
ATOM     25  C   UNL     1      18.147   6.564  21.371  0.00  0.00    +0.016 A 
ATOM     26  C   UNL     1      19.379   6.805  21.970  0.00  0.00    +0.020 A 
ATOM     28  C   UNL     1      19.698   8.113  22.294  0.00  0.00    +0.113 A 
ATOM     33  H   UNL     1      15.843   9.768  21.147  0.00  0.00    +0.148 HD
BRANCH   8  27
ATOM     27  C   UNL     1      17.167  11.334  21.571  0.00  0.00    +0.131 C 
BRANCH  27  29
ATOM     29  C   UNL     1      16.478  11.732  22.866  0.00  0.00    +0.178 C 
BRANCH  29   4
ATOM      4  O   UNL     1      15.239  11.044  22.974  0.00  0.00    -0.381 OA
ATOM     31  C   UNL     1      14.578  11.350  24.195  0.00  0.00    +0.194 C 
ENDBRANCH  29   4
ENDBRANCH  27  29
ENDBRANCH   8  27
ENDBRANCH  19  22
BRANCH  15  10
ATOM      5  N   UNL     1      12.535   8.732  18.252  0.00  0.00    -0.287 NA
ATOM     10  C   UNL     1      13.510   7.657  17.977  0.00  0.00    +0.146 C 
ATOM     11  C   UNL     1      14.218   8.092  16.680  0.00  0.00    +0.030 C 
ATOM     12  C   UNL     1      13.534   9.388  16.270  0.00  0.00    +0.017 C 
ATOM     13  C   UNL     1      12.185   9.313  16.955  0.00  0.00    +0.085 C 
BRANCH   5  14
ATOM     14  C   UNL     1      11.362   8.271  18.981  0.00  0.00    +0.124 C 
BRANCH  14  16
ATOM     16  C   UNL     1      11.286   8.874  20.359  0.00  0.00    +0.008 A 
ATOM     17  C   UNL     1      10.803   8.132  21.437  0.00  0.00    +0.125 A 
ATOM     18  C   UNL     1      11.706  10.191  20.553  0.00  0.00    +0.012 A 
ATOM     20  C   UNL     1      10.739   8.705  22.707  0.00  0.00    +0.091 A 
ATOM     21  C   UNL     1      11.644  10.763  21.822  0.00  0.00    +0.046 A 
ATOM     23  C   UNL     1      11.159  10.022  22.899  0.00  0.00    +0.124 A 
BRANCH  17   2
ATOM      2  O   UNL     1      10.388   6.845  21.266  0.00  0.00    -0.506 OA
ATOM     32  H   UNL     1      10.135   6.714  20.336  0.00  0.00    +0.292 HD
ENDBRANCH  17   2
BRANCH  23   3
ATOM      3  O   UNL     1      11.098  10.581  24.138  0.00  0.00    -0.495 OA
ATOM     30  C   UNL     1      10.843  11.982  24.205  0.00  0.00    +0.277 C 
ENDBRANCH  23   3
ENDBRANCH  14  16
ENDBRANCH   5  14
ENDBRANCH  15  10
TORSDOF 9
ENDMDL
MODEL 3
REMARK VINA RESULT:      -6.6      3.888      7.721
REMARK  Name = 45783401
REMARK  11 active torsions:
REMARK  status: ('A' for Active; 'I' for Inactive)
REMARK    1  A    between atoms: O_2  and  C_17
REMARK    2  A    between atoms: O_3  and  C_23
REMARK    3  A    between atoms: O_3  and  C_30
REMARK    4  A    between atoms: O_4  and  C_29
REMARK    5  A    between atoms: O_4  and  C_31
REMARK    6  A    between atoms: N_5  and  C_14
REMARK    7  A    between atoms: N_8  and  C_27
REMARK    8  A    between atoms: C_10  and  C_15
REMARK    9  A    between atoms: C_14  and  C_16
REMARK   10  A    between atoms: C_19  and  C_22
REMARK   11  A    between atoms: C_27  and  C_29
REMARK                            x       y       z     vdW  Elec       q    Type
REMARK                         _______ _______ _______ _____ _____    ______ ____
ROOT
ATOM      1  O   UNL     1      16.976   6.725  21.253  0.00  0.00    -0.336 OA
ATOM      6  N   UNL     1      16.126   8.627  20.432  0.00  0.00    -0.190 NA
ATOM      7  N   UNL     1      15.866   6.355  20.483  0.00  0.00    -0.056 NA
ATOM     15  C   UNL     1      17.057   8.078  21.170  0.00  0.00    +0.245 A 
ATOM     19  C   UNL     1      15.419   7.530  20.033  0.00  0.00    +0.205 A 
ENDROOT
BRANCH  19  22
ATOM      8  N   UNL     1      12.861   6.590  20.833  0.00  0.00    -0.326 N 
ATOM      9  N   UNL     1      11.912   7.286  18.781  0.00  0.00    -0.240 NA
ATOM     22  C   UNL     1      14.268   7.644  19.183  0.00  0.00    +0.062 A 
ATOM     24  C   UNL     1      13.014   7.192  19.558  0.00  0.00    +0.130 A 
ATOM     25  C   UNL     1      14.401   8.233  17.930  0.00  0.00    +0.016 A 
ATOM     26  C   UNL     1      13.291   8.349  17.102  0.00  0.00    +0.020 A 
ATOM     28  C   UNL     1      12.080   7.864  17.569  0.00  0.00    +0.113 A 
ATOM     33  H   UNL     1      13.555   6.838  21.530  0.00  0.00    +0.148 HD
BRANCH   8  27
ATOM     27  C   UNL     1      11.610   6.094  21.304  0.00  0.00    +0.131 C 
BRANCH  27  29
ATOM     29  C   UNL     1      10.826   7.213  21.971  0.00  0.00    +0.178 C 
BRANCH  29   4
ATOM      4  O   UNL     1      11.713   8.265  22.328  0.00  0.00    -0.381 OA
ATOM     31  C   UNL     1      11.008   9.462  22.628  0.00  0.00    +0.194 C 
ENDBRANCH  29   4
ENDBRANCH  27  29
ENDBRANCH   8  27
ENDBRANCH  19  22
BRANCH  15  10
ATOM      5  N   UNL     1      19.488   8.061  21.704  0.00  0.00    -0.287 NA
ATOM     10  C   UNL     1      18.193   8.734  21.928  0.00  0.00    +0.146 C 
ATOM     11  C   UNL     1      18.431  10.193  21.496  0.00  0.00    +0.030 C 
ATOM     12  C   UNL     1      19.901  10.257  21.104  0.00  0.00    +0.017 C 
ATOM     13  C   UNL     1      20.519   9.089  21.846  0.00  0.00    +0.085 C 
BRANCH   5  14
ATOM     14  C   UNL     1      19.711   6.934  22.600  0.00  0.00    +0.124 C 
BRANCH  14  16
ATOM     16  C   UNL     1      20.761   5.995  22.068  0.00  0.00    +0.008 A 
ATOM     17  C   UNL     1      20.648   5.447  20.790  0.00  0.00    +0.125 A 
ATOM     18  C   UNL     1      21.859   5.673  22.869  0.00  0.00    +0.012 A 
ATOM     20  C   UNL     1      21.629   4.579  20.313  0.00  0.00    +0.091 A 
ATOM     21  C   UNL     1      22.840   4.806  22.391  0.00  0.00    +0.046 A 
ATOM     23  C   UNL     1      22.726   4.258  21.114  0.00  0.00    +0.124 A 
BRANCH  17   2
ATOM      2  O   UNL     1      19.583   5.751  19.995  0.00  0.00    -0.506 OA
ATOM     32  H   UNL     1      19.729   5.374  19.111  0.00  0.00    +0.292 HD
ENDBRANCH  17   2
BRANCH  23   3
ATOM      3  O   UNL     1      23.684   3.411  20.647  0.00  0.00    -0.495 OA
ATOM     30  C   UNL     1      23.643   2.065  21.116  0.00  0.00    +0.277 C 
ENDBRANCH  23   3
ENDBRANCH  14  16
ENDBRANCH   5  14
ENDBRANCH  15  10
TORSDOF 9
ENDMDL
MODEL 4
REMARK VINA RESULT:      -6.5     25.737     28.865
REMARK  Name = 45783401
REMARK  11 active torsions:
REMARK  status: ('A' for Active; 'I' for Inactive)
REMARK    1  A    between atoms: O_2  and  C_17
REMARK    2  A    between atoms: O_3  and  C_23
REMARK    3  A    between atoms: O_3  and  C_30
REMARK    4  A    between atoms: O_4  and  C_29
REMARK    5  A    between atoms: O_4  and  C_31
REMARK    6  A    between atoms: N_5  and  C_14
REMARK    7  A    between atoms: N_8  and  C_27
REMARK    8  A    between atoms: C_10  and  C_15
REMARK    9  A    between atoms: C_14  and  C_16
REMARK   10  A    between atoms: C_19  and  C_22
REMARK   11  A    between atoms: C_27  and  C_29
REMARK                            x       y       z     vdW  Elec       q    Type
REMARK                         _______ _______ _______ _____ _____    ______ ____
ROOT
ATOM      1  O   UNL     1      -5.023  -9.617  16.020  0.00  0.00    -0.336 OA
ATOM      6  N   UNL     1      -5.301 -11.569  17.082  0.00  0.00    -0.190 NA
ATOM      7  N   UNL     1      -6.223  -9.504  16.732  0.00  0.00    -0.056 NA
ATOM     15  C   UNL     1      -4.546 -10.862  16.279  0.00  0.00    +0.245 A 
ATOM     19  C   UNL     1      -6.318 -10.694  17.333  0.00  0.00    +0.205 A 
ENDROOT
BRANCH  19  22
ATOM      8  N   UNL     1      -8.662  -9.096  17.495  0.00  0.00    -0.326 N 
ATOM      9  N   UNL     1      -9.617 -10.576  19.074  0.00  0.00    -0.240 NA
ATOM     22  C   UNL     1      -7.416 -11.041  18.189  0.00  0.00    +0.062 A 
ATOM     24  C   UNL     1      -8.567 -10.274  18.278  0.00  0.00    +0.130 A 
ATOM     25  C   UNL     1      -7.339 -12.193  18.964  0.00  0.00    +0.016 A 
ATOM     26  C   UNL     1      -8.399 -12.537  19.794  0.00  0.00    +0.020 A 
ATOM     28  C   UNL     1      -9.505 -11.703  19.814  0.00  0.00    +0.113 A 
ATOM     33  H   UNL     1      -8.077  -9.063  16.666  0.00  0.00    +0.148 HD
BRANCH   8  27
ATOM     27  C   UNL     1      -9.805  -8.245  17.522  0.00  0.00    +0.131 C 
BRANCH  27  29
ATOM     29  C   UNL     1     -10.291  -7.983  16.105  0.00  0.00    +0.178 C 
BRANCH  29   4
ATOM      4  O   UNL     1     -10.079  -6.617  15.778  0.00  0.00    -0.381 OA
ATOM     31  C   UNL     1     -11.273  -6.001  15.314  0.00  0.00    +0.194 C 
ENDBRANCH  29   4
ENDBRANCH  27  29
ENDBRANCH   8  27
ENDBRANCH  19  22
BRANCH  15  10
ATOM      5  N   UNL     1      -3.049 -10.566  14.313  0.00  0.00    -0.287 NA
ATOM     10  C   UNL     1      -3.237 -11.236  15.616  0.00  0.00    +0.146 C 
ATOM     11  C   UNL     1      -2.009 -10.823  16.449  0.00  0.00    +0.030 C 
ATOM     12  C   UNL     1      -1.161  -9.974  15.513  0.00  0.00    +0.017 C 
ATOM     13  C   UNL     1      -1.605 -10.413  14.132  0.00  0.00    +0.085 C 
BRANCH   5  14
ATOM     14  C   UNL     1      -3.667 -11.282  13.205  0.00  0.00    +0.124 C 
BRANCH  14  16
ATOM     16  C   UNL     1      -4.257 -10.340  12.189  0.00  0.00    +0.008 A 
ATOM     17  C   UNL     1      -5.487  -9.722  12.419  0.00  0.00    +0.125 A 
ATOM     18  C   UNL     1      -3.560 -10.086  11.007  0.00  0.00    +0.012 A 
ATOM     20  C   UNL     1      -6.019  -8.852  11.467  0.00  0.00    +0.091 A 
ATOM     21  C   UNL     1      -4.091  -9.216  10.057  0.00  0.00    +0.046 A 
ATOM     23  C   UNL     1      -5.321  -8.599  10.286  0.00  0.00    +0.124 A 
BRANCH  17   2
ATOM      2  O   UNL     1      -6.181  -9.958  13.567  0.00  0.00    -0.506 OA
ATOM     32  H   UNL     1      -6.370 -10.909  13.634  0.00  0.00    +0.292 HD
ENDBRANCH  17   2
BRANCH  23   3
ATOM      3  O   UNL     1      -5.840  -7.749   9.358  0.00  0.00    -0.495 OA
ATOM     30  C   UNL     1      -7.114  -8.086   8.811  0.00  0.00    +0.277 C 
ENDBRANCH  23   3
ENDBRANCH  14  16
ENDBRANCH   5  14
ENDBRANCH  15  10
TORSDOF 9
ENDMDL
MODEL 5
REMARK VINA RESULT:      -6.5      2.818      5.876
REMARK  Name = 45783401
REMARK  11 active torsions:
REMARK  status: ('A' for Active; 'I' for Inactive)
REMARK    1  A    between atoms: O_2  and  C_17
REMARK    2  A    between atoms: O_3  and  C_23
REMARK    3  A    between atoms: O_3  and  C_30
REMARK    4  A    between atoms: O_4  and  C_29
REMARK    5  A    between atoms: O_4  and  C_31
REMARK    6  A    between atoms: N_5  and  C_14
REMARK    7  A    between atoms: N_8  and  C_27
REMARK    8  A    between atoms: C_10  and  C_15
REMARK    9  A    between atoms: C_14  and  C_16
REMARK   10  A    between atoms: C_19  and  C_22
REMARK   11  A    between atoms: C_27  and  C_29
REMARK                            x       y       z     vdW  Elec       q    Type
REMARK                         _______ _______ _______ _____ _____    ______ ____
ROOT
ATOM      1  O   UNL     1      15.204   6.422  20.253  0.00  0.00    -0.336 OA
ATOM      6  N   UNL     1      15.755   8.523  19.708  0.00  0.00    -0.190 NA
ATOM      7  N   UNL     1      16.270   6.774  21.091  0.00  0.00    -0.056 NA
ATOM     15  C   UNL     1      14.965   7.506  19.471  0.00  0.00    +0.245 A 
ATOM     19  C   UNL     1      16.538   8.026  20.709  0.00  0.00    +0.205 A 
ENDROOT
BRANCH  19  22
ATOM      8  N   UNL     1      19.181   7.028  21.007  0.00  0.00    -0.326 N 
ATOM      9  N   UNL     1      19.881   9.050  22.015  0.00  0.00    -0.240 NA
ATOM     22  C   UNL     1      17.582   8.808  21.306  0.00  0.00    +0.062 A 
ATOM     24  C   UNL     1      18.876   8.337  21.458  0.00  0.00    +0.130 A 
ATOM     25  C   UNL     1      17.301  10.094  21.754  0.00  0.00    +0.016 A 
ATOM     26  C   UNL     1      18.308  10.859  22.332  0.00  0.00    +0.020 A 
ATOM     28  C   UNL     1      19.569  10.296  22.439  0.00  0.00    +0.113 A 
ATOM     33  H   UNL     1      18.569   6.648  20.292  0.00  0.00    +0.148 HD
BRANCH   8  27
ATOM     27  C   UNL     1      20.482   6.458  21.122  0.00  0.00    +0.131 C 
BRANCH  27  29
ATOM     29  C   UNL     1      20.506   5.083  20.475  0.00  0.00    +0.178 C 
BRANCH  29   4
ATOM      4  O   UNL     1      21.812   4.532  20.580  0.00  0.00    -0.381 OA
ATOM     31  C   UNL     1      21.838   3.415  21.459  0.00  0.00    +0.194 C 
ENDBRANCH  29   4
ENDBRANCH  27  29
ENDBRANCH   8  27
ENDBRANCH  19  22
BRANCH  15  10
ATOM      5  N   UNL     1      12.739   8.328  18.719  0.00  0.00    -0.287 NA
ATOM     10  C   UNL     1      13.841   7.378  18.464  0.00  0.00    +0.146 C 
ATOM     11  C   UNL     1      14.295   7.683  17.024  0.00  0.00    +0.030 C 
ATOM     12  C   UNL     1      13.353   8.772  16.532  0.00  0.00    +0.017 C 
ATOM     13  C   UNL     1      12.134   8.617  17.419  0.00  0.00    +0.085 C 
BRANCH   5  14
ATOM     14  C   UNL     1      11.763   7.831  19.680  0.00  0.00    +0.124 C 
BRANCH  14  16
ATOM     16  C   UNL     1      11.504   8.825  20.780  0.00  0.00    +0.008 A 
ATOM     17  C   UNL     1      10.613   8.530  21.813  0.00  0.00    +0.125 A 
ATOM     18  C   UNL     1      12.167  10.053  20.762  0.00  0.00    +0.012 A 
ATOM     20  C   UNL     1      10.384   9.462  22.825  0.00  0.00    +0.091 A 
ATOM     21  C   UNL     1      11.939  10.984  21.774  0.00  0.00    +0.046 A 
ATOM     23  C   UNL     1      11.047  10.689  22.805  0.00  0.00    +0.124 A 
BRANCH  17   2
ATOM      2  O   UNL     1       9.957   7.335  21.846  0.00  0.00    -0.506 OA
ATOM     32  H   UNL     1       9.807   7.030  20.935  0.00  0.00    +0.292 HD
ENDBRANCH  17   2
BRANCH  23   3
ATOM      3  O   UNL     1      10.824  11.598  23.793  0.00  0.00    -0.495 OA
ATOM     30  C   UNL     1      11.733  11.597  24.893  0.00  0.00    +0.277 C 
ENDBRANCH  23   3
ENDBRANCH  14  16
ENDBRANCH   5  14
ENDBRANCH  15  10
TORSDOF 9
ENDMDL
MODEL 6
REMARK VINA RESULT:      -6.2      2.270      5.203
REMARK  Name = 45783401
REMARK  11 active torsions:
REMARK  status: ('A' for Active; 'I' for Inactive)
REMARK    1  A    between atoms: O_2  and  C_17
REMARK    2  A    between atoms: O_3  and  C_23
REMARK    3  A    between atoms: O_3  and  C_30
REMARK    4  A    between atoms: O_4  and  C_29
REMARK    5  A    between atoms: O_4  and  C_31
REMARK    6  A    between atoms: N_5  and  C_14
REMARK    7  A    between atoms: N_8  and  C_27
REMARK    8  A    between atoms: C_10  and  C_15
REMARK    9  A    between atoms: C_14  and  C_16
REMARK   10  A    between atoms: C_19  and  C_22
REMARK   11  A    between atoms: C_27  and  C_29
REMARK                            x       y       z     vdW  Elec       q    Type
REMARK                         _______ _______ _______ _____ _____    ______ ____
ROOT
ATOM      1  O   UNL     1      15.688   6.224  18.731  0.00  0.00    -0.336 OA
ATOM      6  N   UNL     1      15.640   7.536  20.546  0.00  0.00    -0.190 NA
ATOM      7  N   UNL     1      17.000   6.262  19.218  0.00  0.00    -0.056 NA
ATOM     15  C   UNL     1      14.952   7.000  19.569  0.00  0.00    +0.245 A 
ATOM     19  C   UNL     1      16.890   7.054  20.289  0.00  0.00    +0.205 A 
ENDROOT
BRANCH  19  22
ATOM      8  N   UNL     1      17.541   9.743  20.933  0.00  0.00    -0.326 N 
ATOM      9  N   UNL     1      19.389   9.035  22.228  0.00  0.00    -0.240 NA
ATOM     22  C   UNL     1      18.011   7.386  21.122  0.00  0.00    +0.062 A 
ATOM     24  C   UNL     1      18.341   8.692  21.446  0.00  0.00    +0.130 A 
ATOM     25  C   UNL     1      18.806   6.366  21.633  0.00  0.00    +0.016 A 
ATOM     26  C   UNL     1      19.893   6.679  22.442  0.00  0.00    +0.020 A 
ATOM     28  C   UNL     1      20.140   8.017  22.706  0.00  0.00    +0.113 A 
ATOM     33  H   UNL     1      16.592   9.496  20.671  0.00  0.00    +0.148 HD
BRANCH   8  27
ATOM     27  C   UNL     1      17.804  11.116  21.211  0.00  0.00    +0.131 C 
BRANCH  27  29
ATOM     29  C   UNL     1      16.870  11.999  20.400  0.00  0.00    +0.178 C 
BRANCH  29   4
ATOM      4  O   UNL     1      16.659  13.224  21.089  0.00  0.00    -0.381 OA
ATOM     31  C   UNL     1      15.293  13.614  21.055  0.00  0.00    +0.194 C 
ENDBRANCH  29   4
ENDBRANCH  27  29
ENDBRANCH   8  27
ENDBRANCH  19  22
BRANCH  15  10
ATOM      5  N   UNL     1      12.843   8.271  19.936  0.00  0.00    -0.287 NA
ATOM     10  C   UNL     1      13.476   7.124  19.254  0.00  0.00    +0.146 C 
ATOM     11  C   UNL     1      13.206   7.362  17.756  0.00  0.00    +0.030 C 
ATOM     12  C   UNL     1      12.366   8.630  17.700  0.00  0.00    +0.017 C 
ATOM     13  C   UNL     1      11.740   8.704  19.078  0.00  0.00    +0.085 C 
BRANCH   5  14
ATOM     14  C   UNL     1      12.398   7.961  21.288  0.00  0.00    +0.124 C 
BRANCH  14  16
ATOM     16  C   UNL     1      12.242   9.202  22.125  0.00  0.00    +0.008 A 
ATOM     17  C   UNL     1      13.320  10.062  22.333  0.00  0.00    +0.125 A 
ATOM     18  C   UNL     1      11.001   9.490  22.696  0.00  0.00    +0.012 A 
ATOM     20  C   UNL     1      13.159  11.208  23.112  0.00  0.00    +0.091 A 
ATOM     21  C   UNL     1      10.840  10.636  23.473  0.00  0.00    +0.046 A 
ATOM     23  C   UNL     1      11.918  11.495  23.682  0.00  0.00    +0.124 A 
BRANCH  17   2
ATOM      2  O   UNL     1      14.539   9.796  21.784  0.00  0.00    -0.506 OA
ATOM     32  H   UNL     1      15.065   9.277  22.415  0.00  0.00    +0.292 HD
ENDBRANCH  17   2
BRANCH  23   3
ATOM      3  O   UNL     1      11.761  12.613  24.441  0.00  0.00    -0.495 OA
ATOM     30  C   UNL     1      10.451  13.175  24.504  0.00  0.00    +0.277 C 
ENDBRANCH  23   3
ENDBRANCH  14  16
ENDBRANCH   5  14
ENDBRANCH  15  10
TORSDOF 9
ENDMDL
MODEL 7
REMARK VINA RESULT:      -6.1     16.104     21.181
REMARK  Name = 45783401
REMARK  11 active torsions:
REMARK  status: ('A' for Active; 'I' for Inactive)
REMARK    1  A    between atoms: O_2  and  C_17
REMARK    2  A    between atoms: O_3  and  C_23
REMARK    3  A    between atoms: O_3  and  C_30
REMARK    4  A    between atoms: O_4  and  C_29
REMARK    5  A    between atoms: O_4  and  C_31
REMARK    6  A    between atoms: N_5  and  C_14
REMARK    7  A    between atoms: N_8  and  C_27
REMARK    8  A    between atoms: C_10  and  C_15
REMARK    9  A    between atoms: C_14  and  C_16
REMARK   10  A    between atoms: C_19  and  C_22
REMARK   11  A    between atoms: C_27  and  C_29
REMARK                            x       y       z     vdW  Elec       q    Type
REMARK                         _______ _______ _______ _____ _____    ______ ____
ROOT
ATOM      1  O   UNL     1      11.627   3.255   2.463  0.00  0.00    -0.336 OA
ATOM      6  N   UNL     1      12.066   5.445   2.301  0.00  0.00    -0.190 NA
ATOM      7  N   UNL     1      10.600   3.909   3.153  0.00  0.00    -0.056 NA
ATOM     15  C   UNL     1      12.447   4.231   1.993  0.00  0.00    +0.245 A 
ATOM     19  C   UNL     1      10.928   5.196   3.012  0.00  0.00    +0.205 A 
ENDROOT
BRANCH  19  22
ATOM      8  N   UNL     1      10.803   5.661   5.812  0.00  0.00    -0.326 N 
ATOM      9  N   UNL     1       9.342   7.493   5.490  0.00  0.00    -0.240 NA
ATOM     22  C   UNL     1      10.143   6.259   3.572  0.00  0.00    +0.062 A 
ATOM     24  C   UNL     1      10.072   6.500   4.934  0.00  0.00    +0.130 A 
ATOM     25  C   UNL     1       9.419   7.091   2.724  0.00  0.00    +0.016 A 
ATOM     26  C   UNL     1       8.657   8.124   3.258  0.00  0.00    +0.020 A 
ATOM     28  C   UNL     1       8.651   8.281   4.635  0.00  0.00    +0.113 A 
ATOM     33  H   UNL     1      11.601   5.180   5.409  0.00  0.00    +0.148 HD
BRANCH   8  27
ATOM     27  C   UNL     1      10.791   5.831   7.227  0.00  0.00    +0.131 C 
BRANCH  27  29
ATOM     29  C   UNL     1       9.786   4.880   7.856  0.00  0.00    +0.178 C 
BRANCH  29   4
ATOM      4  O   UNL     1       9.249   5.468   9.033  0.00  0.00    -0.381 OA
ATOM     31  C   UNL     1       9.294   4.569  10.133  0.00  0.00    +0.194 C 
ENDBRANCH  29   4
ENDBRANCH  27  29
ENDBRANCH   8  27
ENDBRANCH  19  22
BRANCH  15  10
ATOM      5  N   UNL     1      13.469   3.940  -0.258  0.00  0.00    -0.287 NA
ATOM     10  C   UNL     1      13.654   3.776   1.198  0.00  0.00    +0.146 C 
ATOM     11  C   UNL     1      14.922   4.586   1.526  0.00  0.00    +0.030 C 
ATOM     12  C   UNL     1      15.412   5.117   0.186  0.00  0.00    +0.017 C 
ATOM     13  C   UNL     1      14.801   4.162  -0.820  0.00  0.00    +0.085 C 
BRANCH   5  14
ATOM     14  C   UNL     1      12.792   2.811  -0.881  0.00  0.00    +0.124 C 
BRANCH  14  16
ATOM     16  C   UNL     1      11.855   3.253  -1.974  0.00  0.00    +0.008 A 
ATOM     17  C   UNL     1      10.710   3.992  -1.675  0.00  0.00    +0.125 A 
ATOM     18  C   UNL     1      12.142   2.917  -3.298  0.00  0.00    +0.012 A 
ATOM     20  C   UNL     1       9.852   4.394  -2.699  0.00  0.00    +0.091 A 
ATOM     21  C   UNL     1      11.285   3.320  -4.321  0.00  0.00    +0.046 A 
ATOM     23  C   UNL     1      10.139   4.058  -4.022  0.00  0.00    +0.124 A 
BRANCH  17   2
ATOM      2  O   UNL     1      10.415   4.329  -0.388  0.00  0.00    -0.506 OA
ATOM     32  H   UNL     1       9.599   3.874  -0.120  0.00  0.00    +0.292 HD
ENDBRANCH  17   2
BRANCH  23   3
ATOM      3  O   UNL     1       9.303   4.450  -5.021  0.00  0.00    -0.495 OA
ATOM     30  C   UNL     1       8.094   5.103  -4.636  0.00  0.00    +0.277 C 
ENDBRANCH  23   3
ENDBRANCH  14  16
ENDBRANCH   5  14
ENDBRANCH  15  10
TORSDOF 9
ENDMDL
MODEL 8
REMARK VINA RESULT:      -6.1     27.384     30.104
REMARK  Name = 45783401
REMARK  11 active torsions:
REMARK  status: ('A' for Active; 'I' for Inactive)
REMARK    1  A    between atoms: O_2  and  C_17
REMARK    2  A    between atoms: O_3  and  C_23
REMARK    3  A    between atoms: O_3  and  C_30
REMARK    4  A    between atoms: O_4  and  C_29
REMARK    5  A    between atoms: O_4  and  C_31
REMARK    6  A    between atoms: N_5  and  C_14
REMARK    7  A    between atoms: N_8  and  C_27
REMARK    8  A    between atoms: C_10  and  C_15
REMARK    9  A    between atoms: C_14  and  C_16
REMARK   10  A    between atoms: C_19  and  C_22
REMARK   11  A    between atoms: C_27  and  C_29
REMARK                            x       y       z     vdW  Elec       q    Type
REMARK                         _______ _______ _______ _____ _____    ______ ____
ROOT
ATOM      1  O   UNL     1      -7.030 -10.690  20.095  0.00  0.00    -0.336 OA
ATOM      6  N   UNL     1      -7.412 -11.469  18.031  0.00  0.00    -0.190 NA
ATOM      7  N   UNL     1      -5.876 -10.409  19.354  0.00  0.00    -0.056 NA
ATOM     15  C   UNL     1      -7.883 -11.315  19.242  0.00  0.00    +0.245 A 
ATOM     19  C   UNL     1      -6.178 -10.897  18.148  0.00  0.00    +0.205 A 
ENDROOT
BRANCH  19  22
ATOM      8  N   UNL     1      -7.040 -10.182  15.537  0.00  0.00    -0.326 N 
ATOM      9  N   UNL     1      -4.842 -10.416  14.697  0.00  0.00    -0.240 NA
ATOM     22  C   UNL     1      -5.270 -10.833  17.039  0.00  0.00    +0.062 A 
ATOM     24  C   UNL     1      -5.673 -10.486  15.760  0.00  0.00    +0.130 A 
ATOM     25  C   UNL     1      -3.926 -11.128  17.240  0.00  0.00    +0.016 A 
ATOM     26  C   UNL     1      -3.039 -11.067  16.172  0.00  0.00    +0.020 A 
ATOM     28  C   UNL     1      -3.542 -10.710  14.931  0.00  0.00    +0.113 A 
ATOM     33  H   UNL     1      -7.570  -9.884  16.349  0.00  0.00    +0.148 HD
BRANCH   8  27
ATOM     27  C   UNL     1      -7.548  -9.815  14.256  0.00  0.00    +0.131 C 
BRANCH  27  29
ATOM     29  C   UNL     1      -8.851 -10.549  13.984  0.00  0.00    +0.178 C 
BRANCH  29   4
ATOM      4  O   UNL     1      -9.016 -11.590  14.937  0.00  0.00    -0.381 OA
ATOM     31  C   UNL     1     -10.374 -11.723  15.336  0.00  0.00    +0.194 C 
ENDBRANCH  29   4
ENDBRANCH  27  29
ENDBRANCH   8  27
ENDBRANCH  19  22
BRANCH  15  10
ATOM      5  N   UNL     1     -10.356 -11.306  18.960  0.00  0.00    -0.287 NA
ATOM     10  C   UNL     1      -9.225 -11.728  19.811  0.00  0.00    +0.146 C 
ATOM     11  C   UNL     1      -9.374 -13.256  19.931  0.00  0.00    +0.030 C 
ATOM     12  C   UNL     1     -10.648 -13.592  19.169  0.00  0.00    +0.017 C 
ATOM     13  C   UNL     1     -11.420 -12.288  19.171  0.00  0.00    +0.085 C 
BRANCH   5  14
ATOM     14  C   UNL     1     -10.803  -9.947  19.233  0.00  0.00    +0.124 C 
BRANCH  14  16
ATOM     16  C   UNL     1     -11.041  -9.170  17.965  0.00  0.00    +0.008 A 
ATOM     17  C   UNL     1      -9.982  -8.556  17.295  0.00  0.00    +0.125 A 
ATOM     18  C   UNL     1     -12.338  -9.068  17.460  0.00  0.00    +0.012 A 
ATOM     20  C   UNL     1     -10.220  -7.840  16.122  0.00  0.00    +0.091 A 
ATOM     21  C   UNL     1     -12.575  -8.354  16.286  0.00  0.00    +0.046 A 
ATOM     23  C   UNL     1     -11.517  -7.739  15.617  0.00  0.00    +0.124 A 
BRANCH  17   2
ATOM      2  O   UNL     1      -8.710  -8.645  17.775  0.00  0.00    -0.506 OA
ATOM     32  H   UNL     1      -8.326  -9.495  17.501  0.00  0.00    +0.292 HD
ENDBRANCH  17   2
BRANCH  23   3
ATOM      3  O   UNL     1     -11.748  -7.042  14.472  0.00  0.00    -0.495 OA
ATOM     30  C   UNL     1     -11.985  -5.641  14.602  0.00  0.00    +0.277 C 
ENDBRANCH  23   3
ENDBRANCH  14  16
ENDBRANCH   5  14
ENDBRANCH  15  10
TORSDOF 9
ENDMDL
MODEL 9
REMARK VINA RESULT:      -6.1      4.126      7.156
REMARK  Name = 45783401
REMARK  11 active torsions:
REMARK  status: ('A' for Active; 'I' for Inactive)
REMARK    1  A    between atoms: O_2  and  C_17
REMARK    2  A    between atoms: O_3  and  C_23
REMARK    3  A    between atoms: O_3  and  C_30
REMARK    4  A    between atoms: O_4  and  C_29
REMARK    5  A    between atoms: O_4  and  C_31
REMARK    6  A    between atoms: N_5  and  C_14
REMARK    7  A    between atoms: N_8  and  C_27
REMARK    8  A    between atoms: C_10  and  C_15
REMARK    9  A    between atoms: C_14  and  C_16
REMARK   10  A    between atoms: C_19  and  C_22
REMARK   11  A    between atoms: C_27  and  C_29
REMARK                            x       y       z     vdW  Elec       q    Type
REMARK                         _______ _______ _______ _____ _____    ______ ____
ROOT
ATOM      1  O   UNL     1      13.226  10.674  17.979  0.00  0.00    -0.336 OA
ATOM      6  N   UNL     1      14.000   9.635  16.152  0.00  0.00    -0.190 NA
ATOM      7  N   UNL     1      13.820  11.666  17.190  0.00  0.00    -0.056 NA
ATOM     15  C   UNL     1      13.376   9.509  17.296  0.00  0.00    +0.245 A 
ATOM     19  C   UNL     1      14.252  10.976  16.131  0.00  0.00    +0.205 A 
ENDROOT
BRANCH  19  22
ATOM      8  N   UNL     1      12.862  12.259  14.011  0.00  0.00    -0.326 N 
ATOM      9  N   UNL     1      14.900  12.818  12.950  0.00  0.00    -0.240 NA
ATOM     22  C   UNL     1      14.941  11.595  15.035  0.00  0.00    +0.062 A 
ATOM     24  C   UNL     1      14.279  12.226  13.994  0.00  0.00    +0.130 A 
ATOM     25  C   UNL     1      16.331  11.571  15.003  0.00  0.00    +0.016 A 
ATOM     26  C   UNL     1      17.007  12.170  13.946  0.00  0.00    +0.020 A 
ATOM     28  C   UNL     1      16.252  12.774  12.953  0.00  0.00    +0.113 A 
ATOM     33  H   UNL     1      12.423  12.155  14.920  0.00  0.00    +0.148 HD
BRANCH   8  27
ATOM     27  C   UNL     1      12.095  12.883  12.984  0.00  0.00    +0.131 C 
BRANCH  27  29
ATOM     29  C   UNL     1      10.861  12.050  12.678  0.00  0.00    +0.178 C 
BRANCH  29   4
ATOM      4  O   UNL     1      10.239  12.542  11.499  0.00  0.00    -0.381 OA
ATOM     31  C   UNL     1       9.201  11.676  11.057  0.00  0.00    +0.194 C 
ENDBRANCH  29   4
ENDBRANCH  27  29
ENDBRANCH   8  27
ENDBRANCH  19  22
BRANCH  15  10
ATOM      5  N   UNL     1      13.656   7.764  19.049  0.00  0.00    -0.287 NA
ATOM     10  C   UNL     1      12.808   8.265  17.948  0.00  0.00    +0.146 C 
ATOM     11  C   UNL     1      11.431   8.509  18.594  0.00  0.00    +0.030 C 
ATOM     12  C   UNL     1      11.586   8.059  20.040  0.00  0.00    +0.017 C 
ATOM     13  C   UNL     1      12.757   7.099  19.992  0.00  0.00    +0.085 C 
BRANCH   5  14
ATOM     14  C   UNL     1      14.724   6.883  18.595  0.00  0.00    +0.124 C 
BRANCH  14  16
ATOM     16  C   UNL     1      15.953   7.002  19.456  0.00  0.00    +0.008 A 
ATOM     17  C   UNL     1      17.030   6.132  19.287  0.00  0.00    +0.125 A 
ATOM     18  C   UNL     1      16.008   7.998  20.433  0.00  0.00    +0.012 A 
ATOM     20  C   UNL     1      18.161   6.257  20.094  0.00  0.00    +0.091 A 
ATOM     21  C   UNL     1      17.139   8.122  21.239  0.00  0.00    +0.046 A 
ATOM     23  C   UNL     1      18.216   7.252  21.070  0.00  0.00    +0.124 A 
BRANCH  17   2
ATOM      2  O   UNL     1      16.993   5.155  18.338  0.00  0.00    -0.506 OA
ATOM     32  H   UNL     1      16.075   5.037  18.040  0.00  0.00    +0.292 HD
ENDBRANCH  17   2
BRANCH  23   3
ATOM      3  O   UNL     1      19.319   7.373  21.856  0.00  0.00    -0.495 OA
ATOM     30  C   UNL     1      20.451   6.575  21.514  0.00  0.00    +0.277 C 
ENDBRANCH  23   3
ENDBRANCH  14  16
ENDBRANCH   5  14
ENDBRANCH  15  10
TORSDOF 9
ENDMDL
MODEL 10
REMARK VINA RESULT:      -6.0     25.781     29.370
REMARK  Name = 45783401
REMARK  11 active torsions:
REMARK  status: ('A' for Active; 'I' for Inactive)
REMARK    1  A    between atoms: O_2  and  C_17
REMARK    2  A    between atoms: O_3  and  C_23
REMARK    3  A    between atoms: O_3  and  C_30
REMARK    4  A    between atoms: O_4  and  C_29
REMARK    5  A    between atoms: O_4  and  C_31
REMARK    6  A    between atoms: N_5  and  C_14
REMARK    7  A    between atoms: N_8  and  C_27
REMARK    8  A    between atoms: C_10  and  C_15
REMARK    9  A    between atoms: C_14  and  C_16
REMARK   10  A    between atoms: C_19  and  C_22
REMARK   11  A    between atoms: C_27  and  C_29
REMARK                            x       y       z     vdW  Elec       q    Type
REMARK                         _______ _______ _______ _____ _____    ______ ____
ROOT
ATOM      1  O   UNL     1      -4.017 -10.993  18.005  0.00  0.00    -0.336 OA
ATOM      6  N   UNL     1      -5.529 -10.690  16.381  0.00  0.00    -0.190 NA
ATOM      7  N   UNL     1      -5.226 -10.702  18.649  0.00  0.00    -0.056 NA
ATOM     15  C   UNL     1      -4.284 -10.965  16.673  0.00  0.00    +0.245 A 
ATOM     19  C   UNL     1      -6.069 -10.537  17.626  0.00  0.00    +0.205 A 
ENDROOT
BRANCH  19  22
ATOM      8  N   UNL     1      -7.794 -12.165  19.189  0.00  0.00    -0.326 N 
ATOM      9  N   UNL     1      -9.618 -10.721  18.764  0.00  0.00    -0.240 NA
ATOM     22  C   UNL     1      -7.455 -10.215  17.811  0.00  0.00    +0.062 A 
ATOM     24  C   UNL     1      -8.309 -10.998  18.571  0.00  0.00    +0.130 A 
ATOM     25  C   UNL     1      -7.976  -9.074  17.212  0.00  0.00    +0.016 A 
ATOM     26  C   UNL     1      -9.318  -8.755  17.387  0.00  0.00    +0.020 A 
ATOM     28  C   UNL     1     -10.090  -9.603  18.165  0.00  0.00    +0.113 A 
ATOM     33  H   UNL     1      -6.792 -12.179  19.352  0.00  0.00    +0.148 HD
BRANCH   8  27
ATOM     27  C   UNL     1      -8.596 -13.031  19.988  0.00  0.00    +0.131 C 
BRANCH  27  29
ATOM     29  C   UNL     1      -9.044 -14.229  19.167  0.00  0.00    +0.178 C 
BRANCH  29   4
ATOM      4  O   UNL     1     -10.435 -14.124  18.897  0.00  0.00    -0.381 OA
ATOM     31  C   UNL     1     -10.687 -13.977  17.506  0.00  0.00    +0.194 C 
ENDBRANCH  29   4
ENDBRANCH  27  29
ENDBRANCH   8  27
ENDBRANCH  19  22
BRANCH  15  10
ATOM      5  N   UNL     1      -3.284 -10.626  14.419  0.00  0.00    -0.287 NA
ATOM     10  C   UNL     1      -3.121 -11.253  15.746  0.00  0.00    +0.146 C 
ATOM     11  C   UNL     1      -1.785 -10.700  16.278  0.00  0.00    +0.030 C 
ATOM     12  C   UNL     1      -1.244  -9.823  15.158  0.00  0.00    +0.017 C 
ATOM     13  C   UNL     1      -1.936 -10.357  13.920  0.00  0.00    +0.085 C 
BRANCH   5  14
ATOM     14  C   UNL     1      -4.060 -11.439  13.491  0.00  0.00    +0.124 C 
BRANCH  14  16
ATOM     16  C   UNL     1      -4.653 -10.612  12.382  0.00  0.00    +0.008 A 
ATOM     17  C   UNL     1      -5.653  -9.675  12.646  0.00  0.00    +0.125 A 
ATOM     18  C   UNL     1      -4.192 -10.788  11.076  0.00  0.00    +0.012 A 
ATOM     20  C   UNL     1      -6.192  -8.917  11.607  0.00  0.00    +0.091 A 
ATOM     21  C   UNL     1      -4.730 -10.029  10.038  0.00  0.00    +0.046 A 
ATOM     23  C   UNL     1      -5.731  -9.094  10.302  0.00  0.00    +0.124 A 
BRANCH  17   2
ATOM      2  O   UNL     1      -6.115  -9.490  13.915  0.00  0.00    -0.506 OA
ATOM     32  H   UNL     1      -6.020  -8.553  14.154  0.00  0.00    +0.292 HD
ENDBRANCH  17   2
BRANCH  23   3
ATOM      3  O   UNL     1      -6.256  -8.354   9.289  0.00  0.00    -0.495 OA
ATOM     30  C   UNL     1      -6.563  -9.040   8.076  0.00  0.00    +0.277 C 
ENDBRANCH  23   3
ENDBRANCH  14  16
ENDBRANCH   5  14
ENDBRANCH  15  10
TORSDOF 9
ENDMDL
