MODEL 1
REMARK VINA RESULT:      -7.1      0.000      0.000
REMARK  Name = 51136637
REMARK  11 active torsions:
REMARK  status: ('A' for Active; 'I' for Inactive)
REMARK    1  A    between atoms: S_1  and  N_9
REMARK    2  A    between atoms: S_1  and  C_21
REMARK    3  A    between atoms: O_5  and  C_19
REMARK    4  A    between atoms: O_7  and  C_29
REMARK    5  A    between atoms: O_7  and  C_34
REMARK    6  A    between atoms: O_8  and  C_30
REMARK    7  A    between atoms: O_8  and  C_35
REMARK    8  A    between atoms: C_11  and  C_16
REMARK    9  A    between atoms: C_12  and  C_17
REMARK   10  A    between atoms: C_16  and  C_18
REMARK   11  A    between atoms: C_17  and  C_19
REMARK                            x       y       z     vdW  Elec       q    Type
REMARK                         _______ _______ _______ _____ _____    ______ ____
ROOT
ATOM      9  N   UNL     1      14.059   8.632  19.171  0.00  0.00    -0.176 NA
ATOM     11  C   UNL     1      14.612  10.730  17.958  0.00  0.00    +0.014 C 
ATOM     12  C   UNL     1      14.416   9.980  16.617  0.00  0.00    +0.006 C 
ATOM     13  C   UNL     1      15.052   9.741  19.050  0.00  0.00    +0.113 C 
ATOM     14  C   UNL     1      13.472   8.780  16.779  0.00  0.00    +0.021 C 
ATOM     15  C   UNL     1      13.929   7.857  17.905  0.00  0.00    +0.110 C 
ENDROOT
BRANCH   9   1
ATOM      1  S   UNL     1      14.182   7.692  20.598  0.00  0.00    +0.061 S 
ATOM      3  O   UNL     1      13.302   6.549  20.486  0.00  0.00    -0.153 OA
ATOM      4  O   UNL     1      14.121   8.571  21.746  0.00  0.00    -0.153 OA
BRANCH   1  21
ATOM      2  F   UNL     1      19.729   5.764  20.087  0.00  0.00    -0.205 F 
ATOM     21  C   UNL     1      15.843   7.114  20.444  0.00  0.00    +0.106 A 
ATOM     26  C   UNL     1      16.176   6.209  19.437  0.00  0.00    +0.031 A 
ATOM     27  C   UNL     1      16.822   7.564  21.331  0.00  0.00    +0.031 A 
ATOM     31  C   UNL     1      17.489   5.753  19.316  0.00  0.00    +0.040 A 
ATOM     32  C   UNL     1      18.134   7.108  21.209  0.00  0.00    +0.040 A 
ATOM     33  C   UNL     1      18.468   6.203  20.202  0.00  0.00    +0.124 A 
ENDBRANCH   1  21
ENDBRANCH   9   1
BRANCH  11  16
ATOM     16  C   UNL     1      13.383  11.525  18.415  0.00  0.00    +0.060 C 
BRANCH  16  18
ATOM     10  N   UNL     1      14.546  13.399  19.366  0.00  0.00    -0.287 NA
ATOM     18  C   UNL     1      13.749  12.406  19.586  0.00  0.00    +0.044 C 
ATOM     20  C   UNL     1      13.185  12.089  20.922  0.00  0.00    +0.003 A 
ATOM     22  C   UNL     1      13.826  12.661  22.029  0.00  0.00    -0.033 A 
ATOM     23  C   UNL     1      15.028  13.528  21.796  0.00  0.00    +0.059 C 
ATOM     24  C   UNL     1      14.853  14.290  20.490  0.00  0.00    +0.146 C 
ATOM     25  C   UNL     1      12.080  11.254  21.099  0.00  0.00    +0.059 A 
ATOM     28  C   UNL     1      13.370  12.370  23.318  0.00  0.00    +0.053 A 
ATOM     29  C   UNL     1      11.622  10.982  22.388  0.00  0.00    +0.162 A 
ATOM     30  C   UNL     1      12.266  11.536  23.495  0.00  0.00    +0.162 A 
BRANCH  29   7
ATOM      7  O   UNL     1      10.541  10.168  22.555  0.00  0.00    -0.491 OA
ATOM     34  C   UNL     1      10.759   8.766  22.415  0.00  0.00    +0.277 C 
ENDBRANCH  29   7
BRANCH  30   8
ATOM      8  O   UNL     1      11.827  11.266  24.756  0.00  0.00    -0.491 OA
ATOM     35  C   UNL     1      10.919  12.198  25.339  0.00  0.00    +0.277 C 
ENDBRANCH  30   8
ENDBRANCH  16  18
ENDBRANCH  11  16
BRANCH  12  17
ATOM     17  C   UNL     1      13.943  10.889  15.484  0.00  0.00    +0.124 C 
BRANCH  17  19
ATOM      6  O   UNL     1      15.457  12.236  14.128  0.00  0.00    -0.251 OA
ATOM     19  C   UNL     1      15.037  11.145  14.484  0.00  0.00    +0.305 C 
BRANCH  19   5
ATOM      5  O   UNL     1      15.512   9.963  14.012  0.00  0.00    -0.481 OA
ATOM     36  H   UNL     1      14.807   9.285  13.949  0.00  0.00    +0.295 HD
ENDBRANCH  19   5
ENDBRANCH  17  19
ENDBRANCH  12  17
TORSDOF 9
ENDMDL
MODEL 2
REMARK VINA RESULT:      -6.7     27.651     30.063
REMARK  Name = 51136637
REMARK  11 active torsions:
REMARK  status: ('A' for Active; 'I' for Inactive)
REMARK    1  A    between atoms: S_1  and  N_9
REMARK    2  A    between atoms: S_1  and  C_21
REMARK    3  A    between atoms: O_5  and  C_19
REMARK    4  A    between atoms: O_7  and  C_29
REMARK    5  A    between atoms: O_7  and  C_34
REMARK    6  A    between atoms: O_8  and  C_30
REMARK    7  A    between atoms: O_8  and  C_35
REMARK    8  A    between atoms: C_11  and  C_16
REMARK    9  A    between atoms: C_12  and  C_17
REMARK   10  A    between atoms: C_16  and  C_18
REMARK   11  A    between atoms: C_17  and  C_19
REMARK                            x       y       z     vdW  Elec       q    Type
REMARK                         _______ _______ _______ _____ _____    ______ ____
ROOT
ATOM      9  N   UNL     1      -3.249 -11.102  13.660  0.00  0.00    -0.176 NA
ATOM     11  C   UNL     1      -4.930 -11.408  15.465  0.00  0.00    +0.014 C 
ATOM     12  C   UNL     1      -3.775 -11.624  16.473  0.00  0.00    +0.006 C 
ATOM     13  C   UNL     1      -4.484 -11.842  14.059  0.00  0.00    +0.113 C 
ATOM     14  C   UNL     1      -2.482 -10.944  15.999  0.00  0.00    +0.021 C 
ATOM     15  C   UNL     1      -2.111 -11.373  14.583  0.00  0.00    +0.110 C 
ENDROOT
BRANCH   9   1
ATOM      1  S   UNL     1      -2.868 -11.160  11.990  0.00  0.00    +0.061 S 
ATOM      3  O   UNL     1      -2.703 -12.541  11.592  0.00  0.00    -0.153 OA
ATOM      4  O   UNL     1      -1.847 -10.174  11.707  0.00  0.00    -0.153 OA
BRANCH   1  21
ATOM      2  F   UNL     1      -7.942  -9.211   9.709  0.00  0.00    -0.205 F 
ATOM     21  C   UNL     1      -4.388 -10.578  11.307  0.00  0.00    +0.106 A 
ATOM     26  C   UNL     1      -5.272 -11.473  10.706  0.00  0.00    +0.031 A 
ATOM     27  C   UNL     1      -4.705  -9.219  11.369  0.00  0.00    +0.031 A 
ATOM     31  C   UNL     1      -6.473 -11.012  10.166  0.00  0.00    +0.040 A 
ATOM     32  C   UNL     1      -5.905  -8.759  10.829  0.00  0.00    +0.040 A 
ATOM     33  C   UNL     1      -6.790  -9.655  10.228  0.00  0.00    +0.124 A 
ENDBRANCH   1  21
ENDBRANCH   9   1
BRANCH  11  16
ATOM     16  C   UNL     1      -5.477  -9.975  15.438  0.00  0.00    +0.060 C 
BRANCH  16  18
ATOM     10  N   UNL     1      -7.315  -9.897  13.893  0.00  0.00    -0.287 NA
ATOM     18  C   UNL     1      -6.955  -9.997  15.130  0.00  0.00    +0.044 C 
ATOM     20  C   UNL     1      -7.917 -10.125  16.254  0.00  0.00    +0.003 A 
ATOM     22  C   UNL     1      -9.244  -9.758  15.994  0.00  0.00    -0.033 A 
ATOM     23  C   UNL     1      -9.596  -9.255  14.625  0.00  0.00    +0.059 C 
ATOM     24  C   UNL     1      -8.747  -9.979  13.589  0.00  0.00    +0.146 C 
ATOM     25  C   UNL     1      -7.543 -10.571  17.523  0.00  0.00    +0.059 A 
ATOM     28  C   UNL     1     -10.191  -9.817  17.020  0.00  0.00    +0.053 A 
ATOM     29  C   UNL     1      -8.498 -10.641  18.537  0.00  0.00    +0.162 A 
ATOM     30  C   UNL     1      -9.817 -10.263  18.288  0.00  0.00    +0.162 A 
BRANCH  29   7
ATOM      7  O   UNL     1      -8.128 -11.080  19.774  0.00  0.00    -0.491 OA
ATOM     34  C   UNL     1      -7.962 -12.487  19.939  0.00  0.00    +0.277 C 
ENDBRANCH  29   7
BRANCH  30   8
ATOM      8  O   UNL     1     -10.751 -10.322  19.278  0.00  0.00    -0.491 OA
ATOM     35  C   UNL     1     -11.632 -11.443  19.271  0.00  0.00    +0.277 C 
ENDBRANCH  30   8
ENDBRANCH  16  18
ENDBRANCH  11  16
BRANCH  12  17
ATOM     17  C   UNL     1      -4.127 -11.183  17.893  0.00  0.00    +0.124 C 
BRANCH  17  19
ATOM      6  O   UNL     1      -3.318 -12.213  19.950  0.00  0.00    -0.251 OA
ATOM     19  C   UNL     1      -3.916 -12.292  18.887  0.00  0.00    +0.305 C 
BRANCH  19   5
ATOM      5  O   UNL     1      -4.497 -13.432  18.432  0.00  0.00    -0.481 OA
ATOM     36  H   UNL     1      -4.497 -14.139  19.112  0.00  0.00    +0.295 HD
ENDBRANCH  19   5
ENDBRANCH  17  19
ENDBRANCH  12  17
TORSDOF 9
ENDMDL
MODEL 3
REMARK VINA RESULT:      -6.6     27.856     30.378
REMARK  Name = 51136637
REMARK  11 active torsions:
REMARK  status: ('A' for Active; 'I' for Inactive)
REMARK    1  A    between atoms: S_1  and  N_9
REMARK    2  A    between atoms: S_1  and  C_21
REMARK    3  A    between atoms: O_5  and  C_19
REMARK    4  A    between atoms: O_7  and  C_29
REMARK    5  A    between atoms: O_7  and  C_34
REMARK    6  A    between atoms: O_8  and  C_30
REMARK    7  A    between atoms: O_8  and  C_35
REMARK    8  A    between atoms: C_11  and  C_16
REMARK    9  A    between atoms: C_12  and  C_17
REMARK   10  A    between atoms: C_16  and  C_18
REMARK   11  A    between atoms: C_17  and  C_19
REMARK                            x       y       z     vdW  Elec       q    Type
REMARK                         _______ _______ _______ _____ _____    ______ ____
ROOT
ATOM      9  N   UNL     1      -3.817 -11.746  14.425  0.00  0.00    -0.176 NA
ATOM     11  C   UNL     1      -5.079 -12.350  16.479  0.00  0.00    +0.014 C 
ATOM     12  C   UNL     1      -4.239 -11.320  17.272  0.00  0.00    +0.006 C 
ATOM     13  C   UNL     1      -4.267 -12.880  15.286  0.00  0.00    +0.113 C 
ATOM     14  C   UNL     1      -3.697 -10.214  16.355  0.00  0.00    +0.021 C 
ATOM     15  C   UNL     1      -2.940 -10.795  15.165  0.00  0.00    +0.110 C 
ENDROOT
BRANCH   9   1
ATOM      1  S   UNL     1      -3.268 -12.185  12.862  0.00  0.00    +0.061 S 
ATOM      3  O   UNL     1      -3.992 -13.358  12.421  0.00  0.00    -0.153 OA
ATOM      4  O   UNL     1      -1.821 -12.152  12.846  0.00  0.00    -0.153 OA
BRANCH   1  21
ATOM      2  F   UNL     1      -5.220  -7.577   9.748  0.00  0.00    -0.205 F 
ATOM     21  C   UNL     1      -3.853 -10.805  11.931  0.00  0.00    +0.106 A 
ATOM     26  C   UNL     1      -5.107 -10.259  12.205  0.00  0.00    +0.031 A 
ATOM     27  C   UNL     1      -3.061 -10.261  10.918  0.00  0.00    +0.031 A 
ATOM     31  C   UNL     1      -5.568  -9.168  11.468  0.00  0.00    +0.040 A 
ATOM     32  C   UNL     1      -3.524  -9.171  10.183  0.00  0.00    +0.040 A 
ATOM     33  C   UNL     1      -4.777  -8.624  10.457  0.00  0.00    +0.124 A 
ENDBRANCH   1  21
ENDBRANCH   9   1
BRANCH  11  16
ATOM     16  C   UNL     1      -6.440 -11.819  16.009  0.00  0.00    +0.060 C 
BRANCH  16  18
ATOM     10  N   UNL     1      -7.447 -13.589  17.283  0.00  0.00    -0.287 NA
ATOM     18  C   UNL     1      -7.535 -12.359  16.898  0.00  0.00    +0.044 C 
ATOM     20  C   UNL     1      -8.654 -11.460  17.278  0.00  0.00    +0.003 A 
ATOM     22  C   UNL     1      -9.819 -12.072  17.759  0.00  0.00    -0.033 A 
ATOM     23  C   UNL     1      -9.864 -13.570  17.843  0.00  0.00    +0.059 C 
ATOM     24  C   UNL     1      -8.479 -14.095  18.194  0.00  0.00    +0.146 C 
ATOM     25  C   UNL     1      -8.583 -10.071  17.159  0.00  0.00    +0.059 A 
ATOM     28  C   UNL     1     -10.924 -11.286  18.097  0.00  0.00    +0.053 A 
ATOM     29  C   UNL     1      -9.685  -9.292  17.513  0.00  0.00    +0.162 A 
ATOM     30  C   UNL     1     -10.853  -9.897  17.978  0.00  0.00    +0.162 A 
BRANCH  29   7
ATOM      7  O   UNL     1      -9.610  -7.936  17.397  0.00  0.00    -0.491 OA
ATOM     34  C   UNL     1      -9.981  -7.372  16.140  0.00  0.00    +0.277 C 
ENDBRANCH  29   7
BRANCH  30   8
ATOM      8  O   UNL     1     -11.934  -9.141  18.317  0.00  0.00    -0.491 OA
ATOM     35  C   UNL     1     -13.109  -9.298  17.523  0.00  0.00    +0.277 C 
ENDBRANCH  30   8
ENDBRANCH  16  18
ENDBRANCH  11  16
BRANCH  12  17
ATOM     17  C   UNL     1      -4.991 -10.717  18.458  0.00  0.00    +0.124 C 
BRANCH  17  19
ATOM      6  O   UNL     1      -3.816 -12.179  20.016  0.00  0.00    -0.251 OA
ATOM     19  C   UNL     1      -4.809 -11.537  19.706  0.00  0.00    +0.305 C 
BRANCH  19   5
ATOM      5  O   UNL     1      -5.931 -11.468  20.467  0.00  0.00    -0.481 OA
ATOM     36  H   UNL     1      -5.949 -10.658  21.019  0.00  0.00    +0.295 HD
ENDBRANCH  19   5
ENDBRANCH  17  19
ENDBRANCH  12  17
TORSDOF 9
ENDMDL
MODEL 4
REMARK VINA RESULT:      -6.6     27.393     29.637
REMARK  Name = 51136637
REMARK  11 active torsions:
REMARK  status: ('A' for Active; 'I' for Inactive)
REMARK    1  A    between atoms: S_1  and  N_9
REMARK    2  A    between atoms: S_1  and  C_21
REMARK    3  A    between atoms: O_5  and  C_19
REMARK    4  A    between atoms: O_7  and  C_29
REMARK    5  A    between atoms: O_7  and  C_34
REMARK    6  A    between atoms: O_8  and  C_30
REMARK    7  A    between atoms: O_8  and  C_35
REMARK    8  A    between atoms: C_11  and  C_16
REMARK    9  A    between atoms: C_12  and  C_17
REMARK   10  A    between atoms: C_16  and  C_18
REMARK   11  A    between atoms: C_17  and  C_19
REMARK                            x       y       z     vdW  Elec       q    Type
REMARK                         _______ _______ _______ _____ _____    ______ ____
ROOT
ATOM      9  N   UNL     1      -4.351 -13.253  11.187  0.00  0.00    -0.176 NA
ATOM     11  C   UNL     1      -3.084 -11.156  11.602  0.00  0.00    +0.014 C 
ATOM     12  C   UNL     1      -3.391 -10.710  10.152  0.00  0.00    +0.006 C 
ATOM     13  C   UNL     1      -3.059 -12.691  11.682  0.00  0.00    +0.113 C 
ATOM     14  C   UNL     1      -4.667 -11.376   9.618  0.00  0.00    +0.021 C 
ATOM     15  C   UNL     1      -4.609 -12.893   9.764  0.00  0.00    +0.110 C 
ENDROOT
BRANCH   9   1
ATOM      1  S   UNL     1      -4.639 -14.893  11.592  0.00  0.00    +0.061 S 
ATOM      3  O   UNL     1      -3.478 -15.678  11.233  0.00  0.00    -0.153 OA
ATOM      4  O   UNL     1      -5.961 -15.264  11.135  0.00  0.00    -0.153 OA
BRANCH   1  21
ATOM      2  F   UNL     1      -4.797 -14.485  17.470  0.00  0.00    -0.205 F 
ATOM     21  C   UNL     1      -4.688 -14.771  13.352  0.00  0.00    +0.106 A 
ATOM     26  C   UNL     1      -5.722 -14.073  13.975  0.00  0.00    +0.031 A 
ATOM     27  C   UNL     1      -3.690 -15.373  14.120  0.00  0.00    +0.031 A 
ATOM     31  C   UNL     1      -5.759 -13.977  15.366  0.00  0.00    +0.040 A 
ATOM     32  C   UNL     1      -3.728 -15.276  15.511  0.00  0.00    +0.040 A 
ATOM     33  C   UNL     1      -4.763 -14.578  16.134  0.00  0.00    +0.124 A 
ENDBRANCH   1  21
ENDBRANCH   9   1
BRANCH  11  16
ATOM     16  C   UNL     1      -4.043 -10.578  12.651  0.00  0.00    +0.060 C 
BRANCH  16  18
ATOM     10  N   UNL     1      -2.063 -10.324  13.986  0.00  0.00    -0.287 NA
ATOM     18  C   UNL     1      -3.345 -10.484  13.986  0.00  0.00    +0.044 C 
ATOM     20  C   UNL     1      -4.157 -10.585  15.225  0.00  0.00    +0.003 A 
ATOM     22  C   UNL     1      -3.468 -10.881  16.409  0.00  0.00    -0.033 A 
ATOM     23  C   UNL     1      -1.984 -11.088  16.345  0.00  0.00    +0.059 C 
ATOM     24  C   UNL     1      -1.394 -10.172  15.283  0.00  0.00    +0.146 C 
ATOM     25  C   UNL     1      -5.543 -10.412  15.237  0.00  0.00    +0.059 A 
ATOM     28  C   UNL     1      -4.179 -11.029  17.603  0.00  0.00    +0.053 A 
ATOM     29  C   UNL     1      -6.243 -10.547  16.437  0.00  0.00    +0.162 A 
ATOM     30  C   UNL     1      -5.564 -10.857  17.616  0.00  0.00    +0.162 A 
BRANCH  29   7
ATOM      7  O   UNL     1      -7.595 -10.375  16.445  0.00  0.00    -0.491 OA
ATOM     34  C   UNL     1      -8.080  -9.070  16.754  0.00  0.00    +0.277 C 
ENDBRANCH  29   7
BRANCH  30   8
ATOM      8  O   UNL     1      -6.244 -10.998  18.788  0.00  0.00    -0.491 OA
ATOM     35  C   UNL     1      -6.659 -12.315  19.142  0.00  0.00    +0.277 C 
ENDBRANCH  30   8
ENDBRANCH  16  18
ENDBRANCH  11  16
BRANCH  12  17
ATOM     17  C   UNL     1      -3.468  -9.191   9.994  0.00  0.00    +0.124 C 
BRANCH  17  19
ATOM      6  O   UNL     1      -5.776  -8.426  10.162  0.00  0.00    -0.251 OA
ATOM     19  C   UNL     1      -4.813  -8.754   9.484  0.00  0.00    +0.305 C 
BRANCH  19   5
ATOM      5  O   UNL     1      -4.817  -8.772   8.126  0.00  0.00    -0.481 OA
ATOM     36  H   UNL     1      -4.745  -7.870   7.749  0.00  0.00    +0.295 HD
ENDBRANCH  19   5
ENDBRANCH  17  19
ENDBRANCH  12  17
TORSDOF 9
ENDMDL
MODEL 5
REMARK VINA RESULT:      -6.6     12.932     17.045
REMARK  Name = 51136637
REMARK  11 active torsions:
REMARK  status: ('A' for Active; 'I' for Inactive)
REMARK    1  A    between atoms: S_1  and  N_9
REMARK    2  A    between atoms: S_1  and  C_21
REMARK    3  A    between atoms: O_5  and  C_19
REMARK    4  A    between atoms: O_7  and  C_29
REMARK    5  A    between atoms: O_7  and  C_34
REMARK    6  A    between atoms: O_8  and  C_30
REMARK    7  A    between atoms: O_8  and  C_35
REMARK    8  A    between atoms: C_11  and  C_16
REMARK    9  A    between atoms: C_12  and  C_17
REMARK   10  A    between atoms: C_16  and  C_18
REMARK   11  A    between atoms: C_17  and  C_19
REMARK                            x       y       z     vdW  Elec       q    Type
REMARK                         _______ _______ _______ _____ _____    ______ ____
ROOT
ATOM      9  N   UNL     1      10.986   8.276   6.289  0.00  0.00    -0.176 NA
ATOM     11  C   UNL     1      10.783   5.807   6.494  0.00  0.00    +0.014 C 
ATOM     12  C   UNL     1      10.403   5.984   7.984  0.00  0.00    +0.006 C 
ATOM     13  C   UNL     1      11.675   6.974   6.040  0.00  0.00    +0.113 C 
ATOM     14  C   UNL     1       9.789   7.368   8.246  0.00  0.00    +0.021 C 
ATOM     15  C   UNL     1      10.693   8.486   7.735  0.00  0.00    +0.110 C 
ENDROOT
BRANCH   9   1
ATOM      1  S   UNL     1      11.655   9.626   5.473  0.00  0.00    +0.061 S 
ATOM      3  O   UNL     1      11.712  10.747   6.385  0.00  0.00    -0.153 OA
ATOM      4  O   UNL     1      11.025   9.750   4.176  0.00  0.00    -0.153 OA
BRANCH   1  21
ATOM      2  F   UNL     1      17.161   7.697   4.629  0.00  0.00    -0.205 F 
ATOM     21  C   UNL     1      13.304   9.048   5.222  0.00  0.00    +0.106 A 
ATOM     26  C   UNL     1      14.227   9.096   6.265  0.00  0.00    +0.031 A 
ATOM     27  C   UNL     1      13.683   8.543   3.977  0.00  0.00    +0.031 A 
ATOM     31  C   UNL     1      15.530   8.640   6.066  0.00  0.00    +0.040 A 
ATOM     32  C   UNL     1      14.986   8.087   3.778  0.00  0.00    +0.040 A 
ATOM     33  C   UNL     1      15.909   8.134   4.822  0.00  0.00    +0.124 A 
ENDBRANCH   1  21
ENDBRANCH   9   1
BRANCH  11  16
ATOM     16  C   UNL     1       9.579   5.654   5.555  0.00  0.00    +0.060 C 
BRANCH  16  18
ATOM     10  N   UNL     1      10.798   4.549   3.806  0.00  0.00    -0.287 NA
ATOM     18  C   UNL     1      10.053   5.555   4.125  0.00  0.00    +0.044 C 
ATOM     20  C   UNL     1       9.649   6.612   3.164  0.00  0.00    +0.003 A 
ATOM     22  C   UNL     1      10.397   6.710   1.982  0.00  0.00    -0.033 A 
ATOM     23  C   UNL     1      11.546   5.766   1.778  0.00  0.00    +0.059 C 
ATOM     24  C   UNL     1      11.209   4.420   2.404  0.00  0.00    +0.146 C 
ATOM     25  C   UNL     1       8.590   7.489   3.404  0.00  0.00    +0.059 A 
ATOM     28  C   UNL     1      10.094   7.709   1.054  0.00  0.00    +0.053 A 
ATOM     29  C   UNL     1       8.285   8.474   2.465  0.00  0.00    +0.162 A 
ATOM     30  C   UNL     1       9.036   8.586   1.294  0.00  0.00    +0.162 A 
BRANCH  29   7
ATOM      7  O   UNL     1       7.248   9.326   2.703  0.00  0.00    -0.491 OA
ATOM     34  C   UNL     1       7.304  10.093   3.904  0.00  0.00    +0.277 C 
ENDBRANCH  29   7
BRANCH  30   8
ATOM      8  O   UNL     1       8.747   9.551   0.378  0.00  0.00    -0.491 OA
ATOM     35  C   UNL     1       8.050   9.141  -0.797  0.00  0.00    +0.277 C 
ENDBRANCH  30   8
ENDBRANCH  16  18
ENDBRANCH  11  16
BRANCH  12  17
ATOM     17  C   UNL     1       9.484   4.880   8.505  0.00  0.00    +0.124 C 
BRANCH  17  19
ATOM      6  O   UNL     1      10.444   4.688  10.738  0.00  0.00    -0.251 OA
ATOM     19  C   UNL     1       9.474   4.829  10.008  0.00  0.00    +0.305 C 
BRANCH  19   5
ATOM      5  O   UNL     1       8.202   4.965  10.463  0.00  0.00    -0.481 OA
ATOM     36  H   UNL     1       7.542   4.700   9.787  0.00  0.00    +0.295 HD
ENDBRANCH  19   5
ENDBRANCH  17  19
ENDBRANCH  12  17
TORSDOF 9
ENDMDL
MODEL 6
REMARK VINA RESULT:      -6.3     14.176     18.725
REMARK  Name = 51136637
REMARK  11 active torsions:
REMARK  status: ('A' for Active; 'I' for Inactive)
REMARK    1  A    between atoms: S_1  and  N_9
REMARK    2  A    between atoms: S_1  and  C_21
REMARK    3  A    between atoms: O_5  and  C_19
REMARK    4  A    between atoms: O_7  and  C_29
REMARK    5  A    between atoms: O_7  and  C_34
REMARK    6  A    between atoms: O_8  and  C_30
REMARK    7  A    between atoms: O_8  and  C_35
REMARK    8  A    between atoms: C_11  and  C_16
REMARK    9  A    between atoms: C_12  and  C_17
REMARK   10  A    between atoms: C_16  and  C_18
REMARK   11  A    between atoms: C_17  and  C_19
REMARK                            x       y       z     vdW  Elec       q    Type
REMARK                         _______ _______ _______ _____ _____    ______ ____
ROOT
ATOM      9  N   UNL     1       9.373   7.318   5.574  0.00  0.00    -0.176 NA
ATOM     11  C   UNL     1       8.349   7.955   3.401  0.00  0.00    +0.014 C 
ATOM     12  C   UNL     1       7.463   8.984   4.145  0.00  0.00    +0.006 C 
ATOM     13  C   UNL     1       8.707   6.795   4.343  0.00  0.00    +0.113 C 
ATOM     14  C   UNL     1       8.114   9.436   5.460  0.00  0.00    +0.021 C 
ATOM     15  C   UNL     1       8.490   8.245   6.336  0.00  0.00    +0.110 C 
ENDROOT
BRANCH   9   1
ATOM      1  S   UNL     1      10.194   6.146   6.517  0.00  0.00    +0.061 S 
ATOM      3  O   UNL     1       9.974   4.838   5.939  0.00  0.00    -0.153 OA
ATOM      4  O   UNL     1       9.927   6.398   7.917  0.00  0.00    -0.153 OA
BRANCH   1  21
ATOM      2  F   UNL     1      15.778   7.690   5.430  0.00  0.00    -0.205 F 
ATOM     21  C   UNL     1      11.867   6.607   6.192  0.00  0.00    +0.106 A 
ATOM     26  C   UNL     1      12.809   6.586   7.220  0.00  0.00    +0.031 A 
ATOM     27  C   UNL     1      12.246   6.995   4.906  0.00  0.00    +0.031 A 
ATOM     31  C   UNL     1      14.130   6.951   6.963  0.00  0.00    +0.040 A 
ATOM     32  C   UNL     1      13.567   7.360   4.650  0.00  0.00    +0.040 A 
ATOM     33  C   UNL     1      14.510   7.338   5.677  0.00  0.00    +0.124 A 
ENDBRANCH   1  21
ENDBRANCH   9   1
BRANCH  11  16
ATOM     16  C   UNL     1       9.618   8.555   2.780  0.00  0.00    +0.060 C 
BRANCH  16  18
ATOM     10  N   UNL     1       9.227   9.361   0.552  0.00  0.00    -0.287 NA
ATOM     18  C   UNL     1       9.597   8.362   1.283  0.00  0.00    +0.044 C 
ATOM     20  C   UNL     1       9.992   7.043   0.727  0.00  0.00    +0.003 A 
ATOM     22  C   UNL     1       9.601   6.771  -0.591  0.00  0.00    -0.033 A 
ATOM     23  C   UNL     1       8.809   7.805  -1.335  0.00  0.00    +0.059 C 
ATOM     24  C   UNL     1       9.265   9.192  -0.904  0.00  0.00    +0.146 C 
ATOM     25  C   UNL     1      10.707   6.095   1.463  0.00  0.00    +0.059 A 
ATOM     28  C   UNL     1       9.907   5.532  -1.160  0.00  0.00    +0.053 A 
ATOM     29  C   UNL     1      11.021   4.867   0.882  0.00  0.00    +0.162 A 
ATOM     30  C   UNL     1      10.621   4.584  -0.425  0.00  0.00    +0.162 A 
BRANCH  29   7
ATOM      7  O   UNL     1      11.721   3.946   1.603  0.00  0.00    -0.491 OA
ATOM     34  C   UNL     1      13.129   4.142   1.711  0.00  0.00    +0.277 C 
ENDBRANCH  29   7
BRANCH  30   8
ATOM      8  O   UNL     1      10.919   3.383  -0.993  0.00  0.00    -0.491 OA
ATOM     35  C   UNL     1      12.056   3.337  -1.852  0.00  0.00    +0.277 C 
ENDBRANCH  30   8
ENDBRANCH  16  18
ENDBRANCH  11  16
BRANCH  12  17
ATOM     17  C   UNL     1       7.091  10.190   3.284  0.00  0.00    +0.124 C 
BRANCH  17  19
ATOM      6  O   UNL     1       4.706   9.955   2.838  0.00  0.00    -0.251 OA
ATOM     19  C   UNL     1       5.865   9.923   2.454  0.00  0.00    +0.305 C 
BRANCH  19   5
ATOM      5  O   UNL     1       6.230   9.632   1.179  0.00  0.00    -0.481 OA
ATOM     36  H   UNL     1       7.071  10.071   0.931  0.00  0.00    +0.295 HD
ENDBRANCH  19   5
ENDBRANCH  17  19
ENDBRANCH  12  17
TORSDOF 9
ENDMDL
MODEL 7
REMARK VINA RESULT:      -6.3     28.227     30.477
REMARK  Name = 51136637
REMARK  11 active torsions:
REMARK  status: ('A' for Active; 'I' for Inactive)
REMARK    1  A    between atoms: S_1  and  N_9
REMARK    2  A    between atoms: S_1  and  C_21
REMARK    3  A    between atoms: O_5  and  C_19
REMARK    4  A    between atoms: O_7  and  C_29
REMARK    5  A    between atoms: O_7  and  C_34
REMARK    6  A    between atoms: O_8  and  C_30
REMARK    7  A    between atoms: O_8  and  C_35
REMARK    8  A    between atoms: C_11  and  C_16
REMARK    9  A    between atoms: C_12  and  C_17
REMARK   10  A    between atoms: C_16  and  C_18
REMARK   11  A    between atoms: C_17  and  C_19
REMARK                            x       y       z     vdW  Elec       q    Type
REMARK                         _______ _______ _______ _____ _____    ______ ____
ROOT
ATOM      9  N   UNL     1      -4.221 -11.675  14.353  0.00  0.00    -0.176 NA
ATOM     11  C   UNL     1      -5.949 -11.296  16.098  0.00  0.00    +0.014 C 
ATOM     12  C   UNL     1      -4.849 -11.407  17.181  0.00  0.00    +0.006 C 
ATOM     13  C   UNL     1      -5.552 -12.120  14.863  0.00  0.00    +0.113 C 
ATOM     14  C   UNL     1      -3.467 -11.045  16.616  0.00  0.00    +0.021 C 
ATOM     15  C   UNL     1      -3.144 -11.859  15.366  0.00  0.00    +0.110 C 
ENDROOT
BRANCH   9   1
ATOM      1  S   UNL     1      -3.832 -12.197  12.768  0.00  0.00    +0.061 S 
ATOM      3  O   UNL     1      -4.765 -13.228  12.369  0.00  0.00    -0.153 OA
ATOM      4  O   UNL     1      -2.403 -12.409  12.680  0.00  0.00    -0.153 OA
BRANCH   1  21
ATOM      2  F   UNL     1      -5.126  -7.314   9.729  0.00  0.00    -0.205 F 
ATOM     21  C   UNL     1      -4.220 -10.734  11.859  0.00  0.00    +0.106 A 
ATOM     26  C   UNL     1      -5.355  -9.991  12.183  0.00  0.00    +0.031 A 
ATOM     27  C   UNL     1      -3.391 -10.322  10.814  0.00  0.00    +0.031 A 
ATOM     31  C   UNL     1      -5.660  -8.835  11.464  0.00  0.00    +0.040 A 
ATOM     32  C   UNL     1      -3.698  -9.167  10.096  0.00  0.00    +0.040 A 
ATOM     33  C   UNL     1      -4.832  -8.423  10.421  0.00  0.00    +0.124 A 
ENDBRANCH   1  21
ENDBRANCH   9   1
BRANCH  11  16
ATOM     16  C   UNL     1      -6.288  -9.854  15.696  0.00  0.00    +0.060 C 
BRANCH  16  18
ATOM     10  N   UNL     1      -7.976  -9.172  17.263  0.00  0.00    -0.287 NA
ATOM     18  C   UNL     1      -7.722  -9.546  16.053  0.00  0.00    +0.044 C 
ATOM     20  C   UNL     1      -8.766  -9.693  15.006  0.00  0.00    +0.003 A 
ATOM     22  C   UNL     1     -10.093  -9.782  15.447  0.00  0.00    -0.033 A 
ATOM     23  C   UNL     1     -10.366  -9.739  16.921  0.00  0.00    +0.059 C 
ATOM     24  C   UNL     1      -9.359  -8.815  17.593  0.00  0.00    +0.146 C 
ATOM     25  C   UNL     1      -8.467  -9.758  13.644  0.00  0.00    +0.059 A 
ATOM     28  C   UNL     1     -11.119  -9.962  14.516  0.00  0.00    +0.053 A 
ATOM     29  C   UNL     1      -9.499  -9.922  12.720  0.00  0.00    +0.162 A 
ATOM     30  C   UNL     1     -10.822 -10.026  13.154  0.00  0.00    +0.162 A 
BRANCH  29   7
ATOM      7  O   UNL     1      -9.203  -9.981  11.391  0.00  0.00    -0.491 OA
ATOM     34  C   UNL     1      -8.707 -11.222  10.894  0.00  0.00    +0.277 C 
ENDBRANCH  29   7
BRANCH  30   8
ATOM      8  O   UNL     1     -11.832 -10.195  12.256  0.00  0.00    -0.491 OA
ATOM     35  C   UNL     1     -12.575  -9.033  11.891  0.00  0.00    +0.277 C 
ENDBRANCH  30   8
ENDBRANCH  16  18
ENDBRANCH  11  16
BRANCH  12  17
ATOM     17  C   UNL     1      -5.152 -10.584  18.433  0.00  0.00    +0.124 C 
BRANCH  17  19
ATOM      6  O   UNL     1      -6.457 -12.433  19.339  0.00  0.00    -0.251 OA
ATOM     19  C   UNL     1      -6.203 -11.239  19.287  0.00  0.00    +0.305 C 
BRANCH  19   5
ATOM      5  O   UNL     1      -6.853 -10.297  20.017  0.00  0.00    -0.481 OA
ATOM     36  H   UNL     1      -6.393 -10.108  20.862  0.00  0.00    +0.295 HD
ENDBRANCH  19   5
ENDBRANCH  17  19
ENDBRANCH  12  17
TORSDOF 9
ENDMDL
MODEL 8
REMARK VINA RESULT:      -6.2     31.431     35.189
REMARK  Name = 51136637
REMARK  11 active torsions:
REMARK  status: ('A' for Active; 'I' for Inactive)
REMARK    1  A    between atoms: S_1  and  N_9
REMARK    2  A    between atoms: S_1  and  C_21
REMARK    3  A    between atoms: O_5  and  C_19
REMARK    4  A    between atoms: O_7  and  C_29
REMARK    5  A    between atoms: O_7  and  C_34
REMARK    6  A    between atoms: O_8  and  C_30
REMARK    7  A    between atoms: O_8  and  C_35
REMARK    8  A    between atoms: C_11  and  C_16
REMARK    9  A    between atoms: C_12  and  C_17
REMARK   10  A    between atoms: C_16  and  C_18
REMARK   11  A    between atoms: C_17  and  C_19
REMARK                            x       y       z     vdW  Elec       q    Type
REMARK                         _______ _______ _______ _____ _____    ______ ____
ROOT
ATOM      9  N   UNL     1      -8.265  -5.980  41.038  0.00  0.00    -0.176 NA
ATOM     11  C   UNL     1      -6.738  -7.148  39.463  0.00  0.00    +0.014 C 
ATOM     12  C   UNL     1      -5.550  -6.355  40.061  0.00  0.00    +0.006 C 
ATOM     13  C   UNL     1      -8.034  -6.334  39.605  0.00  0.00    +0.113 C 
ATOM     14  C   UNL     1      -5.843  -5.908  41.500  0.00  0.00    +0.021 C 
ATOM     15  C   UNL     1      -7.161  -5.146  41.592  0.00  0.00    +0.110 C 
ENDROOT
BRANCH   9   1
ATOM      1  S   UNL     1      -9.849  -5.444  41.414  0.00  0.00    +0.061 S 
ATOM      3  O   UNL     1      -9.899  -5.065  42.809  0.00  0.00    -0.153 OA
ATOM      4  O   UNL     1     -10.804  -6.379  40.859  0.00  0.00    -0.153 OA
BRANCH   1  21
ATOM      2  F   UNL     1     -10.053  -0.512  38.192  0.00  0.00    -0.205 F 
ATOM     21  C   UNL     1      -9.911  -3.968  40.449  0.00  0.00    +0.106 A 
ATOM     26  C   UNL     1     -10.665  -3.932  39.276  0.00  0.00    +0.031 A 
ATOM     27  C   UNL     1      -9.205  -2.836  40.860  0.00  0.00    +0.031 A 
ATOM     31  C   UNL     1     -10.713  -2.764  38.514  0.00  0.00    +0.040 A 
ATOM     32  C   UNL     1      -9.254  -1.670  40.097  0.00  0.00    +0.040 A 
ATOM     33  C   UNL     1     -10.008  -1.633  38.924  0.00  0.00    +0.124 A 
ENDBRANCH   1  21
ENDBRANCH   9   1
BRANCH  11  16
ATOM     16  C   UNL     1      -6.916  -8.551  40.057  0.00  0.00    +0.060 C 
BRANCH  16  18
ATOM     10  N   UNL     1      -6.221 -10.097  38.356  0.00  0.00    -0.287 NA
ATOM     18  C   UNL     1      -7.219  -9.539  38.956  0.00  0.00    +0.044 C 
ATOM     20  C   UNL     1      -8.638  -9.815  38.615  0.00  0.00    +0.003 A 
ATOM     22  C   UNL     1      -8.883 -10.413  37.371  0.00  0.00    -0.033 A 
ATOM     23  C   UNL     1      -7.718 -10.716  36.477  0.00  0.00    +0.059 C 
ATOM     24  C   UNL     1      -6.516 -11.101  37.328  0.00  0.00    +0.146 C 
ATOM     25  C   UNL     1      -9.697  -9.492  39.466  0.00  0.00    +0.059 A 
ATOM     28  C   UNL     1     -10.199 -10.663  36.973  0.00  0.00    +0.053 A 
ATOM     29  C   UNL     1     -11.006  -9.759  39.066  0.00  0.00    +0.162 A 
ATOM     30  C   UNL     1     -11.258 -10.340  37.822  0.00  0.00    +0.162 A 
BRANCH  29   7
ATOM      7  O   UNL     1     -12.037  -9.444  39.900  0.00  0.00    -0.491 OA
ATOM     34  C   UNL     1     -12.290 -10.337  40.982  0.00  0.00    +0.277 C 
ENDBRANCH  29   7
BRANCH  30   8
ATOM      8  O   UNL     1     -12.535 -10.595  37.424  0.00  0.00    -0.491 OA
ATOM     35  C   UNL     1     -12.739 -10.875  36.041  0.00  0.00    +0.277 C 
ENDBRANCH  30   8
ENDBRANCH  16  18
ENDBRANCH  11  16
BRANCH  12  17
ATOM     17  C   UNL     1      -4.225  -7.113  39.990  0.00  0.00    +0.124 C 
BRANCH  17  19
ATOM      6  O   UNL     1      -2.051  -6.079  40.373  0.00  0.00    -0.251 OA
ATOM     19  C   UNL     1      -3.071  -6.189  39.710  0.00  0.00    +0.305 C 
BRANCH  19   5
ATOM      5  O   UNL     1      -3.322  -5.469  38.586  0.00  0.00    -0.481 OA
ATOM     36  H   UNL     1      -4.139  -5.771  38.135  0.00  0.00    +0.295 HD
ENDBRANCH  19   5
ENDBRANCH  17  19
ENDBRANCH  12  17
TORSDOF 9
ENDMDL
MODEL 9
REMARK VINA RESULT:      -6.1     24.536     27.861
REMARK  Name = 51136637
REMARK  11 active torsions:
REMARK  status: ('A' for Active; 'I' for Inactive)
REMARK    1  A    between atoms: S_1  and  N_9
REMARK    2  A    between atoms: S_1  and  C_21
REMARK    3  A    between atoms: O_5  and  C_19
REMARK    4  A    between atoms: O_7  and  C_29
REMARK    5  A    between atoms: O_7  and  C_34
REMARK    6  A    between atoms: O_8  and  C_30
REMARK    7  A    between atoms: O_8  and  C_35
REMARK    8  A    between atoms: C_11  and  C_16
REMARK    9  A    between atoms: C_12  and  C_17
REMARK   10  A    between atoms: C_16  and  C_18
REMARK   11  A    between atoms: C_17  and  C_19
REMARK                            x       y       z     vdW  Elec       q    Type
REMARK                         _______ _______ _______ _____ _____    ______ ____
ROOT
ATOM      9  N   UNL     1     -14.042  10.218  22.985  0.00  0.00    -0.176 NA
ATOM     11  C   UNL     1     -13.083   8.548  21.414  0.00  0.00    +0.014 C 
ATOM     12  C   UNL     1     -13.987   7.463  22.050  0.00  0.00    +0.006 C 
ATOM     13  C   UNL     1     -12.773   9.642  22.448  0.00  0.00    +0.113 C 
ATOM     14  C   UNL     1     -15.239   8.081  22.689  0.00  0.00    +0.021 C 
ATOM     15  C   UNL     1     -14.877   9.191  23.671  0.00  0.00    +0.110 C 
ENDROOT
BRANCH   9   1
ATOM      1  S   UNL     1     -13.876  11.704  23.821  0.00  0.00    +0.061 S 
ATOM      3  O   UNL     1     -15.189  12.184  24.195  0.00  0.00    -0.153 OA
ATOM      4  O   UNL     1     -12.951  12.550  23.095  0.00  0.00    -0.153 OA
BRANCH   1  21
ATOM      2  F   UNL     1     -11.164   9.840  28.711  0.00  0.00    -0.205 F 
ATOM     21  C   UNL     1     -13.065  11.145  25.285  0.00  0.00    +0.106 A 
ATOM     26  C   UNL     1     -13.804  10.902  26.443  0.00  0.00    +0.031 A 
ATOM     27  C   UNL     1     -11.683  10.948  25.285  0.00  0.00    +0.031 A 
ATOM     31  C   UNL     1     -13.162  10.461  27.600  0.00  0.00    +0.040 A 
ATOM     32  C   UNL     1     -11.043  10.507  26.442  0.00  0.00    +0.040 A 
ATOM     33  C   UNL     1     -11.781  10.262  27.600  0.00  0.00    +0.124 A 
ENDBRANCH   1  21
ENDBRANCH   9   1
BRANCH  11  16
ATOM     16  C   UNL     1     -13.656   9.166  20.132  0.00  0.00    +0.060 C 
BRANCH  16  18
ATOM     10  N   UNL     1     -12.269   8.122  18.473  0.00  0.00    -0.287 NA
ATOM     18  C   UNL     1     -12.586   9.224  19.069  0.00  0.00    +0.044 C 
ATOM     20  C   UNL     1     -11.950  10.531  18.765  0.00  0.00    +0.003 A 
ATOM     22  C   UNL     1     -10.727  10.494  18.080  0.00  0.00    -0.033 A 
ATOM     23  C   UNL     1     -10.145   9.159  17.719  0.00  0.00    +0.059 C 
ATOM     24  C   UNL     1     -11.273   8.189  17.398  0.00  0.00    +0.146 C 
ATOM     25  C   UNL     1     -12.512  11.752  19.144  0.00  0.00    +0.059 A 
ATOM     28  C   UNL     1     -10.057  11.687  17.799  0.00  0.00    +0.053 A 
ATOM     29  C   UNL     1     -11.843  12.939  18.845  0.00  0.00    +0.162 A 
ATOM     30  C   UNL     1     -10.618  12.908  18.178  0.00  0.00    +0.162 A 
BRANCH  29   7
ATOM      7  O   UNL     1     -12.396  14.129  19.215  0.00  0.00    -0.491 OA
ATOM     34  C   UNL     1     -13.488  14.606  18.432  0.00  0.00    +0.277 C 
ENDBRANCH  29   7
BRANCH  30   8
ATOM      8  O   UNL     1      -9.958  14.064  17.892  0.00  0.00    -0.491 OA
ATOM     35  C   UNL     1      -8.677  13.944  17.277  0.00  0.00    +0.277 C 
ENDBRANCH  30   8
ENDBRANCH  16  18
ENDBRANCH  11  16
BRANCH  12  17
ATOM     17  C   UNL     1     -14.372   6.353  21.073  0.00  0.00    +0.124 C 
BRANCH  17  19
ATOM      6  O   UNL     1     -15.591   4.447  21.980  0.00  0.00    -0.251 OA
ATOM     19  C   UNL     1     -14.539   5.032  21.771  0.00  0.00    +0.305 C 
BRANCH  19   5
ATOM      5  O   UNL     1     -13.324   4.558  22.153  0.00  0.00    -0.481 OA
ATOM     36  H   UNL     1     -13.024   3.821  21.581  0.00  0.00    +0.295 HD
ENDBRANCH  19   5
ENDBRANCH  17  19
ENDBRANCH  12  17
TORSDOF 9
ENDMDL
MODEL 10
REMARK VINA RESULT:      -6.1     13.256     17.542
REMARK  Name = 51136637
REMARK  11 active torsions:
REMARK  status: ('A' for Active; 'I' for Inactive)
REMARK    1  A    between atoms: S_1  and  N_9
REMARK    2  A    between atoms: S_1  and  C_21
REMARK    3  A    between atoms: O_5  and  C_19
REMARK    4  A    between atoms: O_7  and  C_29
REMARK    5  A    between atoms: O_7  and  C_34
REMARK    6  A    between atoms: O_8  and  C_30
REMARK    7  A    between atoms: O_8  and  C_35
REMARK    8  A    between atoms: C_11  and  C_16
REMARK    9  A    between atoms: C_12  and  C_17
REMARK   10  A    between atoms: C_16  and  C_18
REMARK   11  A    between atoms: C_17  and  C_19
REMARK                            x       y       z     vdW  Elec       q    Type
REMARK                         _______ _______ _______ _____ _____    ______ ____
ROOT
ATOM      9  N   UNL     1       9.281   8.600   5.883  0.00  0.00    -0.176 NA
ATOM     11  C   UNL     1      10.735   7.192   7.325  0.00  0.00    +0.014 C 
ATOM     12  C   UNL     1       9.467   6.541   7.929  0.00  0.00    +0.006 C 
ATOM     13  C   UNL     1      10.415   8.620   6.855  0.00  0.00    +0.113 C 
ATOM     14  C   UNL     1       8.280   6.619   6.959  0.00  0.00    +0.021 C 
ATOM     15  C   UNL     1       8.036   8.049   6.488  0.00  0.00    +0.110 C 
ENDROOT
BRANCH   9   1
ATOM      1  S   UNL     1       9.078  10.033   4.965  0.00  0.00    +0.061 S 
ATOM      3  O   UNL     1      10.027  11.024   5.422  0.00  0.00    -0.153 OA
ATOM      4  O   UNL     1       7.666  10.337   4.875  0.00  0.00    -0.153 OA
BRANCH   1  21
ATOM      2  F   UNL     1      10.864   8.125  -0.319  0.00  0.00    -0.205 F 
ATOM     21  C   UNL     1       9.611   9.461   3.382  0.00  0.00    +0.106 A 
ATOM     26  C   UNL     1       8.976   8.374   2.782  0.00  0.00    +0.031 A 
ATOM     27  C   UNL     1      10.670  10.097   2.732  0.00  0.00    +0.031 A 
ATOM     31  C   UNL     1       9.399   7.923   1.531  0.00  0.00    +0.040 A 
ATOM     32  C   UNL     1      11.092   9.645   1.482  0.00  0.00    +0.040 A 
ATOM     33  C   UNL     1      10.456   8.559   0.881  0.00  0.00    +0.124 A 
ENDBRANCH   1  21
ENDBRANCH   9   1
BRANCH  11  16
ATOM     16  C   UNL     1      11.374   6.383   6.190  0.00  0.00    +0.060 C 
BRANCH  16  18
ATOM     10  N   UNL     1      13.424   7.522   6.706  0.00  0.00    -0.287 NA
ATOM     18  C   UNL     1      12.679   7.020   5.778  0.00  0.00    +0.044 C 
ATOM     20  C   UNL     1      13.039   7.044   4.337  0.00  0.00    +0.003 A 
ATOM     22  C   UNL     1      14.030   7.956   3.950  0.00  0.00    -0.033 A 
ATOM     23  C   UNL     1      14.640   8.843   4.994  0.00  0.00    +0.059 C 
ATOM     24  C   UNL     1      14.719   8.086   6.313  0.00  0.00    +0.146 C 
ATOM     25  C   UNL     1      12.427   6.219   3.391  0.00  0.00    +0.059 A 
ATOM     28  C   UNL     1      14.386   8.057   2.602  0.00  0.00    +0.053 A 
ATOM     29  C   UNL     1      12.801   6.316   2.050  0.00  0.00    +0.162 A 
ATOM     30  C   UNL     1      13.775   7.234   1.656  0.00  0.00    +0.162 A 
BRANCH  29   7
ATOM      7  O   UNL     1      12.202   5.508   1.130  0.00  0.00    -0.491 OA
ATOM     34  C   UNL     1      12.640   4.152   1.077  0.00  0.00    +0.277 C 
ENDBRANCH  29   7
BRANCH  30   8
ATOM      8  O   UNL     1      14.137   7.338   0.347  0.00  0.00    -0.491 OA
ATOM     35  C   UNL     1      15.452   6.908   0.002  0.00  0.00    +0.277 C 
ENDBRANCH  30   8
ENDBRANCH  16  18
ENDBRANCH  11  16
BRANCH  12  17
ATOM     17  C   UNL     1       9.693   5.101   8.391  0.00  0.00    +0.124 C 
BRANCH  17  19
ATOM      6  O   UNL     1      10.528   4.892  10.672  0.00  0.00    -0.251 OA
ATOM     19  C   UNL     1       9.596   4.976   9.887  0.00  0.00    +0.305 C 
BRANCH  19   5
ATOM      5  O   UNL     1       8.290   4.968  10.261  0.00  0.00    -0.481 OA
ATOM     36  H   UNL     1       8.061   5.753  10.803  0.00  0.00    +0.295 HD
ENDBRANCH  19   5
ENDBRANCH  17  19
ENDBRANCH  12  17
TORSDOF 9
ENDMDL
