MODEL 1
REMARK VINA RESULT:      -6.7      0.000      0.000
REMARK  Name = 28963185
REMARK  10 active torsions:
REMARK  status: ('A' for Active; 'I' for Inactive)
REMARK    1  A    between atoms: S_1  and  N_6
REMARK    2  A    between atoms: S_1  and  C_24
REMARK    3  A    between atoms: O_2  and  C_11
REMARK    4  A    between atoms: N_6  and  C_15
REMARK    5  A    between atoms: N_7  and  C_23
REMARK    6  A    between atoms: C_8  and  C_18
REMARK    7  A    between atoms: C_10  and  C_20
REMARK    8  A    between atoms: C_13  and  C_19
REMARK    9  A    between atoms: C_19  and  C_21
REMARK   10  A    between atoms: C_19  and  C_22
REMARK                            x       y       z     vdW  Elec       q    Type
REMARK                         _______ _______ _______ _____ _____    ______ ____
ROOT
ATOM      8  C   UNL     1      14.210  12.138  20.019  0.00  0.00    -0.027 C 
ATOM      9  C   UNL     1      12.952  11.238  20.261  0.00  0.00    +0.028 C 
ATOM     10  C   UNL     1      12.797  10.891  21.786  0.00  0.00    +0.011 C 
ATOM     11  C   UNL     1      12.937  10.020  19.293  0.00  0.00    +0.122 C 
ATOM     12  C   UNL     1      14.269  12.553  18.530  0.00  0.00    +0.007 C 
ATOM     13  C   UNL     1      13.103  10.434  17.812  0.00  0.00    +0.029 C 
ATOM     14  C   UNL     1      14.076  13.429  20.861  0.00  0.00    +0.008 C 
ATOM     15  C   UNL     1      12.740  12.196  22.625  0.00  0.00    +0.079 C 
ATOM     16  C   UNL     1      14.295  11.362  17.582  0.00  0.00    +0.007 C 
ATOM     17  C   UNL     1      13.897  13.155  22.348  0.00  0.00    +0.021 C 
ATOM     18  C   UNL     1      15.533  11.422  20.390  0.00  0.00    +0.011 C 
ATOM     20  C   UNL     1      11.563  10.028  22.096  0.00  0.00    +0.009 C 
ENDROOT
BRANCH  11   2
ATOM      2  O   UNL     1      11.678   9.350  19.389  0.00  0.00    -0.391 OA
ATOM     31  H   UNL     1      11.046   9.809  18.809  0.00  0.00    +0.210 HD
ENDBRANCH  11   2
BRANCH  15   6
ATOM      6  N   UNL     1      12.777  11.886  24.080  0.00  0.00    -0.191 NA
ATOM     30  H   UNL     1      13.669  11.580  24.484  0.00  0.00    +0.148 HD
BRANCH   6   1
ATOM      1  S   UNL     1      11.514  12.450  25.069  0.00  0.00    +0.027 S 
ATOM      4  O   UNL     1      12.001  13.489  25.957  0.00  0.00    -0.158 OA
ATOM      5  O   UNL     1      10.804  11.299  25.594  0.00  0.00    -0.158 OA
ATOM     24  C   UNL     1      10.461  13.216  23.858  0.00  0.00    +0.214 C 
ENDBRANCH   6   1
ENDBRANCH  15   6
BRANCH  13  19
ATOM     19  C   UNL     1      13.218   9.214  16.890  0.00  0.00    +0.077 C 
ATOM     21  C   UNL     1      12.066   9.201  15.891  0.00  0.00    +0.017 C 
BRANCH  19  22
ATOM      3  O   UNL     1      12.322   7.130  17.735  0.00  0.00    -0.276 OA
ATOM      7  N   UNL     1      14.426   7.799  18.442  0.00  0.00    -0.312 N 
ATOM     22  C   UNL     1      13.249   7.935  17.720  0.00  0.00    +0.216 C 
ATOM     32  H   UNL     1      15.149   8.504  18.355  0.00  0.00    +0.149 HD
BRANCH   7  23
ATOM     23  C   UNL     1      14.687   6.668  19.305  0.00  0.00    +0.073 C 
ATOM     25  C   UNL     1      16.181   6.325  19.326  0.00  0.00    +0.022 C 
ATOM     26  C   UNL     1      14.157   6.921  20.720  0.00  0.00    +0.022 C 
ATOM     27  C   UNL     1      17.009   7.359  20.089  0.00  0.00    +0.002 C 
ATOM     28  C   UNL     1      14.988   7.954  21.481  0.00  0.00    +0.002 C 
ATOM     29  C   UNL     1      16.467   7.585  21.498  0.00  0.00    +0.000 C 
ENDBRANCH   7  23
ENDBRANCH  19  22
ENDBRANCH  13  19
TORSDOF 6
ENDMDL
MODEL 2
REMARK VINA RESULT:      -6.5     25.519     27.757
REMARK  Name = 28963185
REMARK  10 active torsions:
REMARK  status: ('A' for Active; 'I' for Inactive)
REMARK    1  A    between atoms: S_1  and  N_6
REMARK    2  A    between atoms: S_1  and  C_24
REMARK    3  A    between atoms: O_2  and  C_11
REMARK    4  A    between atoms: N_6  and  C_15
REMARK    5  A    between atoms: N_7  and  C_23
REMARK    6  A    between atoms: C_8  and  C_18
REMARK    7  A    between atoms: C_10  and  C_20
REMARK    8  A    between atoms: C_13  and  C_19
REMARK    9  A    between atoms: C_19  and  C_21
REMARK   10  A    between atoms: C_19  and  C_22
REMARK                            x       y       z     vdW  Elec       q    Type
REMARK                         _______ _______ _______ _____ _____    ______ ____
ROOT
ATOM      8  C   UNL     1     -15.337   7.447  20.167  0.00  0.00    -0.027 C 
ATOM      9  C   UNL     1     -14.246   6.538  20.826  0.00  0.00    +0.028 C 
ATOM     10  C   UNL     1     -14.732   6.001  22.222  0.00  0.00    +0.011 C 
ATOM     11  C   UNL     1     -12.856   7.237  20.826  0.00  0.00    +0.122 C 
ATOM     12  C   UNL     1     -14.875   7.865  18.752  0.00  0.00    +0.007 C 
ATOM     13  C   UNL     1     -12.446   7.748  19.425  0.00  0.00    +0.029 C 
ATOM     14  C   UNL     1     -16.645   6.634  20.013  0.00  0.00    +0.008 C 
ATOM     15  C   UNL     1     -16.084   5.253  22.062  0.00  0.00    +0.079 C 
ATOM     16  C   UNL     1     -13.534   8.585  18.754  0.00  0.00    +0.007 C 
ATOM     17  C   UNL     1     -17.152   6.066  21.331  0.00  0.00    +0.021 C 
ATOM     18  C   UNL     1     -15.625   8.724  20.996  0.00  0.00    +0.011 C 
ATOM     20  C   UNL     1     -13.715   5.078  22.912  0.00  0.00    +0.009 C 
ENDROOT
BRANCH  11   2
ATOM      2  O   UNL     1     -11.852   6.302  21.228  0.00  0.00    -0.391 OA
ATOM     31  H   UNL     1     -12.043   6.026  22.140  0.00  0.00    +0.210 HD
ENDBRANCH  11   2
BRANCH  15   6
ATOM      6  N   UNL     1     -16.647   4.898  23.392  0.00  0.00    -0.191 NA
ATOM     30  H   UNL     1     -17.035   5.654  23.967  0.00  0.00    +0.148 HD
BRANCH   6   1
ATOM      1  S   UNL     1     -17.020   3.271  23.715  0.00  0.00    +0.027 S 
ATOM      4  O   UNL     1     -16.536   2.425  22.641  0.00  0.00    -0.158 OA
ATOM      5  O   UNL     1     -18.403   3.202  24.146  0.00  0.00    -0.158 OA
ATOM     24  C   UNL     1     -16.004   2.975  25.144  0.00  0.00    +0.214 C 
ENDBRANCH   6   1
ENDBRANCH  15   6
BRANCH  13  19
ATOM     19  C   UNL     1     -11.139   8.548  19.471  0.00  0.00    +0.077 C 
ATOM     21  C   UNL     1     -11.339   9.837  20.260  0.00  0.00    +0.017 C 
BRANCH  19  22
ATOM      3  O   UNL     1     -10.413   7.944  17.241  0.00  0.00    -0.276 OA
ATOM      7  N   UNL     1     -10.520  10.191  17.801  0.00  0.00    -0.312 N 
ATOM     22  C   UNL     1     -10.654   8.834  18.053  0.00  0.00    +0.216 C 
ATOM     32  H   UNL     1     -10.761  10.859  18.525  0.00  0.00    +0.149 HD
BRANCH   7  23
ATOM     23  C   UNL     1     -10.073  10.710  16.527  0.00  0.00    +0.073 C 
ATOM     25  C   UNL     1     -11.239  10.825  15.540  0.00  0.00    +0.022 C 
ATOM     26  C   UNL     1      -9.357  12.054  16.700  0.00  0.00    +0.022 C 
ATOM     27  C   UNL     1     -12.198  11.961  15.896  0.00  0.00    +0.002 C 
ATOM     28  C   UNL     1     -10.320  13.188  17.055  0.00  0.00    +0.002 C 
ATOM     29  C   UNL     1     -11.464  13.290  16.052  0.00  0.00    +0.000 C 
ENDBRANCH   7  23
ENDBRANCH  19  22
ENDBRANCH  13  19
TORSDOF 6
ENDMDL
MODEL 3
REMARK VINA RESULT:      -6.5     27.549     29.839
REMARK  Name = 28963185
REMARK  10 active torsions:
REMARK  status: ('A' for Active; 'I' for Inactive)
REMARK    1  A    between atoms: S_1  and  N_6
REMARK    2  A    between atoms: S_1  and  C_24
REMARK    3  A    between atoms: O_2  and  C_11
REMARK    4  A    between atoms: N_6  and  C_15
REMARK    5  A    between atoms: N_7  and  C_23
REMARK    6  A    between atoms: C_8  and  C_18
REMARK    7  A    between atoms: C_10  and  C_20
REMARK    8  A    between atoms: C_13  and  C_19
REMARK    9  A    between atoms: C_19  and  C_21
REMARK   10  A    between atoms: C_19  and  C_22
REMARK                            x       y       z     vdW  Elec       q    Type
REMARK                         _______ _______ _______ _____ _____    ______ ____
ROOT
ATOM      8  C   UNL     1      -3.730 -10.585  10.470  0.00  0.00    -0.027 C 
ATOM      9  C   UNL     1      -5.084 -10.282  11.195  0.00  0.00    +0.028 C 
ATOM     10  C   UNL     1      -5.887  -9.163  10.436  0.00  0.00    +0.011 C 
ATOM     11  C   UNL     1      -4.866 -10.034  12.715  0.00  0.00    +0.122 C 
ATOM     12  C   UNL     1      -3.019 -11.764  11.175  0.00  0.00    +0.007 C 
ATOM     13  C   UNL     1      -4.061 -11.167  13.394  0.00  0.00    +0.029 C 
ATOM     14  C   UNL     1      -4.023 -11.017   9.013  0.00  0.00    +0.008 C 
ATOM     15  C   UNL     1      -6.107  -9.578   8.956  0.00  0.00    +0.079 C 
ATOM     16  C   UNL     1      -2.768 -11.507  12.654  0.00  0.00    +0.007 C 
ATOM     17  C   UNL     1      -4.823  -9.982   8.235  0.00  0.00    +0.021 C 
ATOM     18  C   UNL     1      -2.777  -9.363  10.458  0.00  0.00    +0.011 C 
ATOM     20  C   UNL     1      -7.243  -8.836  11.084  0.00  0.00    +0.009 C 
ENDROOT
BRANCH  11   2
ATOM      2  O   UNL     1      -6.131  -9.981  13.377  0.00  0.00    -0.391 OA
ATOM     31  H   UNL     1      -6.199  -9.124  13.832  0.00  0.00    +0.210 HD
ENDBRANCH  11   2
BRANCH  15   6
ATOM      6  N   UNL     1      -6.704  -8.457   8.180  0.00  0.00    -0.191 NA
ATOM     30  H   UNL     1      -6.258  -7.536   8.248  0.00  0.00    +0.148 HD
BRANCH   6   1
ATOM      1  S   UNL     1      -7.784  -8.819   6.919  0.00  0.00    +0.027 S 
ATOM      4  O   UNL     1      -8.783  -9.767   7.373  0.00  0.00    -0.158 OA
ATOM      5  O   UNL     1      -7.008  -9.077   5.721  0.00  0.00    -0.158 OA
ATOM     24  C   UNL     1      -8.583  -7.244   6.704  0.00  0.00    +0.214 C 
ENDBRANCH   6   1
ENDBRANCH  15   6
BRANCH  13  19
ATOM     19  C   UNL     1      -3.743 -10.841  14.858  0.00  0.00    +0.077 C 
ATOM     21  C   UNL     1      -2.245 -10.618  15.033  0.00  0.00    +0.017 C 
BRANCH  19  22
ATOM      3  O   UNL     1      -4.185 -13.148  15.448  0.00  0.00    -0.276 OA
ATOM      7  N   UNL     1      -4.775 -11.486  16.954  0.00  0.00    -0.312 N 
ATOM     22  C   UNL     1      -4.248 -11.962  15.762  0.00  0.00    +0.216 C 
ATOM     32  H   UNL     1      -4.769 -10.489  17.139  0.00  0.00    +0.149 HD
BRANCH   7  23
ATOM     23  C   UNL     1      -5.318 -12.358  17.972  0.00  0.00    +0.073 C 
ATOM     25  C   UNL     1      -5.185 -11.729  19.363  0.00  0.00    +0.022 C 
ATOM     26  C   UNL     1      -6.774 -12.724  17.665  0.00  0.00    +0.022 C 
ATOM     27  C   UNL     1      -6.143 -10.556  19.569  0.00  0.00    +0.002 C 
ATOM     28  C   UNL     1      -7.729 -11.548  17.874  0.00  0.00    +0.002 C 
ATOM     29  C   UNL     1      -7.587 -10.947  19.268  0.00  0.00    +0.000 C 
ENDBRANCH   7  23
ENDBRANCH  19  22
ENDBRANCH  13  19
TORSDOF 6
ENDMDL
MODEL 4
REMARK VINA RESULT:      -6.5     27.558     29.193
REMARK  Name = 28963185
REMARK  10 active torsions:
REMARK  status: ('A' for Active; 'I' for Inactive)
REMARK    1  A    between atoms: S_1  and  N_6
REMARK    2  A    between atoms: S_1  and  C_24
REMARK    3  A    between atoms: O_2  and  C_11
REMARK    4  A    between atoms: N_6  and  C_15
REMARK    5  A    between atoms: N_7  and  C_23
REMARK    6  A    between atoms: C_8  and  C_18
REMARK    7  A    between atoms: C_10  and  C_20
REMARK    8  A    between atoms: C_13  and  C_19
REMARK    9  A    between atoms: C_19  and  C_21
REMARK   10  A    between atoms: C_19  and  C_22
REMARK                            x       y       z     vdW  Elec       q    Type
REMARK                         _______ _______ _______ _____ _____    ______ ____
ROOT
ATOM      8  C   UNL     1      -4.764 -11.074  16.748  0.00  0.00    -0.027 C 
ATOM      9  C   UNL     1      -5.658 -10.591  15.557  0.00  0.00    +0.028 C 
ATOM     10  C   UNL     1      -7.178 -10.867  15.850  0.00  0.00    +0.011 C 
ATOM     11  C   UNL     1      -5.129 -11.135  14.199  0.00  0.00    +0.122 C 
ATOM     12  C   UNL     1      -3.291 -10.687  16.478  0.00  0.00    +0.007 C 
ATOM     13  C   UNL     1      -3.627 -10.837  13.982  0.00  0.00    +0.029 C 
ATOM     14  C   UNL     1      -5.210 -10.350  18.040  0.00  0.00    +0.008 C 
ATOM     15  C   UNL     1      -7.591 -10.197  17.189  0.00  0.00    +0.079 C 
ATOM     16  C   UNL     1      -2.758 -11.253  15.169  0.00  0.00    +0.007 C 
ATOM     17  C   UNL     1      -6.683 -10.560  18.363  0.00  0.00    +0.021 C 
ATOM     18  C   UNL     1      -4.845 -12.606  16.967  0.00  0.00    +0.011 C 
ATOM     20  C   UNL     1      -8.114 -10.390  14.728  0.00  0.00    +0.009 C 
ENDROOT
BRANCH  11   2
ATOM      2  O   UNL     1      -5.828 -10.501  13.126  0.00  0.00    -0.391 OA
ATOM     31  H   UNL     1      -5.630 -10.987  12.307  0.00  0.00    +0.210 HD
ENDBRANCH  11   2
BRANCH  15   6
ATOM      6  N   UNL     1      -8.972 -10.598  17.572  0.00  0.00    -0.191 NA
ATOM     30  H   UNL     1      -9.115 -11.551  17.924  0.00  0.00    +0.148 HD
BRANCH   6   1
ATOM      1  S   UNL     1     -10.136  -9.385  17.824  0.00  0.00    +0.027 S 
ATOM      4  O   UNL     1      -9.577  -8.084  17.511  0.00  0.00    -0.158 OA
ATOM      5  O   UNL     1     -10.772  -9.631  19.104  0.00  0.00    -0.158 OA
ATOM     24  C   UNL     1     -11.318  -9.792  16.559  0.00  0.00    +0.214 C 
ENDBRANCH   6   1
ENDBRANCH  15   6
BRANCH  13  19
ATOM     19  C   UNL     1      -3.095 -11.495  12.703  0.00  0.00    +0.077 C 
ATOM     21  C   UNL     1      -1.796 -12.238  12.995  0.00  0.00    +0.017 C 
BRANCH  19  22
ATOM      3  O   UNL     1      -1.836  -9.854  11.445  0.00  0.00    -0.276 OA
ATOM      7  N   UNL     1      -4.050 -10.230  10.870  0.00  0.00    -0.312 N 
ATOM     22  C   UNL     1      -2.901 -10.440  11.618  0.00  0.00    +0.216 C 
ATOM     32  H   UNL     1      -4.882 -10.774  11.070  0.00  0.00    +0.149 HD
BRANCH   7  23
ATOM     23  C   UNL     1      -4.113  -9.276   9.785  0.00  0.00    +0.073 C 
ATOM     25  C   UNL     1      -4.429  -9.972   8.457  0.00  0.00    +0.022 C 
ATOM     26  C   UNL     1      -5.127  -8.167  10.084  0.00  0.00    +0.022 C 
ATOM     27  C   UNL     1      -5.875 -10.461   8.381  0.00  0.00    +0.002 C 
ATOM     28  C   UNL     1      -6.573  -8.659  10.006  0.00  0.00    +0.002 C 
ATOM     29  C   UNL     1      -6.865  -9.338   8.673  0.00  0.00    +0.000 C 
ENDBRANCH   7  23
ENDBRANCH  19  22
ENDBRANCH  13  19
TORSDOF 6
ENDMDL
MODEL 5
REMARK VINA RESULT:      -6.4      4.202      6.593
REMARK  Name = 28963185
REMARK  10 active torsions:
REMARK  status: ('A' for Active; 'I' for Inactive)
REMARK    1  A    between atoms: S_1  and  N_6
REMARK    2  A    between atoms: S_1  and  C_24
REMARK    3  A    between atoms: O_2  and  C_11
REMARK    4  A    between atoms: N_6  and  C_15
REMARK    5  A    between atoms: N_7  and  C_23
REMARK    6  A    between atoms: C_8  and  C_18
REMARK    7  A    between atoms: C_10  and  C_20
REMARK    8  A    between atoms: C_13  and  C_19
REMARK    9  A    between atoms: C_19  and  C_21
REMARK   10  A    between atoms: C_19  and  C_22
REMARK                            x       y       z     vdW  Elec       q    Type
REMARK                         _______ _______ _______ _____ _____    ______ ____
ROOT
ATOM      8  C   UNL     1      15.973   7.147  19.752  0.00  0.00    -0.027 C 
ATOM      9  C   UNL     1      16.201   8.695  19.709  0.00  0.00    +0.028 C 
ATOM     10  C   UNL     1      16.843   9.204  21.051  0.00  0.00    +0.011 C 
ATOM     11  C   UNL     1      14.912   9.442  19.260  0.00  0.00    +0.122 C 
ATOM     12  C   UNL     1      15.447   6.665  18.379  0.00  0.00    +0.007 C 
ATOM     13  C   UNL     1      14.330   8.884  17.940  0.00  0.00    +0.029 C 
ATOM     14  C   UNL     1      17.328   6.445  20.008  0.00  0.00    +0.008 C 
ATOM     15  C   UNL     1      18.163   8.436  21.333  0.00  0.00    +0.079 C 
ATOM     16  C   UNL     1      14.164   7.365  17.956  0.00  0.00    +0.007 C 
ATOM     17  C   UNL     1      18.011   6.916  21.284  0.00  0.00    +0.021 C 
ATOM     18  C   UNL     1      14.964   6.726  20.849  0.00  0.00    +0.011 C 
ATOM     20  C   UNL     1      17.118  10.716  21.065  0.00  0.00    +0.009 C 
ENDROOT
BRANCH  11   2
ATOM      2  O   UNL     1      15.216  10.818  19.020  0.00  0.00    -0.391 OA
ATOM     31  H   UNL     1      14.734  11.352  19.674  0.00  0.00    +0.210 HD
ENDBRANCH  11   2
BRANCH  15   6
ATOM      6  N   UNL     1      18.688   8.773  22.684  0.00  0.00    -0.191 NA
ATOM     30  H   UNL     1      18.106   8.542  23.497  0.00  0.00    +0.148 HD
BRANCH   6   1
ATOM      1  S   UNL     1      20.346   9.106  22.859  0.00  0.00    +0.027 S 
ATOM      4  O   UNL     1      21.036   8.872  21.605  0.00  0.00    -0.158 OA
ATOM      5  O   UNL     1      20.804   8.482  24.085  0.00  0.00    -0.158 OA
ATOM     24  C   UNL     1      20.303  10.861  23.140  0.00  0.00    +0.214 C 
ENDBRANCH   6   1
ENDBRANCH  15   6
BRANCH  13  19
ATOM     19  C   UNL     1      12.992   9.543  17.585  0.00  0.00    +0.077 C 
ATOM     21  C   UNL     1      11.856   8.536  17.733  0.00  0.00    +0.017 C 
BRANCH  19  22
ATOM      3  O   UNL     1      12.436   9.613  15.229  0.00  0.00    -0.276 OA
ATOM      7  N   UNL     1      13.866  11.228  16.079  0.00  0.00    -0.312 N 
ATOM     22  C   UNL     1      13.050  10.110  16.169  0.00  0.00    +0.216 C 
ATOM     32  H   UNL     1      14.321  11.583  16.913  0.00  0.00    +0.149 HD
BRANCH   7  23
ATOM     23  C   UNL     1      14.082  11.941  14.839  0.00  0.00    +0.073 C 
ATOM     25  C   UNL     1      14.205  13.448  15.085  0.00  0.00    +0.022 C 
ATOM     26  C   UNL     1      15.306  11.397  14.097  0.00  0.00    +0.022 C 
ATOM     27  C   UNL     1      15.521  13.825  15.766  0.00  0.00    +0.002 C 
ATOM     28  C   UNL     1      16.621  11.776  14.780  0.00  0.00    +0.002 C 
ATOM     29  C   UNL     1      16.726  13.281  15.003  0.00  0.00    +0.000 C 
ENDBRANCH   7  23
ENDBRANCH  19  22
ENDBRANCH  13  19
TORSDOF 6
ENDMDL
MODEL 6
REMARK VINA RESULT:      -6.4     26.965     29.181
REMARK  Name = 28963185
REMARK  10 active torsions:
REMARK  status: ('A' for Active; 'I' for Inactive)
REMARK    1  A    between atoms: S_1  and  N_6
REMARK    2  A    between atoms: S_1  and  C_24
REMARK    3  A    between atoms: O_2  and  C_11
REMARK    4  A    between atoms: N_6  and  C_15
REMARK    5  A    between atoms: N_7  and  C_23
REMARK    6  A    between atoms: C_8  and  C_18
REMARK    7  A    between atoms: C_10  and  C_20
REMARK    8  A    between atoms: C_13  and  C_19
REMARK    9  A    between atoms: C_19  and  C_21
REMARK   10  A    between atoms: C_19  and  C_22
REMARK                            x       y       z     vdW  Elec       q    Type
REMARK                         _______ _______ _______ _____ _____    ______ ____
ROOT
ATOM      8  C   UNL     1      -5.922 -11.536  18.468  0.00  0.00    -0.027 C 
ATOM      9  C   UNL     1      -6.052 -10.538  17.269  0.00  0.00    +0.028 C 
ATOM     10  C   UNL     1      -7.525 -10.508  16.722  0.00  0.00    +0.011 C 
ATOM     11  C   UNL     1      -4.948 -10.793  16.202  0.00  0.00    +0.122 C 
ATOM     12  C   UNL     1      -4.492 -11.458  19.052  0.00  0.00    +0.007 C 
ATOM     13  C   UNL     1      -3.526 -10.819  16.811  0.00  0.00    +0.029 C 
ATOM     14  C   UNL     1      -6.909 -11.116  19.583  0.00  0.00    +0.008 C 
ATOM     15  C   UNL     1      -8.511 -10.160  17.870  0.00  0.00    +0.079 C 
ATOM     16  C   UNL     1      -3.412 -11.747  18.020  0.00  0.00    +0.007 C 
ATOM     17  C   UNL     1      -8.352 -11.044  19.105  0.00  0.00    +0.021 C 
ATOM     18  C   UNL     1      -6.213 -13.001  18.055  0.00  0.00    +0.011 C 
ATOM     20  C   UNL     1      -7.727  -9.526  15.557  0.00  0.00    +0.009 C 
ENDROOT
BRANCH  11   2
ATOM      2  O   UNL     1      -4.959  -9.735  15.241  0.00  0.00    -0.391 OA
ATOM     31  H   UNL     1      -4.625  -8.931  15.673  0.00  0.00    +0.210 HD
ENDBRANCH  11   2
BRANCH  15   6
ATOM      6  N   UNL     1      -9.920 -10.305  17.414  0.00  0.00    -0.191 NA
ATOM     30  H   UNL     1     -10.307 -11.252  17.343  0.00  0.00    +0.148 HD
BRANCH   6   1
ATOM      1  S   UNL     1     -10.937  -8.943  17.451  0.00  0.00    +0.027 S 
ATOM      4  O   UNL     1     -10.144  -7.728  17.460  0.00  0.00    -0.158 OA
ATOM      5  O   UNL     1     -11.957  -9.170  18.457  0.00  0.00    -0.158 OA
ATOM     24  C   UNL     1     -11.722  -9.072  15.861  0.00  0.00    +0.214 C 
ENDBRANCH   6   1
ENDBRANCH  15   6
BRANCH  13  19
ATOM     19  C   UNL     1      -2.468 -11.202  15.769  0.00  0.00    +0.077 C 
ATOM     21  C   UNL     1      -1.718  -9.960  15.300  0.00  0.00    +0.017 C 
BRANCH  19  22
ATOM      3  O   UNL     1      -3.495 -13.097  14.665  0.00  0.00    -0.276 OA
ATOM      7  N   UNL     1      -3.258 -11.119  13.479  0.00  0.00    -0.312 N 
ATOM     22  C   UNL     1      -3.128 -11.927  14.599  0.00  0.00    +0.216 C 
ATOM     32  H   UNL     1      -2.944 -10.156  13.520  0.00  0.00    +0.149 HD
BRANCH   7  23
ATOM     23  C   UNL     1      -3.851 -11.583  12.245  0.00  0.00    +0.073 C 
ATOM     25  C   UNL     1      -5.261 -11.011  12.063  0.00  0.00    +0.022 C 
ATOM     26  C   UNL     1      -2.958 -11.252  11.045  0.00  0.00    +0.022 C 
ATOM     27  C   UNL     1      -5.249  -9.518  11.733  0.00  0.00    +0.002 C 
ATOM     28  C   UNL     1      -2.950  -9.758  10.717  0.00  0.00    +0.002 C 
ATOM     29  C   UNL     1      -4.362  -9.215  10.529  0.00  0.00    +0.000 C 
ENDBRANCH   7  23
ENDBRANCH  19  22
ENDBRANCH  13  19
TORSDOF 6
ENDMDL
MODEL 7
REMARK VINA RESULT:      -6.4     28.103     31.315
REMARK  Name = 28963185
REMARK  10 active torsions:
REMARK  status: ('A' for Active; 'I' for Inactive)
REMARK    1  A    between atoms: S_1  and  N_6
REMARK    2  A    between atoms: S_1  and  C_24
REMARK    3  A    between atoms: O_2  and  C_11
REMARK    4  A    between atoms: N_6  and  C_15
REMARK    5  A    between atoms: N_7  and  C_23
REMARK    6  A    between atoms: C_8  and  C_18
REMARK    7  A    between atoms: C_10  and  C_20
REMARK    8  A    between atoms: C_13  and  C_19
REMARK    9  A    between atoms: C_19  and  C_21
REMARK   10  A    between atoms: C_19  and  C_22
REMARK                            x       y       z     vdW  Elec       q    Type
REMARK                         _______ _______ _______ _____ _____    ______ ____
ROOT
ATOM      8  C   UNL     1     -16.291   4.576  30.249  0.00  0.00    -0.027 C 
ATOM      9  C   UNL     1     -14.958   4.778  31.046  0.00  0.00    +0.028 C 
ATOM     10  C   UNL     1     -14.188   3.416  31.203  0.00  0.00    +0.011 C 
ATOM     11  C   UNL     1     -15.206   5.561  32.368  0.00  0.00    +0.122 C 
ATOM     12  C   UNL     1     -16.966   5.949  30.017  0.00  0.00    +0.007 C 
ATOM     13  C   UNL     1     -15.976   6.883  32.141  0.00  0.00    +0.029 C 
ATOM     14  C   UNL     1     -15.963   3.974  28.863  0.00  0.00    +0.008 C 
ATOM     15  C   UNL     1     -13.934   2.787  29.806  0.00  0.00    +0.079 C 
ATOM     16  C   UNL     1     -17.246   6.699  31.311  0.00  0.00    +0.007 C 
ATOM     17  C   UNL     1     -15.192   2.664  28.950  0.00  0.00    +0.021 C 
ATOM     18  C   UNL     1     -17.289   3.648  30.986  0.00  0.00    +0.011 C 
ATOM     20  C   UNL     1     -12.854   3.549  31.955  0.00  0.00    +0.009 C 
ENDROOT
BRANCH  11   2
ATOM      2  O   UNL     1     -13.952   5.916  32.954  0.00  0.00    -0.391 OA
ATOM     31  H   UNL     1     -14.095   6.072  33.903  0.00  0.00    +0.210 HD
ENDBRANCH  11   2
BRANCH  15   6
ATOM      6  N   UNL     1     -13.370   1.416  29.943  0.00  0.00    -0.191 NA
ATOM     30  H   UNL     1     -12.409   1.325  30.291  0.00  0.00    +0.148 HD
BRANCH   6   1
ATOM      1  S   UNL     1     -14.433   0.090  29.945  0.00  0.00    +0.027 S 
ATOM      4  O   UNL     1     -15.411   0.233  28.883  0.00  0.00    -0.158 OA
ATOM      5  O   UNL     1     -14.854  -0.149  31.313  0.00  0.00    -0.158 OA
ATOM     24  C   UNL     1     -13.324  -1.225  29.494  0.00  0.00    +0.214 C 
ENDBRANCH   6   1
ENDBRANCH  15   6
BRANCH  13  19
ATOM     19  C   UNL     1     -16.325   7.573  33.465  0.00  0.00    +0.077 C 
ATOM     21  C   UNL     1     -17.831   7.790  33.564  0.00  0.00    +0.017 C 
BRANCH  19  22
ATOM      3  O   UNL     1     -16.056   9.899  34.083  0.00  0.00    -0.276 OA
ATOM      7  N   UNL     1     -14.281   8.811  33.061  0.00  0.00    -0.312 N 
ATOM     22  C   UNL     1     -15.565   8.891  33.582  0.00  0.00    +0.216 C 
ATOM     32  H   UNL     1     -13.950   7.931  32.683  0.00  0.00    +0.149 HD
BRANCH   7  23
ATOM     23  C   UNL     1     -13.369   9.933  33.055  0.00  0.00    +0.073 C 
ATOM     25  C   UNL     1     -11.915   9.461  33.166  0.00  0.00    +0.022 C 
ATOM     26  C   UNL     1     -13.576  10.806  31.813  0.00  0.00    +0.022 C 
ATOM     27  C   UNL     1     -11.418   8.790  31.885  0.00  0.00    +0.002 C 
ATOM     28  C   UNL     1     -13.077  10.131  30.534  0.00  0.00    +0.002 C 
ATOM     29  C   UNL     1     -11.626   9.681  30.665  0.00  0.00    +0.000 C 
ENDBRANCH   7  23
ENDBRANCH  19  22
ENDBRANCH  13  19
TORSDOF 6
ENDMDL
MODEL 8
REMARK VINA RESULT:      -6.3     28.076     30.343
REMARK  Name = 28963185
REMARK  10 active torsions:
REMARK  status: ('A' for Active; 'I' for Inactive)
REMARK    1  A    between atoms: S_1  and  N_6
REMARK    2  A    between atoms: S_1  and  C_24
REMARK    3  A    between atoms: O_2  and  C_11
REMARK    4  A    between atoms: N_6  and  C_15
REMARK    5  A    between atoms: N_7  and  C_23
REMARK    6  A    between atoms: C_8  and  C_18
REMARK    7  A    between atoms: C_10  and  C_20
REMARK    8  A    between atoms: C_13  and  C_19
REMARK    9  A    between atoms: C_19  and  C_21
REMARK   10  A    between atoms: C_19  and  C_22
REMARK                            x       y       z     vdW  Elec       q    Type
REMARK                         _______ _______ _______ _____ _____    ______ ____
ROOT
ATOM      8  C   UNL     1      -4.058 -11.177  11.816  0.00  0.00    -0.027 C 
ATOM      9  C   UNL     1      -5.414 -10.395  11.800  0.00  0.00    +0.028 C 
ATOM     10  C   UNL     1      -5.532  -9.506  10.509  0.00  0.00    +0.011 C 
ATOM     11  C   UNL     1      -5.652  -9.652  13.146  0.00  0.00    +0.122 C 
ATOM     12  C   UNL     1      -4.023 -12.124  13.039  0.00  0.00    +0.007 C 
ATOM     13  C   UNL     1      -5.511 -10.584  14.374  0.00  0.00    +0.029 C 
ATOM     14  C   UNL     1      -3.965 -12.051  10.543  0.00  0.00    +0.008 C 
ATOM     15  C   UNL     1      -5.360 -10.386   9.241  0.00  0.00    +0.079 C 
ATOM     16  C   UNL     1      -4.215 -11.394  14.361  0.00  0.00    +0.007 C 
ATOM     17  C   UNL     1      -4.099 -11.247   9.257  0.00  0.00    +0.021 C 
ATOM     18  C   UNL     1      -2.830 -10.235  11.880  0.00  0.00    +0.011 C 
ATOM     20  C   UNL     1      -6.856  -8.729  10.418  0.00  0.00    +0.009 C 
ENDROOT
BRANCH  11   2
ATOM      2  O   UNL     1      -6.985  -9.137  13.179  0.00  0.00    -0.391 OA
ATOM     31  H   UNL     1      -7.470  -9.599  13.884  0.00  0.00    +0.210 HD
ENDBRANCH  11   2
BRANCH  15   6
ATOM      6  N   UNL     1      -5.288  -9.538   8.020  0.00  0.00    -0.191 NA
ATOM     30  H   UNL     1      -4.417  -9.026   7.841  0.00  0.00    +0.148 HD
BRANCH   6   1
ATOM      1  S   UNL     1      -6.431  -9.782   6.785  0.00  0.00    +0.027 S 
ATOM      4  O   UNL     1      -5.781 -10.305   5.599  0.00  0.00    -0.158 OA
ATOM      5  O   UNL     1      -7.271  -8.602   6.710  0.00  0.00    -0.158 OA
ATOM     24  C   UNL     1      -7.410 -11.086   7.493  0.00  0.00    +0.214 C 
ENDBRANCH   6   1
ENDBRANCH  15   6
BRANCH  13  19
ATOM     19  C   UNL     1      -5.617  -9.808  15.692  0.00  0.00    +0.077 C 
ATOM     21  C   UNL     1      -4.416 -10.114  16.580  0.00  0.00    +0.017 C 
BRANCH  19  22
ATOM      3  O   UNL     1      -7.069 -11.160  17.080  0.00  0.00    -0.276 OA
ATOM      7  N   UNL     1      -7.917  -9.207  16.162  0.00  0.00    -0.312 N 
ATOM     22  C   UNL     1      -6.928 -10.152  16.393  0.00  0.00    +0.216 C 
ATOM     32  H   UNL     1      -7.707  -8.393  15.597  0.00  0.00    +0.149 HD
BRANCH   7  23
ATOM     23  C   UNL     1      -9.248  -9.316  16.720  0.00  0.00    +0.073 C 
ATOM     25  C   UNL     1      -9.777  -7.944  17.152  0.00  0.00    +0.022 C 
ATOM     26  C   UNL     1     -10.204  -9.994  15.734  0.00  0.00    +0.022 C 
ATOM     27  C   UNL     1     -10.128  -7.050  15.963  0.00  0.00    +0.002 C 
ATOM     28  C   UNL     1     -10.554  -9.097  14.546  0.00  0.00    +0.002 C 
ATOM     29  C   UNL     1     -11.089  -7.743  15.002  0.00  0.00    +0.000 C 
ENDBRANCH   7  23
ENDBRANCH  19  22
ENDBRANCH  13  19
TORSDOF 6
ENDMDL
MODEL 9
REMARK VINA RESULT:      -6.3      4.972      7.370
REMARK  Name = 28963185
REMARK  10 active torsions:
REMARK  status: ('A' for Active; 'I' for Inactive)
REMARK    1  A    between atoms: S_1  and  N_6
REMARK    2  A    between atoms: S_1  and  C_24
REMARK    3  A    between atoms: O_2  and  C_11
REMARK    4  A    between atoms: N_6  and  C_15
REMARK    5  A    between atoms: N_7  and  C_23
REMARK    6  A    between atoms: C_8  and  C_18
REMARK    7  A    between atoms: C_10  and  C_20
REMARK    8  A    between atoms: C_13  and  C_19
REMARK    9  A    between atoms: C_19  and  C_21
REMARK   10  A    between atoms: C_19  and  C_22
REMARK                            x       y       z     vdW  Elec       q    Type
REMARK                         _______ _______ _______ _____ _____    ______ ____
ROOT
ATOM      8  C   UNL     1      16.703   9.907  20.859  0.00  0.00    -0.027 C 
ATOM      9  C   UNL     1      16.525   8.423  20.390  0.00  0.00    +0.028 C 
ATOM     10  C   UNL     1      15.003   8.070  20.215  0.00  0.00    +0.011 C 
ATOM     11  C   UNL     1      17.339   7.448  21.288  0.00  0.00    +0.122 C 
ATOM     12  C   UNL     1      18.209  10.254  20.913  0.00  0.00    +0.007 C 
ATOM     13  C   UNL     1      18.824   7.861  21.425  0.00  0.00    +0.029 C 
ATOM     14  C   UNL     1      16.041  10.846  19.823  0.00  0.00    +0.008 C 
ATOM     15  C   UNL     1      14.336   9.069  19.230  0.00  0.00    +0.079 C 
ATOM     16  C   UNL     1      19.001   9.326  21.823  0.00  0.00    +0.007 C 
ATOM     17  C   UNL     1      14.569  10.535  19.591  0.00  0.00    +0.021 C 
ATOM     18  C   UNL     1      16.081  10.167  22.254  0.00  0.00    +0.011 C 
ATOM     20  C   UNL     1      14.760   6.632  19.729  0.00  0.00    +0.009 C 
ENDROOT
BRANCH  11   2
ATOM      2  O   UNL     1      17.332   6.144  20.705  0.00  0.00    -0.391 OA
ATOM     31  H   UNL     1      18.114   5.664  21.028  0.00  0.00    +0.210 HD
ENDBRANCH  11   2
BRANCH  15   6
ATOM      6  N   UNL     1      12.863   8.863  19.192  0.00  0.00    -0.191 NA
ATOM     30  H   UNL     1      12.303   9.263  19.953  0.00  0.00    +0.148 HD
BRANCH   6   1
ATOM      1  S   UNL     1      12.141   8.380  17.731  0.00  0.00    +0.027 S 
ATOM      4  O   UNL     1      10.697   8.427  17.848  0.00  0.00    -0.158 OA
ATOM      5  O   UNL     1      12.810   7.177  17.274  0.00  0.00    -0.158 OA
ATOM     24  C   UNL     1      12.646   9.706  16.659  0.00  0.00    +0.214 C 
ENDBRANCH   6   1
ENDBRANCH  15   6
BRANCH  13  19
ATOM     19  C   UNL     1      19.575   6.966  22.417  0.00  0.00    +0.077 C 
ATOM     21  C   UNL     1      20.311   7.821  23.443  0.00  0.00    +0.017 C 
BRANCH  19  22
ATOM      3  O   UNL     1      20.307   5.632  20.533  0.00  0.00    -0.276 OA
ATOM      7  N   UNL     1      21.670   5.749  22.405  0.00  0.00    -0.312 N 
ATOM     22  C   UNL     1      20.535   6.048  21.666  0.00  0.00    +0.216 C 
ATOM     32  H   UNL     1      21.787   6.153  23.327  0.00  0.00    +0.149 HD
BRANCH   7  23
ATOM     23  C   UNL     1      22.726   4.896  21.905  0.00  0.00    +0.073 C 
ATOM     25  C   UNL     1      24.085   5.307  22.480  0.00  0.00    +0.022 C 
ATOM     26  C   UNL     1      22.425   3.421  22.192  0.00  0.00    +0.022 C 
ATOM     27  C   UNL     1      24.225   4.956  23.962  0.00  0.00    +0.002 C 
ATOM     28  C   UNL     1      22.567   3.073  23.675  0.00  0.00    +0.002 C 
ATOM     29  C   UNL     1      23.930   3.481  24.221  0.00  0.00    +0.000 C 
ENDBRANCH   7  23
ENDBRANCH  19  22
ENDBRANCH  13  19
TORSDOF 6
ENDMDL
MODEL 10
REMARK VINA RESULT:      -6.3     29.427     31.603
REMARK  Name = 28963185
REMARK  10 active torsions:
REMARK  status: ('A' for Active; 'I' for Inactive)
REMARK    1  A    between atoms: S_1  and  N_6
REMARK    2  A    between atoms: S_1  and  C_24
REMARK    3  A    between atoms: O_2  and  C_11
REMARK    4  A    between atoms: N_6  and  C_15
REMARK    5  A    between atoms: N_7  and  C_23
REMARK    6  A    between atoms: C_8  and  C_18
REMARK    7  A    between atoms: C_10  and  C_20
REMARK    8  A    between atoms: C_13  and  C_19
REMARK    9  A    between atoms: C_19  and  C_21
REMARK   10  A    between atoms: C_19  and  C_22
REMARK                            x       y       z     vdW  Elec       q    Type
REMARK                         _______ _______ _______ _____ _____    ______ ____
ROOT
ATOM      8  C   UNL     1      -6.395 -11.608  18.875  0.00  0.00    -0.027 C 
ATOM      9  C   UNL     1      -6.901 -11.331  17.420  0.00  0.00    +0.028 C 
ATOM     10  C   UNL     1      -5.865 -10.457  16.623  0.00  0.00    +0.011 C 
ATOM     11  C   UNL     1      -8.362 -10.798  17.424  0.00  0.00    +0.122 C 
ATOM     12  C   UNL     1      -7.380 -12.560  19.592  0.00  0.00    +0.007 C 
ATOM     13  C   UNL     1      -9.324 -11.700  18.233  0.00  0.00    +0.029 C 
ATOM     14  C   UNL     1      -5.022 -12.318  18.806  0.00  0.00    +0.008 C 
ATOM     15  C   UNL     1      -4.473 -11.147  16.628  0.00  0.00    +0.079 C 
ATOM     16  C   UNL     1      -8.803 -12.022  19.633  0.00  0.00    +0.007 C 
ATOM     17  C   UNL     1      -3.982 -11.529  18.022  0.00  0.00    +0.021 C 
ATOM     18  C   UNL     1      -6.256 -10.311  19.712  0.00  0.00    +0.011 C 
ATOM     20  C   UNL     1      -6.290 -10.171  15.174  0.00  0.00    +0.009 C 
ENDROOT
BRANCH  11   2
ATOM      2  O   UNL     1      -8.863 -10.767  16.086  0.00  0.00    -0.391 OA
ATOM     31  H   UNL     1      -9.366 -11.585  15.932  0.00  0.00    +0.210 HD
ENDBRANCH  11   2
BRANCH  15   6
ATOM      6  N   UNL     1      -3.442 -10.251  16.037  0.00  0.00    -0.191 NA
ATOM     30  H   UNL     1      -3.284  -9.341  16.484  0.00  0.00    +0.148 HD
BRANCH   6   1
ATOM      1  S   UNL     1      -2.301 -10.912  14.965  0.00  0.00    +0.027 S 
ATOM      4  O   UNL     1      -1.043 -11.137  15.650  0.00  0.00    -0.158 OA
ATOM      5  O   UNL     1      -2.347 -10.149  13.732  0.00  0.00    -0.158 OA
ATOM     24  C   UNL     1      -3.036 -12.497  14.634  0.00  0.00    +0.214 C 
ENDBRANCH   6   1
ENDBRANCH  15   6
BRANCH  13  19
ATOM     19  C   UNL     1     -10.726 -11.089  18.335  0.00  0.00    +0.077 C 
ATOM     21  C   UNL     1     -10.770 -10.058  19.458  0.00  0.00    +0.017 C 
BRANCH  19  22
ATOM      3  O   UNL     1     -12.122 -12.948  17.656  0.00  0.00    -0.276 OA
ATOM      7  N   UNL     1     -12.227 -12.230  19.858  0.00  0.00    -0.312 N 
ATOM     22  C   UNL     1     -11.759 -12.191  18.553  0.00  0.00    +0.216 C 
ATOM     32  H   UNL     1     -11.857 -11.578  20.540  0.00  0.00    +0.149 HD
BRANCH   7  23
ATOM     23  C   UNL     1     -13.214 -13.188  20.307  0.00  0.00    +0.073 C 
ATOM     25  C   UNL     1     -12.561 -14.309  21.122  0.00  0.00    +0.022 C 
ATOM     26  C   UNL     1     -14.328 -12.500  21.102  0.00  0.00    +0.022 C 
ATOM     27  C   UNL     1     -12.096 -13.837  22.500  0.00  0.00    +0.002 C 
ATOM     28  C   UNL     1     -13.859 -12.030  22.480  0.00  0.00    +0.002 C 
ATOM     29  C   UNL     1     -13.225 -13.165  23.276  0.00  0.00    +0.000 C 
ENDBRANCH   7  23
ENDBRANCH  19  22
ENDBRANCH  13  19
TORSDOF 6
ENDMDL
