MODEL 1
REMARK VINA RESULT:      -7.4      0.000      0.000
REMARK  Name = 45361604
REMARK  10 active torsions:
REMARK  status: ('A' for Active; 'I' for Inactive)
REMARK    1  A    between atoms: O_2  and  C_11
REMARK    2  A    between atoms: N_5  and  C_15
REMARK    3  A    between atoms: N_6  and  C_25
REMARK    4  A    between atoms: C_8  and  C_18
REMARK    5  A    between atoms: C_10  and  C_20
REMARK    6  A    between atoms: C_14  and  C_19
REMARK    7  A    between atoms: C_19  and  C_21
REMARK    8  A    between atoms: C_19  and  C_22
REMARK    9  A    between atoms: C_23  and  C_24
REMARK   10  A    between atoms: C_25  and  C_27
REMARK                            x       y       z     vdW  Elec       q    Type
REMARK                         _______ _______ _______ _____ _____    ______ ____
ROOT
ATOM      8  C   UNL     1     -15.094   7.622  20.778  0.00  0.00    -0.027 C 
ATOM      9  C   UNL     1     -13.848   6.724  21.071  0.00  0.00    +0.028 C 
ATOM     10  C   UNL     1     -14.040   5.920  22.407  0.00  0.00    +0.012 C 
ATOM     11  C   UNL     1     -12.527   7.538  20.965  0.00  0.00    +0.122 C 
ATOM     12  C   UNL     1     -14.922   8.310  19.402  0.00  0.00    +0.007 C 
ATOM     13  C   UNL     1     -16.354   6.729  20.702  0.00  0.00    +0.009 C 
ATOM     14  C   UNL     1     -12.409   8.307  19.629  0.00  0.00    +0.029 C 
ATOM     15  C   UNL     1     -15.349   5.084  22.349  0.00  0.00    +0.076 C 
ATOM     16  C   UNL     1     -13.649   9.141  19.309  0.00  0.00    +0.007 C 
ATOM     17  C   UNL     1     -16.578   5.905  21.963  0.00  0.00    +0.023 C 
ATOM     18  C   UNL     1     -15.307   8.714  21.857  0.00  0.00    +0.011 C 
ATOM     20  C   UNL     1     -12.861   4.991  22.743  0.00  0.00    +0.010 C 
ENDROOT
BRANCH  15   5
ATOM      4  O   UNL     1     -16.480   2.468  22.703  0.00  0.00    -0.269 OA
ATOM      5  N   UNL     1     -15.619   4.421  23.608  0.00  0.00    -0.307 N 
ATOM     23  C   UNL     1     -16.169   3.153  23.675  0.00  0.00    +0.263 C 
ATOM     36  H   UNL     1     -15.448   4.934  24.470  0.00  0.00    +0.149 HD
BRANCH  23  24
ATOM      7  N   UNL     1     -16.784   1.327  25.110  0.00  0.00    -0.250 NA
ATOM     24  C   UNL     1     -16.408   2.623  25.042  0.00  0.00    +0.125 A 
ATOM     26  C   UNL     1     -16.245   3.442  26.148  0.00  0.00    +0.033 A 
ATOM     28  C   UNL     1     -16.481   2.895  27.403  0.00  0.00    +0.004 A 
ATOM     29  C   UNL     1     -17.005   0.829  26.348  0.00  0.00    +0.111 A 
ATOM     32  C   UNL     1     -16.869   1.565  27.514  0.00  0.00    +0.020 A 
ENDBRANCH  23  24
ENDBRANCH  15   5
BRANCH  11   2
ATOM      2  O   UNL     1     -11.411   6.648  21.023  0.00  0.00    -0.391 OA
ATOM     37  H   UNL     1     -11.725   5.790  21.353  0.00  0.00    +0.210 HD
ENDBRANCH  11   2
BRANCH  14  19
ATOM     19  C   UNL     1     -11.166   9.206  19.598  0.00  0.00    +0.077 C 
ATOM     21  C   UNL     1     -11.386  10.437  20.470  0.00  0.00    +0.017 C 
BRANCH  19  22
ATOM      3  O   UNL     1     -10.640  10.757  17.815  0.00  0.00    -0.276 OA
ATOM      6  N   UNL     1     -10.805   8.500  17.308  0.00  0.00    -0.311 N 
ATOM     22  C   UNL     1     -10.841   9.595  18.159  0.00  0.00    +0.216 C 
ATOM     38  H   UNL     1     -10.930   7.564  17.679  0.00  0.00    +0.149 HD
BRANCH   6  25
ATOM     25  C   UNL     1     -10.520   8.618  15.896  0.00  0.00    +0.141 C 
BRANCH  25  27
ATOM      1 CL   UNL     1     -10.022   7.594  13.026  0.00  0.00    -0.083 Cl
ATOM     27  C   UNL     1     -11.714   8.279  15.052  0.00  0.00    -0.012 A 
ATOM     30  C   UNL     1     -11.577   7.810  13.745  0.00  0.00    +0.046 A 
ATOM     31  C   UNL     1     -12.984   8.443  15.604  0.00  0.00    +0.006 A 
ATOM     33  C   UNL     1     -12.711   7.506  12.991  0.00  0.00    +0.020 A 
ATOM     34  C   UNL     1     -14.117   8.138  14.850  0.00  0.00    +0.000 A 
ATOM     35  C   UNL     1     -13.980   7.670  13.544  0.00  0.00    +0.001 A 
ENDBRANCH  25  27
ENDBRANCH   6  25
ENDBRANCH  19  22
ENDBRANCH  14  19
TORSDOF 7
ENDMDL
MODEL 2
REMARK VINA RESULT:      -7.0     18.166     19.573
REMARK  Name = 45361604
REMARK  10 active torsions:
REMARK  status: ('A' for Active; 'I' for Inactive)
REMARK    1  A    between atoms: O_2  and  C_11
REMARK    2  A    between atoms: N_5  and  C_15
REMARK    3  A    between atoms: N_6  and  C_25
REMARK    4  A    between atoms: C_8  and  C_18
REMARK    5  A    between atoms: C_10  and  C_20
REMARK    6  A    between atoms: C_14  and  C_19
REMARK    7  A    between atoms: C_19  and  C_21
REMARK    8  A    between atoms: C_19  and  C_22
REMARK    9  A    between atoms: C_23  and  C_24
REMARK   10  A    between atoms: C_25  and  C_27
REMARK                            x       y       z     vdW  Elec       q    Type
REMARK                         _______ _______ _______ _____ _____    ______ ____
ROOT
ATOM      8  C   UNL     1      -4.680 -11.088  16.821  0.00  0.00    -0.027 C 
ATOM      9  C   UNL     1      -5.505 -10.475  15.642  0.00  0.00    +0.028 C 
ATOM     10  C   UNL     1      -7.046 -10.571  15.930  0.00  0.00    +0.012 C 
ATOM     11  C   UNL     1      -5.044 -11.048  14.271  0.00  0.00    +0.122 C 
ATOM     12  C   UNL     1      -3.169 -10.875  16.559  0.00  0.00    +0.007 C 
ATOM     13  C   UNL     1      -5.039 -10.346  18.129  0.00  0.00    +0.009 C 
ATOM     14  C   UNL     1      -3.517 -10.927  14.060  0.00  0.00    +0.029 C 
ATOM     15  C   UNL     1      -7.385  -9.887  17.283  0.00  0.00    +0.076 C 
ATOM     16  C   UNL     1      -2.706 -11.471  15.236  0.00  0.00    +0.007 C 
ATOM     17  C   UNL     1      -6.528 -10.383  18.446  0.00  0.00    +0.023 C 
ATOM     18  C   UNL     1      -4.943 -12.604  17.006  0.00  0.00    +0.011 C 
ATOM     20  C   UNL     1      -7.919  -9.959  14.821  0.00  0.00    +0.010 C 
ENDROOT
BRANCH  15   5
ATOM      4  O   UNL     1      -9.396  -7.839  17.372  0.00  0.00    -0.269 OA
ATOM      5  N   UNL     1      -8.779 -10.058  17.636  0.00  0.00    -0.307 N 
ATOM     23  C   UNL     1      -9.675  -9.003  17.650  0.00  0.00    +0.263 C 
ATOM     36  H   UNL     1      -9.091 -10.977  17.939  0.00  0.00    +0.149 HD
BRANCH  23  24
ATOM      7  N   UNL     1     -11.183  -9.989  19.239  0.00  0.00    -0.250 NA
ATOM     24  C   UNL     1     -11.063  -9.338  18.061  0.00  0.00    +0.125 A 
ATOM     26  C   UNL     1     -12.134  -8.986  17.256  0.00  0.00    +0.033 A 
ATOM     28  C   UNL     1     -13.411  -9.323  17.688  0.00  0.00    +0.004 A 
ATOM     29  C   UNL     1     -12.441 -10.301  19.627  0.00  0.00    +0.111 A 
ATOM     32  C   UNL     1     -13.576  -9.993  18.895  0.00  0.00    +0.020 A 
ENDBRANCH  23  24
ENDBRANCH  15   5
BRANCH  11   2
ATOM      2  O   UNL     1      -5.662 -10.315  13.214  0.00  0.00    -0.391 OA
ATOM     37  H   UNL     1      -6.419  -9.831  13.583  0.00  0.00    +0.210 HD
ENDBRANCH  11   2
BRANCH  14  19
ATOM     19  C   UNL     1      -3.065 -11.614  12.765  0.00  0.00    +0.077 C 
ATOM     21  C   UNL     1      -1.883 -12.536  13.045  0.00  0.00    +0.017 C 
BRANCH  19  22
ATOM      3  O   UNL     1      -1.621 -10.006  11.673  0.00  0.00    -0.276 OA
ATOM      6  N   UNL     1      -3.760 -10.324  10.834  0.00  0.00    -0.311 N 
ATOM     22  C   UNL     1      -2.714 -10.565  11.714  0.00  0.00    +0.216 C 
ATOM     38  H   UNL     1      -4.615 -10.866  10.903  0.00  0.00    +0.149 HD
BRANCH   6  25
ATOM     25  C   UNL     1      -3.667  -9.370   9.754  0.00  0.00    +0.141 C 
BRANCH  25  27
ATOM      1 CL   UNL     1      -4.419 -11.312   7.474  0.00  0.00    -0.083 Cl
ATOM     27  C   UNL     1      -4.986  -9.171   9.065  0.00  0.00    -0.012 A 
ATOM     30  C   UNL     1      -5.402 -10.004   8.026  0.00  0.00    +0.046 A 
ATOM     31  C   UNL     1      -5.802  -8.123   9.487  0.00  0.00    +0.006 A 
ATOM     33  C   UNL     1      -6.635  -9.787   7.409  0.00  0.00    +0.020 A 
ATOM     34  C   UNL     1      -7.035  -7.907   8.871  0.00  0.00    +0.000 A 
ATOM     35  C   UNL     1      -7.451  -8.739   7.832  0.00  0.00    +0.001 A 
ENDBRANCH  25  27
ENDBRANCH   6  25
ENDBRANCH  19  22
ENDBRANCH  14  19
TORSDOF 7
ENDMDL
MODEL 3
REMARK VINA RESULT:      -6.9      9.723     14.391
REMARK  Name = 45361604
REMARK  10 active torsions:
REMARK  status: ('A' for Active; 'I' for Inactive)
REMARK    1  A    between atoms: O_2  and  C_11
REMARK    2  A    between atoms: N_5  and  C_15
REMARK    3  A    between atoms: N_6  and  C_25
REMARK    4  A    between atoms: C_8  and  C_18
REMARK    5  A    between atoms: C_10  and  C_20
REMARK    6  A    between atoms: C_14  and  C_19
REMARK    7  A    between atoms: C_19  and  C_21
REMARK    8  A    between atoms: C_19  and  C_22
REMARK    9  A    between atoms: C_23  and  C_24
REMARK   10  A    between atoms: C_25  and  C_27
REMARK                            x       y       z     vdW  Elec       q    Type
REMARK                         _______ _______ _______ _____ _____    ______ ____
ROOT
ATOM      8  C   UNL     1     -14.657   2.242  31.087  0.00  0.00    -0.027 C 
ATOM      9  C   UNL     1     -15.885   3.175  30.829  0.00  0.00    +0.028 C 
ATOM     10  C   UNL     1     -16.310   3.133  29.317  0.00  0.00    +0.012 C 
ATOM     11  C   UNL     1     -15.649   4.596  31.417  0.00  0.00    +0.122 C 
ATOM     12  C   UNL     1     -14.337   2.218  32.602  0.00  0.00    +0.007 C 
ATOM     13  C   UNL     1     -15.019   0.800  30.661  0.00  0.00    +0.009 C 
ATOM     14  C   UNL     1     -15.227   4.560  32.905  0.00  0.00    +0.029 C 
ATOM     15  C   UNL     1     -16.600   1.670  28.879  0.00  0.00    +0.076 C 
ATOM     16  C   UNL     1     -14.066   3.604  33.173  0.00  0.00    +0.007 C 
ATOM     17  C   UNL     1     -15.465   0.702  29.209  0.00  0.00    +0.023 C 
ATOM     18  C   UNL     1     -13.391   2.697  30.319  0.00  0.00    +0.011 C 
ATOM     20  C   UNL     1     -17.533   4.009  28.996  0.00  0.00    +0.010 C 
ENDROOT
BRANCH  15   5
ATOM      4  O   UNL     1     -18.407  -0.159  27.602  0.00  0.00    -0.269 OA
ATOM      5  N   UNL     1     -16.881   1.580  27.462  0.00  0.00    -0.307 N 
ATOM     23  C   UNL     1     -17.773   0.660  26.940  0.00  0.00    +0.263 C 
ATOM     36  H   UNL     1     -16.359   2.179  26.827  0.00  0.00    +0.149 HD
BRANCH  23  24
ATOM      7  N   UNL     1     -18.416  -0.459  24.913  0.00  0.00    -0.250 NA
ATOM     24  C   UNL     1     -17.931   0.677  25.463  0.00  0.00    +0.125 A 
ATOM     26  C   UNL     1     -17.591   1.807  24.737  0.00  0.00    +0.033 A 
ATOM     28  C   UNL     1     -17.761   1.769  23.358  0.00  0.00    +0.004 A 
ATOM     29  C   UNL     1     -18.567  -0.459  23.569  0.00  0.00    +0.111 A 
ATOM     32  C   UNL     1     -18.257   0.618  22.755  0.00  0.00    +0.020 A 
ENDBRANCH  23  24
ENDBRANCH  15   5
BRANCH  11   2
ATOM      2  O   UNL     1     -16.862   5.347  31.355  0.00  0.00    -0.391 OA
ATOM     37  H   UNL     1     -16.784   5.986  30.627  0.00  0.00    +0.210 HD
ENDBRANCH  11   2
BRANCH  14  19
ATOM     19  C   UNL     1     -14.872   5.957  33.429  0.00  0.00    +0.077 C 
ATOM     21  C   UNL     1     -13.858   6.622  32.506  0.00  0.00    +0.017 C 
BRANCH  19  22
ATOM      3  O   UNL     1     -14.750   5.020  35.659  0.00  0.00    -0.276 OA
ATOM      6  N   UNL     1     -13.371   6.809  35.130  0.00  0.00    -0.311 N 
ATOM     22  C   UNL     1     -14.343   5.857  34.857  0.00  0.00    +0.216 C 
ATOM     38  H   UNL     1     -13.051   7.433  34.397  0.00  0.00    +0.149 HD
BRANCH   6  25
ATOM     25  C   UNL     1     -12.722   6.914  36.417  0.00  0.00    +0.141 C 
BRANCH  25  27
ATOM      1 CL   UNL     1     -10.380   6.482  38.382  0.00  0.00    -0.083 Cl
ATOM     27  C   UNL     1     -11.594   7.904  36.397  0.00  0.00    -0.012 A 
ATOM     30  C   UNL     1     -10.498   7.783  37.252  0.00  0.00    +0.046 A 
ATOM     31  C   UNL     1     -11.660   8.967  35.496  0.00  0.00    +0.006 A 
ATOM     33  C   UNL     1      -9.469   8.724  37.205  0.00  0.00    +0.020 A 
ATOM     34  C   UNL     1     -10.631   9.906  35.449  0.00  0.00    +0.000 A 
ATOM     35  C   UNL     1      -9.535   9.785  36.303  0.00  0.00    +0.001 A 
ENDBRANCH  25  27
ENDBRANCH   6  25
ENDBRANCH  19  22
ENDBRANCH  14  19
TORSDOF 7
ENDMDL
MODEL 4
REMARK VINA RESULT:      -6.9     25.748     29.651
REMARK  Name = 45361604
REMARK  10 active torsions:
REMARK  status: ('A' for Active; 'I' for Inactive)
REMARK    1  A    between atoms: O_2  and  C_11
REMARK    2  A    between atoms: N_5  and  C_15
REMARK    3  A    between atoms: N_6  and  C_25
REMARK    4  A    between atoms: C_8  and  C_18
REMARK    5  A    between atoms: C_10  and  C_20
REMARK    6  A    between atoms: C_14  and  C_19
REMARK    7  A    between atoms: C_19  and  C_21
REMARK    8  A    between atoms: C_19  and  C_22
REMARK    9  A    between atoms: C_23  and  C_24
REMARK   10  A    between atoms: C_25  and  C_27
REMARK                            x       y       z     vdW  Elec       q    Type
REMARK                         _______ _______ _______ _____ _____    ______ ____
ROOT
ATOM      8  C   UNL     1      12.988   8.993  17.381  0.00  0.00    -0.027 C 
ATOM      9  C   UNL     1      13.505  10.110  18.346  0.00  0.00    +0.028 C 
ATOM     10  C   UNL     1      14.870  10.700  17.837  0.00  0.00    +0.012 C 
ATOM     11  C   UNL     1      13.495   9.628  19.825  0.00  0.00    +0.122 C 
ATOM     12  C   UNL     1      11.591   8.515  17.846  0.00  0.00    +0.007 C 
ATOM     13  C   UNL     1      12.833   9.584  15.961  0.00  0.00    +0.009 C 
ATOM     14  C   UNL     1      12.124   9.055  20.253  0.00  0.00    +0.029 C 
ATOM     15  C   UNL     1      14.721  11.223  16.381  0.00  0.00    +0.076 C 
ATOM     16  C   UNL     1      11.586   8.004  19.282  0.00  0.00    +0.007 C 
ATOM     17  C   UNL     1      14.120  10.195  15.425  0.00  0.00    +0.023 C 
ATOM     18  C   UNL     1      13.938   7.770  17.323  0.00  0.00    +0.011 C 
ATOM     20  C   UNL     1      15.423  11.827  18.726  0.00  0.00    +0.010 C 
ENDROOT
BRANCH  15   5
ATOM      4  O   UNL     1      15.144  13.441  14.607  0.00  0.00    -0.269 OA
ATOM      5  N   UNL     1      15.988  11.668  15.840  0.00  0.00    -0.307 N 
ATOM     23  C   UNL     1      16.089  12.753  14.987  0.00  0.00    +0.263 C 
ATOM     36  H   UNL     1      16.821  11.125  16.051  0.00  0.00    +0.149 HD
BRANCH  23  24
ATOM      7  N   UNL     1      17.549  14.117  13.653  0.00  0.00    -0.250 NA
ATOM     24  C   UNL     1      17.456  13.065  14.497  0.00  0.00    +0.125 A 
ATOM     26  C   UNL     1      18.537  12.300  14.905  0.00  0.00    +0.033 A 
ATOM     28  C   UNL     1      19.794  12.637  14.417  0.00  0.00    +0.004 A 
ATOM     29  C   UNL     1      18.788  14.415  13.198  0.00  0.00    +0.111 A 
ATOM     32  C   UNL     1      19.930  13.713  13.547  0.00  0.00    +0.020 A 
ENDBRANCH  23  24
ENDBRANCH  15   5
BRANCH  11   2
ATOM      2  O   UNL     1      13.763  10.733  20.689  0.00  0.00    -0.391 OA
ATOM     37  H   UNL     1      14.628  11.103  20.448  0.00  0.00    +0.210 HD
ENDBRANCH  11   2
BRANCH  14  19
ATOM     19  C   UNL     1      12.171   8.466  21.669  0.00  0.00    +0.077 C 
ATOM     21  C   UNL     1      11.812   6.984  21.633  0.00  0.00    +0.017 C 
BRANCH  19  22
ATOM      3  O   UNL     1      10.055   8.933  22.750  0.00  0.00    -0.276 OA
ATOM      6  N   UNL     1      11.860  10.320  23.199  0.00  0.00    -0.311 N 
ATOM     22  C   UNL     1      11.233   9.243  22.587  0.00  0.00    +0.216 C 
ATOM     38  H   UNL     1      12.851  10.479  23.053  0.00  0.00    +0.149 HD
BRANCH   6  25
ATOM     25  C   UNL     1      11.175  11.206  24.111  0.00  0.00    +0.141 C 
BRANCH  25  27
ATOM      1 CL   UNL     1      10.461  13.556  25.982  0.00  0.00    -0.083 Cl
ATOM     27  C   UNL     1      10.889  12.542  23.488  0.00  0.00    -0.012 A 
ATOM     30  C   UNL     1      10.559  13.655  24.261  0.00  0.00    +0.046 A 
ATOM     31  C   UNL     1      10.959  12.654  22.099  0.00  0.00    +0.006 A 
ATOM     33  C   UNL     1      10.299  14.880  23.645  0.00  0.00    +0.020 A 
ATOM     34  C   UNL     1      10.700  13.878  21.484  0.00  0.00    +0.000 A 
ATOM     35  C   UNL     1      10.370  14.991  22.257  0.00  0.00    +0.001 A 
ENDBRANCH  25  27
ENDBRANCH   6  25
ENDBRANCH  19  22
ENDBRANCH  14  19
TORSDOF 7
ENDMDL
MODEL 5
REMARK VINA RESULT:      -6.8     25.617     30.272
REMARK  Name = 45361604
REMARK  10 active torsions:
REMARK  status: ('A' for Active; 'I' for Inactive)
REMARK    1  A    between atoms: O_2  and  C_11
REMARK    2  A    between atoms: N_5  and  C_15
REMARK    3  A    between atoms: N_6  and  C_25
REMARK    4  A    between atoms: C_8  and  C_18
REMARK    5  A    between atoms: C_10  and  C_20
REMARK    6  A    between atoms: C_14  and  C_19
REMARK    7  A    between atoms: C_19  and  C_21
REMARK    8  A    between atoms: C_19  and  C_22
REMARK    9  A    between atoms: C_23  and  C_24
REMARK   10  A    between atoms: C_25  and  C_27
REMARK                            x       y       z     vdW  Elec       q    Type
REMARK                         _______ _______ _______ _____ _____    ______ ____
ROOT
ATOM      8  C   UNL     1       9.444   6.145   6.178  0.00  0.00    -0.027 C 
ATOM      9  C   UNL     1      10.453   7.244   5.708  0.00  0.00    +0.028 C 
ATOM     10  C   UNL     1       9.977   8.671   6.162  0.00  0.00    +0.012 C 
ATOM     11  C   UNL     1      10.781   7.100   4.194  0.00  0.00    +0.122 C 
ATOM     12  C   UNL     1       9.998   4.746   5.815  0.00  0.00    +0.007 C 
ATOM     13  C   UNL     1       9.305   6.211   7.716  0.00  0.00    +0.009 C 
ATOM     14  C   UNL     1      11.235   5.670   3.818  0.00  0.00    +0.029 C 
ATOM     15  C   UNL     1       9.769   8.704   7.702  0.00  0.00    +0.076 C 
ATOM     16  C   UNL     1      10.283   4.588   4.327  0.00  0.00    +0.007 C 
ATOM     17  C   UNL     1       8.871   7.581   8.218  0.00  0.00    +0.023 C 
ATOM     18  C   UNL     1       8.044   6.308   5.532  0.00  0.00    +0.011 C 
ATOM     20  C   UNL     1      10.940   9.799   5.757  0.00  0.00    +0.010 C 
ENDROOT
BRANCH  15   5
ATOM      4  O   UNL     1      11.100  10.695   9.287  0.00  0.00    -0.269 OA
ATOM      5  N   UNL     1       9.219   9.969   8.142  0.00  0.00    -0.307 N 
ATOM     23  C   UNL     1       9.944  10.866   8.907  0.00  0.00    +0.263 C 
ATOM     36  H   UNL     1       8.247  10.174   7.925  0.00  0.00    +0.149 HD
BRANCH  23  24
ATOM      7  N   UNL     1       8.397  11.993  10.359  0.00  0.00    -0.250 NA
ATOM     24  C   UNL     1       9.228  12.107   9.299  0.00  0.00    +0.125 A 
ATOM     26  C   UNL     1       9.432  13.284   8.596  0.00  0.00    +0.033 A 
ATOM     28  C   UNL     1       8.738  14.415   9.007  0.00  0.00    +0.004 A 
ATOM     29  C   UNL     1       7.739  13.115  10.730  0.00  0.00    +0.111 A 
ATOM     32  C   UNL     1       7.873  14.338  10.093  0.00  0.00    +0.020 A 
ENDBRANCH  23  24
ENDBRANCH  15   5
BRANCH  11   2
ATOM      2  O   UNL     1      11.858   7.972   3.853  0.00  0.00    -0.391 OA
ATOM     37  H   UNL     1      11.481   8.790   3.487  0.00  0.00    +0.210 HD
ENDBRANCH  11   2
BRANCH  14  19
ATOM     19  C   UNL     1      11.427   5.513   2.305  0.00  0.00    +0.077 C 
ATOM     21  C   UNL     1      10.559   4.375   1.781  0.00  0.00    +0.017 C 
BRANCH  19  22
ATOM      3  O   UNL     1      13.749   6.163   2.081  0.00  0.00    -0.276 OA
ATOM      6  N   UNL     1      13.158   3.975   1.590  0.00  0.00    -0.311 N 
ATOM     22  C   UNL     1      12.901   5.279   1.988  0.00  0.00    +0.216 C 
ATOM     38  H   UNL     1      12.411   3.288   1.589  0.00  0.00    +0.149 HD
BRANCH   6  25
ATOM     25  C   UNL     1      14.480   3.513   1.235  0.00  0.00    +0.141 C 
BRANCH  25  27
ATOM      1 CL   UNL     1      12.618   3.071  -1.188  0.00  0.00    -0.083 Cl
ATOM     27  C   UNL     1      14.921   4.043  -0.099  0.00  0.00    -0.012 A 
ATOM     30  C   UNL     1      14.140   3.886  -1.244  0.00  0.00    +0.046 A 
ATOM     31  C   UNL     1      16.146   4.705  -0.177  0.00  0.00    +0.006 A 
ATOM     33  C   UNL     1      14.584   4.391  -2.466  0.00  0.00    +0.020 A 
ATOM     34  C   UNL     1      16.589   5.211  -1.398  0.00  0.00    +0.000 A 
ATOM     35  C   UNL     1      15.808   5.054  -2.543  0.00  0.00    +0.001 A 
ENDBRANCH  25  27
ENDBRANCH   6  25
ENDBRANCH  19  22
ENDBRANCH  14  19
TORSDOF 7
ENDMDL
MODEL 6
REMARK VINA RESULT:      -6.8     25.712     29.918
REMARK  Name = 45361604
REMARK  10 active torsions:
REMARK  status: ('A' for Active; 'I' for Inactive)
REMARK    1  A    between atoms: O_2  and  C_11
REMARK    2  A    between atoms: N_5  and  C_15
REMARK    3  A    between atoms: N_6  and  C_25
REMARK    4  A    between atoms: C_8  and  C_18
REMARK    5  A    between atoms: C_10  and  C_20
REMARK    6  A    between atoms: C_14  and  C_19
REMARK    7  A    between atoms: C_19  and  C_21
REMARK    8  A    between atoms: C_19  and  C_22
REMARK    9  A    between atoms: C_23  and  C_24
REMARK   10  A    between atoms: C_25  and  C_27
REMARK                            x       y       z     vdW  Elec       q    Type
REMARK                         _______ _______ _______ _____ _____    ______ ____
ROOT
ATOM      8  C   UNL     1       9.494   6.088   6.058  0.00  0.00    -0.027 C 
ATOM      9  C   UNL     1      10.419   7.263   5.598  0.00  0.00    +0.028 C 
ATOM     10  C   UNL     1       9.868   8.641   6.114  0.00  0.00    +0.012 C 
ATOM     11  C   UNL     1      10.710   7.189   4.072  0.00  0.00    +0.122 C 
ATOM     12  C   UNL     1      10.124   4.740   5.632  0.00  0.00    +0.007 C 
ATOM     13  C   UNL     1       9.398   6.095   7.601  0.00  0.00    +0.009 C 
ATOM     14  C   UNL     1      11.241   5.804   3.635  0.00  0.00    +0.029 C 
ATOM     15  C   UNL     1       9.705   8.611   7.660  0.00  0.00    +0.076 C 
ATOM     16  C   UNL     1      10.374   4.648   4.132  0.00  0.00    +0.007 C 
ATOM     17  C   UNL     1       8.894   7.418   8.162  0.00  0.00    +0.023 C 
ATOM     18  C   UNL     1       8.069   6.183   5.457  0.00  0.00    +0.011 C 
ATOM     20  C   UNL     1      10.747   9.841   5.722  0.00  0.00    +0.010 C 
ENDROOT
BRANCH  15   5
ATOM      4  O   UNL     1      10.958  10.635   9.266  0.00  0.00    -0.269 OA
ATOM      5  N   UNL     1       9.091   9.824   8.157  0.00  0.00    -0.307 N 
ATOM     23  C   UNL     1       9.782  10.742   8.928  0.00  0.00    +0.263 C 
ATOM     36  H   UNL     1       8.101   9.973   7.978  0.00  0.00    +0.149 HD
BRANCH  23  24
ATOM      7  N   UNL     1       8.675  11.937  10.695  0.00  0.00    -0.250 NA
ATOM     24  C   UNL     1       9.002  11.922   9.383  0.00  0.00    +0.125 A 
ATOM     26  C   UNL     1       8.655  12.919   8.486  0.00  0.00    +0.033 A 
ATOM     28  C   UNL     1       7.927  14.001   8.966  0.00  0.00    +0.004 A 
ATOM     29  C   UNL     1       7.966  13.005  11.125  0.00  0.00    +0.111 A 
ATOM     32  C   UNL     1       7.571  14.053  10.309  0.00  0.00    +0.020 A 
ENDBRANCH  23  24
ENDBRANCH  15   5
BRANCH  11   2
ATOM      2  O   UNL     1      11.720   8.139   3.732  0.00  0.00    -0.391 OA
ATOM     37  H   UNL     1      12.480   7.997   4.321  0.00  0.00    +0.210 HD
ENDBRANCH  11   2
BRANCH  14  19
ATOM     19  C   UNL     1      11.398   5.709   2.112  0.00  0.00    +0.077 C 
ATOM     21  C   UNL     1      10.833   4.385   1.609  0.00  0.00    +0.017 C 
BRANCH  19  22
ATOM      3  O   UNL     1      13.285   5.641   0.597  0.00  0.00    -0.276 OA
ATOM      6  N   UNL     1      13.650   6.289   2.793  0.00  0.00    -0.311 N 
ATOM     22  C   UNL     1      12.865   5.868   1.729  0.00  0.00    +0.216 C 
ATOM     38  H   UNL     1      13.220   6.506   3.686  0.00  0.00    +0.149 HD
BRANCH   6  25
ATOM     25  C   UNL     1      15.073   6.508   2.675  0.00  0.00    +0.141 C 
BRANCH  25  27
ATOM      1 CL   UNL     1      17.641   8.159   2.211  0.00  0.00    -0.083 Cl
ATOM     27  C   UNL     1      15.615   7.307   3.825  0.00  0.00    -0.012 A 
ATOM     30  C   UNL     1      16.770   8.079   3.700  0.00  0.00    +0.046 A 
ATOM     31  C   UNL     1      14.935   7.263   5.042  0.00  0.00    +0.006 A 
ATOM     33  C   UNL     1      17.244   8.808   4.792  0.00  0.00    +0.020 A 
ATOM     34  C   UNL     1      15.408   7.992   6.132  0.00  0.00    +0.000 A 
ATOM     35  C   UNL     1      16.562   8.764   6.007  0.00  0.00    +0.001 A 
ENDBRANCH  25  27
ENDBRANCH   6  25
ENDBRANCH  19  22
ENDBRANCH  14  19
TORSDOF 7
ENDMDL
MODEL 7
REMARK VINA RESULT:      -6.8     27.421     32.091
REMARK  Name = 45361604
REMARK  10 active torsions:
REMARK  status: ('A' for Active; 'I' for Inactive)
REMARK    1  A    between atoms: O_2  and  C_11
REMARK    2  A    between atoms: N_5  and  C_15
REMARK    3  A    between atoms: N_6  and  C_25
REMARK    4  A    between atoms: C_8  and  C_18
REMARK    5  A    between atoms: C_10  and  C_20
REMARK    6  A    between atoms: C_14  and  C_19
REMARK    7  A    between atoms: C_19  and  C_21
REMARK    8  A    between atoms: C_19  and  C_22
REMARK    9  A    between atoms: C_23  and  C_24
REMARK   10  A    between atoms: C_25  and  C_27
REMARK                            x       y       z     vdW  Elec       q    Type
REMARK                         _______ _______ _______ _____ _____    ______ ____
ROOT
ATOM      8  C   UNL     1      13.764   4.871   0.291  0.00  0.00    -0.027 C 
ATOM      9  C   UNL     1      12.202   4.793   0.248  0.00  0.00    +0.028 C 
ATOM     10  C   UNL     1      11.610   4.660   1.698  0.00  0.00    +0.012 C 
ATOM     11  C   UNL     1      11.717   3.726  -0.773  0.00  0.00    +0.122 C 
ATOM     12  C   UNL     1      14.307   5.117  -1.138  0.00  0.00    +0.007 C 
ATOM     13  C   UNL     1      14.187   6.072   1.167  0.00  0.00    +0.009 C 
ATOM     14  C   UNL     1      12.344   3.915  -2.174  0.00  0.00    +0.029 C 
ATOM     15  C   UNL     1      12.102   5.833   2.591  0.00  0.00    +0.076 C 
ATOM     16  C   UNL     1      13.866   4.050  -2.132  0.00  0.00    +0.007 C 
ATOM     17  C   UNL     1      13.620   6.010   2.579  0.00  0.00    +0.023 C 
ATOM     18  C   UNL     1      14.408   3.578   0.852  0.00  0.00    +0.011 C 
ATOM     20  C   UNL     1      10.073   4.607   1.733  0.00  0.00    +0.010 C 
ENDROOT
BRANCH  15   5
ATOM      4  O   UNL     1      10.140   7.420   3.960  0.00  0.00    -0.269 OA
ATOM      5  N   UNL     1      11.670   5.679   3.964  0.00  0.00    -0.307 N 
ATOM     23  C   UNL     1      10.713   6.498   4.536  0.00  0.00    +0.263 C 
ATOM     36  H   UNL     1      12.131   4.978   4.540  0.00  0.00    +0.149 HD
BRANCH  23  24
ATOM      7  N   UNL     1      10.451   7.299   6.787  0.00  0.00    -0.250 NA
ATOM     24  C   UNL     1      10.399   6.228   5.963  0.00  0.00    +0.125 A 
ATOM     26  C   UNL     1      10.079   4.945   6.378  0.00  0.00    +0.033 A 
ATOM     28  C   UNL     1       9.793   4.750   7.723  0.00  0.00    +0.004 A 
ATOM     29  C   UNL     1      10.166   7.070   8.089  0.00  0.00    +0.111 A 
ATOM     32  C   UNL     1       9.835   5.826   8.602  0.00  0.00    +0.020 A 
ENDBRANCH  23  24
ENDBRANCH  15   5
BRANCH  11   2
ATOM      2  O   UNL     1      10.303   3.833  -0.942  0.00  0.00    -0.391 OA
ATOM     37  H   UNL     1       9.882   3.122  -0.431  0.00  0.00    +0.210 HD
ENDBRANCH  11   2
BRANCH  14  19
ATOM     19  C   UNL     1      11.957   2.778  -3.129  0.00  0.00    +0.077 C 
ATOM     21  C   UNL     1      12.792   2.856  -4.402  0.00  0.00    +0.017 C 
BRANCH  19  22
ATOM      3  O   UNL     1       9.701   1.906  -3.225  0.00  0.00    -0.276 OA
ATOM      6  N   UNL     1      10.088   4.065  -3.979  0.00  0.00    -0.311 N 
ATOM     22  C   UNL     1      10.465   2.844  -3.438  0.00  0.00    +0.216 C 
ATOM     38  H   UNL     1      10.770   4.810  -4.076  0.00  0.00    +0.149 HD
BRANCH   6  25
ATOM     25  C   UNL     1       8.726   4.364  -4.356  0.00  0.00    +0.141 C 
BRANCH  25  27
ATOM      1 CL   UNL     1       5.968   5.453  -5.219  0.00  0.00    -0.083 Cl
ATOM     27  C   UNL     1       8.221   5.612  -3.691  0.00  0.00    -0.012 A 
ATOM     30  C   UNL     1       6.986   6.170  -4.022  0.00  0.00    +0.046 A 
ATOM     31  C   UNL     1       9.020   6.215  -2.720  0.00  0.00    +0.006 A 
ATOM     33  C   UNL     1       6.551   7.331  -3.382  0.00  0.00    +0.020 A 
ATOM     34  C   UNL     1       8.585   7.375  -2.080  0.00  0.00    +0.000 A 
ATOM     35  C   UNL     1       7.350   7.933  -2.411  0.00  0.00    +0.001 A 
ENDBRANCH  25  27
ENDBRANCH   6  25
ENDBRANCH  19  22
ENDBRANCH  14  19
TORSDOF 7
ENDMDL
MODEL 8
REMARK VINA RESULT:      -6.7      9.027     13.405
REMARK  Name = 45361604
REMARK  10 active torsions:
REMARK  status: ('A' for Active; 'I' for Inactive)
REMARK    1  A    between atoms: O_2  and  C_11
REMARK    2  A    between atoms: N_5  and  C_15
REMARK    3  A    between atoms: N_6  and  C_25
REMARK    4  A    between atoms: C_8  and  C_18
REMARK    5  A    between atoms: C_10  and  C_20
REMARK    6  A    between atoms: C_14  and  C_19
REMARK    7  A    between atoms: C_19  and  C_21
REMARK    8  A    between atoms: C_19  and  C_22
REMARK    9  A    between atoms: C_23  and  C_24
REMARK   10  A    between atoms: C_25  and  C_27
REMARK                            x       y       z     vdW  Elec       q    Type
REMARK                         _______ _______ _______ _____ _____    ______ ____
ROOT
ATOM      8  C   UNL     1     -14.836   1.964  31.271  0.00  0.00    -0.027 C 
ATOM      9  C   UNL     1     -16.250   2.609  31.096  0.00  0.00    +0.028 C 
ATOM     10  C   UNL     1     -16.624   2.732  29.574  0.00  0.00    +0.012 C 
ATOM     11  C   UNL     1     -16.381   3.919  31.924  0.00  0.00    +0.122 C 
ATOM     12  C   UNL     1     -14.549   1.752  32.777  0.00  0.00    +0.007 C 
ATOM     13  C   UNL     1     -14.826   0.575  30.591  0.00  0.00    +0.009 C 
ATOM     14  C   UNL     1     -15.991   3.724  33.408  0.00  0.00    +0.029 C 
ATOM     15  C   UNL     1     -16.538   1.342  28.884  0.00  0.00    +0.076 C 
ATOM     16  C   UNL     1     -14.636   3.041  33.585  0.00  0.00    +0.007 C 
ATOM     17  C   UNL     1     -15.207   0.629  29.118  0.00  0.00    +0.023 C 
ATOM     18  C   UNL     1     -13.706   2.835  30.667  0.00  0.00    +0.011 C 
ATOM     20  C   UNL     1     -18.018   3.333  29.329  0.00  0.00    +0.010 C 
ENDROOT
BRANCH  15   5
ATOM      4  O   UNL     1     -18.402  -0.198  27.335  0.00  0.00    -0.269 OA
ATOM      5  N   UNL     1     -16.762   1.437  27.457  0.00  0.00    -0.307 N 
ATOM     23  C   UNL     1     -17.688   0.647  26.798  0.00  0.00    +0.263 C 
ATOM     36  H   UNL     1     -16.176   2.068  26.917  0.00  0.00    +0.149 HD
BRANCH  23  24
ATOM      7  N   UNL     1     -18.224  -0.216  24.621  0.00  0.00    -0.250 NA
ATOM     24  C   UNL     1     -17.780   0.846  25.329  0.00  0.00    +0.125 A 
ATOM     26  C   UNL     1     -17.423   2.061  24.765  0.00  0.00    +0.033 A 
ATOM     28  C   UNL     1     -17.530   2.193  23.386  0.00  0.00    +0.004 A 
ATOM     29  C   UNL     1     -18.314  -0.050  23.282  0.00  0.00    +0.111 A 
ATOM     32  C   UNL     1     -17.983   1.123  22.623  0.00  0.00    +0.020 A 
ENDBRANCH  23  24
ENDBRANCH  15   5
BRANCH  11   2
ATOM      2  O   UNL     1     -17.739   4.358  31.913  0.00  0.00    -0.391 OA
ATOM     37  H   UNL     1     -17.851   5.012  32.623  0.00  0.00    +0.210 HD
ENDBRANCH  11   2
BRANCH  14  19
ATOM     19  C   UNL     1     -15.999   5.051  34.177  0.00  0.00    +0.077 C 
ATOM     21  C   UNL     1     -17.393   5.330  34.729  0.00  0.00    +0.017 C 
BRANCH  19  22
ATOM      3  O   UNL     1     -16.297   6.863  32.599  0.00  0.00    -0.276 OA
ATOM      6  N   UNL     1     -14.147   6.338  33.291  0.00  0.00    -0.311 N 
ATOM     22  C   UNL     1     -15.525   6.182  33.269  0.00  0.00    +0.216 C 
ATOM     38  H   UNL     1     -13.581   5.769  33.912  0.00  0.00    +0.149 HD
BRANCH   6  25
ATOM     25  C   UNL     1     -13.463   7.343  32.511  0.00  0.00    +0.141 C 
BRANCH  25  27
ATOM      1 CL   UNL     1     -11.457   9.210  31.087  0.00  0.00    -0.083 Cl
ATOM     27  C   UNL     1     -12.581   8.211  33.362  0.00  0.00    -0.012 A 
ATOM     30  C   UNL     1     -11.648   9.082  32.799  0.00  0.00    +0.046 A 
ATOM     31  C   UNL     1     -12.711   8.130  34.748  0.00  0.00    +0.006 A 
ATOM     33  C   UNL     1     -10.846   9.872  33.622  0.00  0.00    +0.020 A 
ATOM     34  C   UNL     1     -11.909   8.920  35.571  0.00  0.00    +0.000 A 
ATOM     35  C   UNL     1     -10.977   9.792  35.008  0.00  0.00    +0.001 A 
ENDBRANCH  25  27
ENDBRANCH   6  25
ENDBRANCH  19  22
ENDBRANCH  14  19
TORSDOF 7
ENDMDL
MODEL 9
REMARK VINA RESULT:      -6.7     15.144     16.732
REMARK  Name = 45361604
REMARK  10 active torsions:
REMARK  status: ('A' for Active; 'I' for Inactive)
REMARK    1  A    between atoms: O_2  and  C_11
REMARK    2  A    between atoms: N_5  and  C_15
REMARK    3  A    between atoms: N_6  and  C_25
REMARK    4  A    between atoms: C_8  and  C_18
REMARK    5  A    between atoms: C_10  and  C_20
REMARK    6  A    between atoms: C_14  and  C_19
REMARK    7  A    between atoms: C_19  and  C_21
REMARK    8  A    between atoms: C_19  and  C_22
REMARK    9  A    between atoms: C_23  and  C_24
REMARK   10  A    between atoms: C_25  and  C_27
REMARK                            x       y       z     vdW  Elec       q    Type
REMARK                         _______ _______ _______ _____ _____    ______ ____
ROOT
ATOM      8  C   UNL     1     -11.411  -9.389  13.722  0.00  0.00    -0.027 C 
ATOM      9  C   UNL     1     -11.157  -8.243  14.756  0.00  0.00    +0.028 C 
ATOM     10  C   UNL     1     -10.255  -8.747  15.939  0.00  0.00    +0.012 C 
ATOM     11  C   UNL     1     -12.488  -7.556  15.176  0.00  0.00    +0.122 C 
ATOM     12  C   UNL     1     -12.205  -8.829  12.516  0.00  0.00    +0.007 C 
ATOM     13  C   UNL     1     -10.053  -9.902  13.192  0.00  0.00    +0.009 C 
ATOM     14  C   UNL     1     -13.327  -7.092  13.963  0.00  0.00    +0.029 C 
ATOM     15  C   UNL     1      -8.922  -9.329  15.389  0.00  0.00    +0.076 C 
ATOM     16  C   UNL     1     -13.528  -8.192  12.921  0.00  0.00    +0.007 C 
ATOM     17  C   UNL     1      -9.123 -10.381  14.299  0.00  0.00    +0.023 C 
ATOM     18  C   UNL     1     -12.202 -10.574  14.331  0.00  0.00    +0.011 C 
ATOM     20  C   UNL     1      -9.940  -7.660  16.980  0.00  0.00    +0.010 C 
ENDROOT
BRANCH  15   5
ATOM      4  O   UNL     1      -6.058  -9.518  15.450  0.00  0.00    -0.269 OA
ATOM      5  N   UNL     1      -8.116  -9.909  16.443  0.00  0.00    -0.307 N 
ATOM     23  C   UNL     1      -6.734  -9.954  16.379  0.00  0.00    +0.263 C 
ATOM     36  H   UNL     1      -8.591 -10.349  17.227  0.00  0.00    +0.149 HD
BRANCH  23  24
ATOM      7  N   UNL     1      -6.830 -10.844  18.609  0.00  0.00    -0.250 NA
ATOM     24  C   UNL     1      -6.055 -10.606  17.527  0.00  0.00    +0.125 A 
ATOM     26  C   UNL     1      -4.710 -10.933  17.450  0.00  0.00    +0.033 A 
ATOM     28  C   UNL     1      -4.125 -11.543  18.553  0.00  0.00    +0.004 A 
ATOM     29  C   UNL     1      -6.226 -11.438  19.662  0.00  0.00    +0.111 A 
ATOM     32  C   UNL     1      -4.890 -11.804  19.684  0.00  0.00    +0.020 A 
ENDBRANCH  23  24
ENDBRANCH  15   5
BRANCH  11   2
ATOM      2  O   UNL     1     -12.201  -6.387  15.944  0.00  0.00    -0.391 OA
ATOM     37  H   UNL     1     -11.966  -5.671  15.330  0.00  0.00    +0.210 HD
ENDBRANCH  11   2
BRANCH  14  19
ATOM     19  C   UNL     1     -14.691  -6.537  14.392  0.00  0.00    +0.077 C 
ATOM     21  C   UNL     1     -15.695  -7.675  14.542  0.00  0.00    +0.017 C 
BRANCH  19  22
ATOM      3  O   UNL     1     -16.145  -5.683  12.655  0.00  0.00    -0.276 OA
ATOM      6  N   UNL     1     -14.392  -4.353  13.386  0.00  0.00    -0.311 N 
ATOM     22  C   UNL     1     -15.172  -5.500  13.383  0.00  0.00    +0.216 C 
ATOM     38  H   UNL     1     -13.635  -4.256  14.055  0.00  0.00    +0.149 HD
BRANCH   6  25
ATOM     25  C   UNL     1     -14.650  -3.231  12.514  0.00  0.00    +0.141 C 
BRANCH  25  27
ATOM      1 CL   UNL     1     -16.109  -2.794   9.828  0.00  0.00    -0.083 Cl
ATOM     27  C   UNL     1     -13.840  -3.302  11.252  0.00  0.00    -0.012 A 
ATOM     30  C   UNL     1     -14.421  -3.116   9.997  0.00  0.00    +0.046 A 
ATOM     31  C   UNL     1     -12.474  -3.561  11.355  0.00  0.00    +0.006 A 
ATOM     33  C   UNL     1     -13.636  -3.190   8.847  0.00  0.00    +0.020 A 
ATOM     34  C   UNL     1     -11.689  -3.635  10.205  0.00  0.00    +0.000 A 
ATOM     35  C   UNL     1     -12.270  -3.449   8.951  0.00  0.00    +0.001 A 
ENDBRANCH  25  27
ENDBRANCH   6  25
ENDBRANCH  19  22
ENDBRANCH  14  19
TORSDOF 7
ENDMDL
MODEL 10
REMARK VINA RESULT:      -6.6     26.996     32.012
REMARK  Name = 45361604
REMARK  10 active torsions:
REMARK  status: ('A' for Active; 'I' for Inactive)
REMARK    1  A    between atoms: O_2  and  C_11
REMARK    2  A    between atoms: N_5  and  C_15
REMARK    3  A    between atoms: N_6  and  C_25
REMARK    4  A    between atoms: C_8  and  C_18
REMARK    5  A    between atoms: C_10  and  C_20
REMARK    6  A    between atoms: C_14  and  C_19
REMARK    7  A    between atoms: C_19  and  C_21
REMARK    8  A    between atoms: C_19  and  C_22
REMARK    9  A    between atoms: C_23  and  C_24
REMARK   10  A    between atoms: C_25  and  C_27
REMARK                            x       y       z     vdW  Elec       q    Type
REMARK                         _______ _______ _______ _____ _____    ______ ____
ROOT
ATOM      8  C   UNL     1      13.566   6.942   1.618  0.00  0.00    -0.027 C 
ATOM      9  C   UNL     1      12.550   5.765   1.453  0.00  0.00    +0.028 C 
ATOM     10  C   UNL     1      12.061   5.248   2.854  0.00  0.00    +0.012 C 
ATOM     11  C   UNL     1      13.102   4.672   0.494  0.00  0.00    +0.122 C 
ATOM     12  C   UNL     1      13.939   7.501   0.224  0.00  0.00    +0.007 C 
ATOM     13  C   UNL     1      12.893   8.082   2.417  0.00  0.00    +0.009 C 
ATOM     14  C   UNL     1      13.570   5.253  -0.861  0.00  0.00    +0.029 C 
ATOM     15  C   UNL     1      11.454   6.418   3.678  0.00  0.00    +0.076 C 
ATOM     16  C   UNL     1      14.518   6.442  -0.705  0.00  0.00    +0.007 C 
ATOM     17  C   UNL     1      12.375   7.634   3.776  0.00  0.00    +0.023 C 
ATOM     18  C   UNL     1      14.865   6.509   2.344  0.00  0.00    +0.011 C 
ATOM     20  C   UNL     1      11.034   4.106   2.766  0.00  0.00    +0.010 C 
ENDROOT
BRANCH  15   5
ATOM      4  O   UNL     1       8.882   6.674   4.929  0.00  0.00    -0.269 OA
ATOM      5  N   UNL     1      11.099   6.003   5.019  0.00  0.00    -0.307 N 
ATOM     23  C   UNL     1       9.826   6.170   5.534  0.00  0.00    +0.263 C 
ATOM     36  H   UNL     1      11.830   5.628   5.617  0.00  0.00    +0.149 HD
BRANCH  23  24
ATOM      7  N   UNL     1       9.172   6.654   7.795  0.00  0.00    -0.250 NA
ATOM     24  C   UNL     1       9.629   5.716   6.935  0.00  0.00    +0.125 A 
ATOM     26  C   UNL     1       9.909   4.407   7.291  0.00  0.00    +0.033 A 
ATOM     28  C   UNL     1       9.706   4.036   8.615  0.00  0.00    +0.004 A 
ATOM     29  C   UNL     1       8.987   6.256   9.074  0.00  0.00    +0.111 A 
ATOM     32  C   UNL     1       9.237   4.971   9.530  0.00  0.00    +0.020 A 
ENDBRANCH  23  24
ENDBRANCH  15   5
BRANCH  11   2
ATOM      2  O   UNL     1      12.071   3.730   0.199  0.00  0.00    -0.391 OA
ATOM     37  H   UNL     1      12.392   2.845   0.440  0.00  0.00    +0.210 HD
ENDBRANCH  11   2
BRANCH  14  19
ATOM     19  C   UNL     1      14.231   4.184  -1.740  0.00  0.00    +0.077 C 
ATOM     21  C   UNL     1      15.622   4.640  -2.165  0.00  0.00    +0.017 C 
BRANCH  19  22
ATOM      3  O   UNL     1      13.668   4.198  -4.095  0.00  0.00    -0.276 OA
ATOM      6  N   UNL     1      12.171   3.242  -2.603  0.00  0.00    -0.311 N 
ATOM     22  C   UNL     1      13.350   3.887  -2.950  0.00  0.00    +0.216 C 
ATOM     38  H   UNL     1      12.004   2.973  -1.639  0.00  0.00    +0.149 HD
BRANCH   6  25
ATOM     25  C   UNL     1      11.175   2.860  -3.577  0.00  0.00    +0.141 C 
BRANCH  25  27
ATOM      1 CL   UNL     1       9.566   3.013  -6.208  0.00  0.00    -0.083 Cl
ATOM     27  C   UNL     1      10.062   3.864  -3.666  0.00  0.00    -0.012 A 
ATOM     30  C   UNL     1       9.287   3.998  -4.818  0.00  0.00    +0.046 A 
ATOM     31  C   UNL     1       9.812   4.676  -2.560  0.00  0.00    +0.006 A 
ATOM     33  C   UNL     1       8.262   4.943  -4.863  0.00  0.00    +0.020 A 
ATOM     34  C   UNL     1       8.787   5.620  -2.605  0.00  0.00    +0.000 A 
ATOM     35  C   UNL     1       8.012   5.754  -3.756  0.00  0.00    +0.001 A 
ENDBRANCH  25  27
ENDBRANCH   6  25
ENDBRANCH  19  22
ENDBRANCH  14  19
TORSDOF 7
ENDMDL
