MODEL 1
REMARK VINA RESULT:      -6.6      0.000      0.000
REMARK  Name = 56774417
REMARK  4 active torsions:
REMARK  status: ('A' for Active; 'I' for Inactive)
REMARK    1  A    between atoms: N_1  and  C_10
REMARK    2  A    between atoms: N_2  and  C_14
REMARK    3  A    between atoms: C_5  and  C_9
REMARK    4  A    between atoms: C_10  and  C_13
REMARK                            x       y       z     vdW  Elec       q    Type
REMARK                         _______ _______ _______ _____ _____    ______ ____
ROOT
ATOM      1  N   UNL     1      11.377  10.317  22.263  0.00  0.00    -0.296 NA
ATOM      5  C   UNL     1      12.738   9.298  20.648  0.00  0.00    +0.070 C 
ATOM      6  C   UNL     1      11.459   8.466  20.843  0.00  0.00    +0.028 C 
ATOM      7  C   UNL     1      12.785  10.231  21.865  0.00  0.00    +0.096 C 
ATOM      8  C   UNL     1      10.872   8.948  22.163  0.00  0.00    +0.085 C 
ENDROOT
BRANCH   5   9
ATOM      2  N   UNL     1      14.267   7.780  19.338  0.00  0.00    -0.330 N 
ATOM      3  N   UNL     1      14.966   8.370  21.364  0.00  0.00    -0.232 NA
ATOM      9  C   UNL     1      14.003   8.489  20.477  0.00  0.00    +0.115 A 
ATOM     11  C   UNL     1      15.480   7.164  19.500  0.00  0.00    +0.069 A 
ATOM     12  C   UNL     1      15.896   7.546  20.772  0.00  0.00    +0.089 A 
ATOM     14  C   UNL     1      13.420   7.695  18.169  0.00  0.00    +0.150 C 
ATOM     15  C   UNL     1      16.227   6.328  18.669  0.00  0.00    +0.028 A 
ATOM     16  C   UNL     1      17.129   7.078  21.260  0.00  0.00    +0.030 A 
ATOM     18  C   UNL     1      17.450   5.871  19.169  0.00  0.00    +0.002 A 
ATOM     19  C   UNL     1      17.895   6.238  20.441  0.00  0.00    +0.002 A 
ENDBRANCH   5   9
BRANCH   1  10
ATOM     10  C   UNL     1      11.211  10.874  23.597  0.00  0.00    +0.139 C 
BRANCH  10  13
ATOM      4  N   UNL     1      10.608  12.861  22.328  0.00  0.00    -0.259 NA
ATOM     13  C   UNL     1      10.781  12.316  23.553  0.00  0.00    +0.055 A 
ATOM     17  C   UNL     1      10.585  13.001  24.741  0.00  0.00    +0.024 A 
ATOM     20  C   UNL     1      10.187  14.332  24.667  0.00  0.00    +0.003 A 
ATOM     21  C   UNL     1      10.221  14.155  22.296  0.00  0.00    +0.111 A 
ATOM     22  C   UNL     1       9.999  14.927  23.425  0.00  0.00    +0.020 A 
ENDBRANCH  10  13
ENDBRANCH   1  10
TORSDOF 3
ENDMDL
MODEL 2
REMARK VINA RESULT:      -6.1     16.677     19.859
REMARK  Name = 56774417
REMARK  4 active torsions:
REMARK  status: ('A' for Active; 'I' for Inactive)
REMARK    1  A    between atoms: N_1  and  C_10
REMARK    2  A    between atoms: N_2  and  C_14
REMARK    3  A    between atoms: C_5  and  C_9
REMARK    4  A    between atoms: C_10  and  C_13
REMARK                            x       y       z     vdW  Elec       q    Type
REMARK                         _______ _______ _______ _____ _____    ______ ____
ROOT
ATOM      1  N   UNL     1      10.625   5.805   4.423  0.00  0.00    -0.296 NA
ATOM      5  C   UNL     1      11.812   4.921   2.604  0.00  0.00    +0.070 C 
ATOM      6  C   UNL     1      12.293   6.355   2.884  0.00  0.00    +0.028 C 
ATOM      7  C   UNL     1      10.487   4.799   3.367  0.00  0.00    +0.096 C 
ATOM      8  C   UNL     1      11.209   6.971   3.759  0.00  0.00    +0.085 C 
ENDROOT
BRANCH   5   9
ATOM      2  N   UNL     1      12.648   3.869   0.470  0.00  0.00    -0.330 N 
ATOM      3  N   UNL     1      10.670   4.877   0.360  0.00  0.00    -0.232 NA
ATOM      9  C   UNL     1      11.682   4.568   1.140  0.00  0.00    +0.115 A 
ATOM     11  C   UNL     1      12.231   3.716  -0.827  0.00  0.00    +0.069 A 
ATOM     12  C   UNL     1      10.995   4.354  -0.871  0.00  0.00    +0.089 A 
ATOM     14  C   UNL     1      13.888   3.378   1.028  0.00  0.00    +0.150 C 
ATOM     15  C   UNL     1      12.813   3.094  -1.932  0.00  0.00    +0.028 A 
ATOM     16  C   UNL     1      10.281   4.382  -2.081  0.00  0.00    +0.030 A 
ATOM     18  C   UNL     1      12.090   3.131  -3.128  0.00  0.00    +0.002 A 
ATOM     19  C   UNL     1      10.846   3.763  -3.204  0.00  0.00    +0.002 A 
ENDBRANCH   5   9
BRANCH   1  10
ATOM     10  C   UNL     1       9.358   6.112   5.068  0.00  0.00    +0.139 C 
BRANCH  10  13
ATOM      4  N   UNL     1       9.814   4.569   6.894  0.00  0.00    -0.259 NA
ATOM     13  C   UNL     1       9.389   5.803   6.541  0.00  0.00    +0.055 A 
ATOM     17  C   UNL     1       8.991   6.774   7.446  0.00  0.00    +0.024 A 
ATOM     20  C   UNL     1       9.033   6.457   8.800  0.00  0.00    +0.003 A 
ATOM     21  C   UNL     1       9.841   4.298   8.217  0.00  0.00    +0.111 A 
ATOM     22  C   UNL     1       9.465   5.198   9.201  0.00  0.00    +0.020 A 
ENDBRANCH  10  13
ENDBRANCH   1  10
TORSDOF 3
ENDMDL
MODEL 3
REMARK VINA RESULT:      -6.1      4.374      8.083
REMARK  Name = 56774417
REMARK  4 active torsions:
REMARK  status: ('A' for Active; 'I' for Inactive)
REMARK    1  A    between atoms: N_1  and  C_10
REMARK    2  A    between atoms: N_2  and  C_14
REMARK    3  A    between atoms: C_5  and  C_9
REMARK    4  A    between atoms: C_10  and  C_13
REMARK                            x       y       z     vdW  Elec       q    Type
REMARK                         _______ _______ _______ _____ _____    ______ ____
ROOT
ATOM      1  N   UNL     1      17.243   7.888  21.162  0.00  0.00    -0.296 NA
ATOM      5  C   UNL     1      15.036   7.810  20.376  0.00  0.00    +0.070 C 
ATOM      6  C   UNL     1      15.662   6.408  20.290  0.00  0.00    +0.028 C 
ATOM      7  C   UNL     1      16.227   8.758  20.565  0.00  0.00    +0.096 C 
ATOM      8  C   UNL     1      17.163   6.639  20.405  0.00  0.00    +0.085 C 
ENDROOT
BRANCH   5   9
ATOM      2  N   UNL     1      12.819   7.934  19.180  0.00  0.00    -0.330 N 
ATOM      3  N   UNL     1      14.567   8.785  18.102  0.00  0.00    -0.232 NA
ATOM      9  C   UNL     1      14.162   8.189  19.202  0.00  0.00    +0.115 A 
ATOM     11  C   UNL     1      12.324   8.396  17.988  0.00  0.00    +0.069 A 
ATOM     12  C   UNL     1      13.434   8.922  17.333  0.00  0.00    +0.089 A 
ATOM     14  C   UNL     1      12.055   7.292  20.226  0.00  0.00    +0.150 C 
ATOM     15  C   UNL     1      11.040   8.397  17.443  0.00  0.00    +0.028 A 
ATOM     16  C   UNL     1      13.271   9.489  16.057  0.00  0.00    +0.030 A 
ATOM     18  C   UNL     1      10.896   8.965  16.173  0.00  0.00    +0.002 A 
ATOM     19  C   UNL     1      11.990   9.502  15.491  0.00  0.00    +0.002 A 
ENDBRANCH   5   9
BRANCH   1  10
ATOM     10  C   UNL     1      18.573   8.478  21.121  0.00  0.00    +0.139 C 
BRANCH  10  13
ATOM      4  N   UNL     1      19.714   7.245  22.881  0.00  0.00    -0.259 NA
ATOM     13  C   UNL     1      19.633   7.502  21.556  0.00  0.00    +0.055 A 
ATOM     17  C   UNL     1      20.457   6.924  20.603  0.00  0.00    +0.024 A 
ATOM     20  C   UNL     1      21.425   6.026  21.039  0.00  0.00    +0.003 A 
ATOM     21  C   UNL     1      20.666   6.367  23.266  0.00  0.00    +0.111 A 
ATOM     22  C   UNL     1      21.538   5.737  22.393  0.00  0.00    +0.020 A 
ENDBRANCH  10  13
ENDBRANCH   1  10
TORSDOF 3
ENDMDL
MODEL 4
REMARK VINA RESULT:      -6.1     27.315     29.845
REMARK  Name = 56774417
REMARK  4 active torsions:
REMARK  status: ('A' for Active; 'I' for Inactive)
REMARK    1  A    between atoms: N_1  and  C_10
REMARK    2  A    between atoms: N_2  and  C_14
REMARK    3  A    between atoms: C_5  and  C_9
REMARK    4  A    between atoms: C_10  and  C_13
REMARK                            x       y       z     vdW  Elec       q    Type
REMARK                         _______ _______ _______ _____ _____    ______ ____
ROOT
ATOM      1  N   UNL     1      -4.842 -11.355  17.564  0.00  0.00    -0.296 NA
ATOM      5  C   UNL     1      -6.661 -10.434  18.721  0.00  0.00    +0.070 C 
ATOM      6  C   UNL     1      -5.760 -11.199  19.705  0.00  0.00    +0.028 C 
ATOM      7  C   UNL     1      -6.221 -10.917  17.334  0.00  0.00    +0.096 C 
ATOM      8  C   UNL     1      -4.885 -12.087  18.830  0.00  0.00    +0.085 C 
ENDROOT
BRANCH   5   9
ATOM      2  N   UNL     1      -9.078  -9.862  18.284  0.00  0.00    -0.330 N 
ATOM      3  N   UNL     1      -8.700 -11.437  19.806  0.00  0.00    -0.232 NA
ATOM      9  C   UNL     1      -8.145 -10.600  18.958  0.00  0.00    +0.115 A 
ATOM     11  C   UNL     1     -10.317 -10.249  18.725  0.00  0.00    +0.069 A 
ATOM     12  C   UNL     1     -10.055 -11.232  19.675  0.00  0.00    +0.089 A 
ATOM     14  C   UNL     1      -8.809  -8.854  17.283  0.00  0.00    +0.150 C 
ATOM     15  C   UNL     1     -11.605  -9.834  18.386  0.00  0.00    +0.028 A 
ATOM     16  C   UNL     1     -11.130 -11.850  20.336  0.00  0.00    +0.030 A 
ATOM     18  C   UNL     1     -12.664 -10.460  19.052  0.00  0.00    +0.002 A 
ATOM     19  C   UNL     1     -12.433 -11.450  20.010  0.00  0.00    +0.002 A 
ENDBRANCH   5   9
BRANCH   1  10
ATOM     10  C   UNL     1      -4.326 -12.167  16.472  0.00  0.00    +0.139 C 
BRANCH  10  13
ATOM      4  N   UNL     1      -3.561 -11.348  14.312  0.00  0.00    -0.259 NA
ATOM     13  C   UNL     1      -3.320 -11.416  15.641  0.00  0.00    +0.055 A 
ATOM     17  C   UNL     1      -2.222 -10.842  16.261  0.00  0.00    +0.024 A 
ATOM     20  C   UNL     1      -1.312 -10.154  15.465  0.00  0.00    +0.003 A 
ATOM     21  C   UNL     1      -2.655 -10.672  13.572  0.00  0.00    +0.111 A 
ATOM     22  C   UNL     1      -1.526 -10.063  14.094  0.00  0.00    +0.020 A 
ENDBRANCH  10  13
ENDBRANCH   1  10
TORSDOF 3
ENDMDL
MODEL 5
REMARK VINA RESULT:      -6.1     27.146     29.452
REMARK  Name = 56774417
REMARK  4 active torsions:
REMARK  status: ('A' for Active; 'I' for Inactive)
REMARK    1  A    between atoms: N_1  and  C_10
REMARK    2  A    between atoms: N_2  and  C_14
REMARK    3  A    between atoms: C_5  and  C_9
REMARK    4  A    between atoms: C_10  and  C_13
REMARK                            x       y       z     vdW  Elec       q    Type
REMARK                         _______ _______ _______ _____ _____    ______ ____
ROOT
ATOM      1  N   UNL     1      -4.325 -10.604  14.638  0.00  0.00    -0.296 NA
ATOM      5  C   UNL     1      -5.637 -10.112  16.518  0.00  0.00    +0.070 C 
ATOM      6  C   UNL     1      -4.178 -10.336  16.953  0.00  0.00    +0.028 C 
ATOM      7  C   UNL     1      -5.713 -10.689  15.099  0.00  0.00    +0.096 C 
ATOM      8  C   UNL     1      -3.522 -11.048  15.777  0.00  0.00    +0.085 C 
ENDROOT
BRANCH   5   9
ATOM      2  N   UNL     1      -7.873 -10.083  17.682  0.00  0.00    -0.330 N 
ATOM      3  N   UNL     1      -6.559 -11.820  18.121  0.00  0.00    -0.232 NA
ATOM      9  C   UNL     1      -6.675 -10.697  17.449  0.00  0.00    +0.115 A 
ATOM     11  C   UNL     1      -8.579 -10.861  18.563  0.00  0.00    +0.069 A 
ATOM     12  C   UNL     1      -7.737 -11.939  18.823  0.00  0.00    +0.089 A 
ATOM     14  C   UNL     1      -8.321  -8.835  17.105  0.00  0.00    +0.150 C 
ATOM     15  C   UNL     1      -9.841 -10.718  19.139  0.00  0.00    +0.028 A 
ATOM     16  C   UNL     1      -8.166 -12.945  19.706  0.00  0.00    +0.030 A 
ATOM     18  C   UNL     1     -10.252 -11.728  20.015  0.00  0.00    +0.002 A 
ATOM     19  C   UNL     1      -9.431 -12.822  20.295  0.00  0.00    +0.002 A 
ENDBRANCH   5   9
BRANCH   1  10
ATOM     10  C   UNL     1      -4.086 -11.404  13.446  0.00  0.00    +0.139 C 
BRANCH  10  13
ATOM      4  N   UNL     1      -4.953 -10.054  11.617  0.00  0.00    -0.259 NA
ATOM     13  C   UNL     1      -3.854 -10.545  12.232  0.00  0.00    +0.055 A 
ATOM     17  C   UNL     1      -2.556 -10.302  11.811  0.00  0.00    +0.024 A 
ATOM     20  C   UNL     1      -2.376  -9.504  10.687  0.00  0.00    +0.003 A 
ATOM     21  C   UNL     1      -4.738  -9.283  10.528  0.00  0.00    +0.111 A 
ATOM     22  C   UNL     1      -3.482  -8.981  10.028  0.00  0.00    +0.020 A 
ENDBRANCH  10  13
ENDBRANCH   1  10
TORSDOF 3
ENDMDL
MODEL 6
REMARK VINA RESULT:      -5.9     27.458     30.721
REMARK  Name = 56774417
REMARK  4 active torsions:
REMARK  status: ('A' for Active; 'I' for Inactive)
REMARK    1  A    between atoms: N_1  and  C_10
REMARK    2  A    between atoms: N_2  and  C_14
REMARK    3  A    between atoms: C_5  and  C_9
REMARK    4  A    between atoms: C_10  and  C_13
REMARK                            x       y       z     vdW  Elec       q    Type
REMARK                         _______ _______ _______ _____ _____    ______ ____
ROOT
ATOM      1  N   UNL     1       0.873   2.632  -6.627  0.00  0.00    -0.296 NA
ATOM      5  C   UNL     1       1.430   4.860  -6.154  0.00  0.00    +0.070 C 
ATOM      6  C   UNL     1       1.944   4.487  -7.555  0.00  0.00    +0.028 C 
ATOM      7  C   UNL     1       1.116   3.516  -5.484  0.00  0.00    +0.096 C 
ATOM      8  C   UNL     1       1.921   2.965  -7.592  0.00  0.00    +0.085 C 
ENDROOT
BRANCH   5   9
ATOM      2  N   UNL     1       2.315   7.084  -5.362  0.00  0.00    -0.330 N 
ATOM      3  N   UNL     1       3.319   5.279  -4.542  0.00  0.00    -0.232 NA
ATOM      9  C   UNL     1       2.371   5.718  -5.339  0.00  0.00    +0.115 A 
ATOM     11  C   UNL     1       3.291   7.557  -4.524  0.00  0.00    +0.069 A 
ATOM     12  C   UNL     1       3.905   6.411  -4.025  0.00  0.00    +0.089 A 
ATOM     14  C   UNL     1       1.393   7.889  -6.132  0.00  0.00    +0.150 C 
ATOM     15  C   UNL     1       3.680   8.850  -4.172  0.00  0.00    +0.028 A 
ATOM     16  C   UNL     1       4.970   6.544  -3.118  0.00  0.00    +0.030 A 
ATOM     18  C   UNL     1       4.742   8.964  -3.268  0.00  0.00    +0.002 A 
ATOM     19  C   UNL     1       5.376   7.833  -2.749  0.00  0.00    +0.002 A 
ENDBRANCH   5   9
BRANCH   1  10
ATOM     10  C   UNL     1       0.888   1.225  -6.254  0.00  0.00    +0.139 C 
BRANCH  10  13
ATOM      4  N   UNL     1      -1.217   1.187  -7.474  0.00  0.00    -0.259 NA
ATOM     13  C   UNL     1      -0.399   0.535  -6.618  0.00  0.00    +0.055 A 
ATOM     17  C   UNL     1      -0.679  -0.708  -6.072  0.00  0.00    +0.024 A 
ATOM     20  C   UNL     1      -1.876  -1.320  -6.429  0.00  0.00    +0.003 A 
ATOM     21  C   UNL     1      -2.370   0.561  -7.797  0.00  0.00    +0.111 A 
ATOM     22  C   UNL     1      -2.742  -0.680  -7.307  0.00  0.00    +0.020 A 
ENDBRANCH  10  13
ENDBRANCH   1  10
TORSDOF 3
ENDMDL
MODEL 7
REMARK VINA RESULT:      -5.9     17.009     21.135
REMARK  Name = 56774417
REMARK  4 active torsions:
REMARK  status: ('A' for Active; 'I' for Inactive)
REMARK    1  A    between atoms: N_1  and  C_10
REMARK    2  A    between atoms: N_2  and  C_14
REMARK    3  A    between atoms: C_5  and  C_9
REMARK    4  A    between atoms: C_10  and  C_13
REMARK                            x       y       z     vdW  Elec       q    Type
REMARK                         _______ _______ _______ _____ _____    ______ ____
ROOT
ATOM      1  N   UNL     1      11.369   5.071   0.689  0.00  0.00    -0.296 NA
ATOM      5  C   UNL     1      10.294   6.295   2.376  0.00  0.00    +0.070 C 
ATOM      6  C   UNL     1      11.528   7.071   1.884  0.00  0.00    +0.028 C 
ATOM      7  C   UNL     1      10.495   4.869   1.847  0.00  0.00    +0.096 C 
ATOM      8  C   UNL     1      12.367   6.043   1.136  0.00  0.00    +0.085 C 
ENDROOT
BRANCH   5   9
ATOM      2  N   UNL     1       9.127   7.158   4.438  0.00  0.00    -0.330 N 
ATOM      3  N   UNL     1      10.715   5.639   4.770  0.00  0.00    -0.232 NA
ATOM      9  C   UNL     1      10.066   6.343   3.869  0.00  0.00    +0.115 A 
ATOM     11  C   UNL     1       9.172   6.967   5.794  0.00  0.00    +0.069 A 
ATOM     12  C   UNL     1      10.172   6.015   5.977  0.00  0.00    +0.089 A 
ATOM     14  C   UNL     1       8.242   8.061   3.736  0.00  0.00    +0.150 C 
ATOM     15  C   UNL     1       8.448   7.529   6.846  0.00  0.00    +0.028 A 
ATOM     16  C   UNL     1      10.479   5.586   7.279  0.00  0.00    +0.030 A 
ATOM     18  C   UNL     1       8.766   7.091   8.135  0.00  0.00    +0.002 A 
ATOM     19  C   UNL     1       9.763   6.136   8.350  0.00  0.00    +0.002 A 
ENDBRANCH   5   9
BRANCH   1  10
ATOM     10  C   UNL     1      11.973   3.831   0.226  0.00  0.00    +0.139 C 
BRANCH  10  13
ATOM      4  N   UNL     1      10.497   4.070  -1.694  0.00  0.00    -0.259 NA
ATOM     13  C   UNL     1      11.655   3.559  -1.220  0.00  0.00    +0.055 A 
ATOM     17  C   UNL     1      12.543   2.816  -1.981  0.00  0.00    +0.024 A 
ATOM     20  C   UNL     1      12.221   2.583  -3.314  0.00  0.00    +0.003 A 
ATOM     21  C   UNL     1      10.218   3.824  -2.993  0.00  0.00    +0.111 A 
ATOM     22  C   UNL     1      11.039   3.094  -3.837  0.00  0.00    +0.020 A 
ENDBRANCH  10  13
ENDBRANCH   1  10
TORSDOF 3
ENDMDL
MODEL 8
REMARK VINA RESULT:      -5.8     25.625     28.153
REMARK  Name = 56774417
REMARK  4 active torsions:
REMARK  status: ('A' for Active; 'I' for Inactive)
REMARK    1  A    between atoms: N_1  and  C_10
REMARK    2  A    between atoms: N_2  and  C_14
REMARK    3  A    between atoms: C_5  and  C_9
REMARK    4  A    between atoms: C_10  and  C_13
REMARK                            x       y       z     vdW  Elec       q    Type
REMARK                         _______ _______ _______ _____ _____    ______ ____
ROOT
ATOM      1  N   UNL     1     -15.781   5.373  23.136  0.00  0.00    -0.296 NA
ATOM      5  C   UNL     1     -14.490   7.223  22.496  0.00  0.00    +0.070 C 
ATOM      6  C   UNL     1     -15.963   7.473  22.130  0.00  0.00    +0.028 C 
ATOM      7  C   UNL     1     -14.406   5.715  22.765  0.00  0.00    +0.096 C 
ATOM      8  C   UNL     1     -16.620   6.100  22.182  0.00  0.00    +0.085 C 
ENDROOT
BRANCH   5   9
ATOM      2  N   UNL     1     -12.902   8.926  21.529  0.00  0.00    -0.330 N 
ATOM      3  N   UNL     1     -13.078   7.007  20.423  0.00  0.00    -0.232 NA
ATOM      9  C   UNL     1     -13.489   7.694  21.465  0.00  0.00    +0.115 A 
ATOM     11  C   UNL     1     -12.055   9.043  20.458  0.00  0.00    +0.069 A 
ATOM     12  C   UNL     1     -12.183   7.833  19.782  0.00  0.00    +0.089 A 
ATOM     14  C   UNL     1     -13.131   9.930  22.545  0.00  0.00    +0.150 C 
ATOM     15  C   UNL     1     -11.214  10.073  20.034  0.00  0.00    +0.028 A 
ATOM     16  C   UNL     1     -11.434   7.620  18.612  0.00  0.00    +0.030 A 
ATOM     18  C   UNL     1     -10.476   9.844  18.868  0.00  0.00    +0.002 A 
ATOM     19  C   UNL     1     -10.582   8.640  18.169  0.00  0.00    +0.002 A 
ENDBRANCH   5   9
BRANCH   1  10
ATOM     10  C   UNL     1     -16.025   3.939  23.107  0.00  0.00    +0.139 C 
BRANCH  10  13
ATOM      4  N   UNL     1     -16.370   2.039  24.588  0.00  0.00    -0.259 NA
ATOM     13  C   UNL     1     -16.266   3.384  24.485  0.00  0.00    +0.055 A 
ATOM     17  C   UNL     1     -16.367   4.254  25.559  0.00  0.00    +0.024 A 
ATOM     20  C   UNL     1     -16.590   3.708  26.819  0.00  0.00    +0.003 A 
ATOM     21  C   UNL     1     -16.586   1.547  25.828  0.00  0.00    +0.111 A 
ATOM     22  C   UNL     1     -16.702   2.331  26.964  0.00  0.00    +0.020 A 
ENDBRANCH  10  13
ENDBRANCH   1  10
TORSDOF 3
ENDMDL
MODEL 9
REMARK VINA RESULT:      -5.7     26.986     29.069
REMARK  Name = 56774417
REMARK  4 active torsions:
REMARK  status: ('A' for Active; 'I' for Inactive)
REMARK    1  A    between atoms: N_1  and  C_10
REMARK    2  A    between atoms: N_2  and  C_14
REMARK    3  A    between atoms: C_5  and  C_9
REMARK    4  A    between atoms: C_10  and  C_13
REMARK                            x       y       z     vdW  Elec       q    Type
REMARK                         _______ _______ _______ _____ _____    ______ ____
ROOT
ATOM      1  N   UNL     1      -6.591 -10.135   9.512  0.00  0.00    -0.296 NA
ATOM      5  C   UNL     1      -4.648 -10.163  10.825  0.00  0.00    +0.070 C 
ATOM      6  C   UNL     1      -4.737 -11.465  10.010  0.00  0.00    +0.028 C 
ATOM      7  C   UNL     1      -6.056  -9.559  10.748  0.00  0.00    +0.096 C 
ATOM      8  C   UNL     1      -6.185 -11.541   9.545  0.00  0.00    +0.085 C 
ENDROOT
BRANCH   5   9
ATOM      2  N   UNL     1      -2.830 -10.288  12.567  0.00  0.00    -0.330 N 
ATOM      3  N   UNL     1      -4.913 -10.540  13.300  0.00  0.00    -0.232 NA
ATOM      9  C   UNL     1      -4.158 -10.334  12.245  0.00  0.00    +0.115 A 
ATOM     11  C   UNL     1      -2.721 -10.476  13.920  0.00  0.00    +0.069 A 
ATOM     12  C   UNL     1      -4.034 -10.632  14.355  0.00  0.00    +0.089 A 
ATOM     14  C   UNL     1      -1.734 -10.078  11.648  0.00  0.00    +0.150 C 
ATOM     15  C   UNL     1      -1.619 -10.523  14.776  0.00  0.00    +0.028 A 
ATOM     16  C   UNL     1      -4.282 -10.847  15.722  0.00  0.00    +0.030 A 
ATOM     18  C   UNL     1      -1.884 -10.738  16.132  0.00  0.00    +0.002 A 
ATOM     19  C   UNL     1      -3.190 -10.897  16.599  0.00  0.00    +0.002 A 
ENDBRANCH   5   9
BRANCH   1  10
ATOM     10  C   UNL     1      -8.033  -9.977   9.403  0.00  0.00    +0.139 C 
BRANCH  10  13
ATOM      4  N   UNL     1      -9.387  -7.955   9.405  0.00  0.00    -0.259 NA
ATOM     13  C   UNL     1      -8.408  -8.655   8.789  0.00  0.00    +0.055 A 
ATOM     17  C   UNL     1      -7.748  -8.226   7.649  0.00  0.00    +0.024 A 
ATOM     20  C   UNL     1      -8.117  -6.999   7.107  0.00  0.00    +0.003 A 
ATOM     21  C   UNL     1      -9.718  -6.769   8.850  0.00  0.00    +0.111 A 
ATOM     22  C   UNL     1      -9.119  -6.251   7.712  0.00  0.00    +0.020 A 
ENDBRANCH  10  13
ENDBRANCH   1  10
TORSDOF 3
ENDMDL
MODEL 10
REMARK VINA RESULT:      -5.7     15.021     17.585
REMARK  Name = 56774417
REMARK  4 active torsions:
REMARK  status: ('A' for Active; 'I' for Inactive)
REMARK    1  A    between atoms: N_1  and  C_10
REMARK    2  A    between atoms: N_2  and  C_14
REMARK    3  A    between atoms: C_5  and  C_9
REMARK    4  A    between atoms: C_10  and  C_13
REMARK                            x       y       z     vdW  Elec       q    Type
REMARK                         _______ _______ _______ _____ _____    ______ ____
ROOT
ATOM      1  N   UNL     1      16.401   9.017   4.947  0.00  0.00    -0.296 NA
ATOM      5  C   UNL     1      14.437   7.819   4.496  0.00  0.00    +0.070 C 
ATOM      6  C   UNL     1      14.276   9.271   4.015  0.00  0.00    +0.028 C 
ATOM      7  C   UNL     1      15.656   7.850   5.427  0.00  0.00    +0.096 C 
ATOM      8  C   UNL     1      15.386  10.044   4.715  0.00  0.00    +0.085 C 
ENDROOT
BRANCH   5   9
ATOM      2  N   UNL     1      12.214   6.631   4.432  0.00  0.00    -0.330 N 
ATOM      3  N   UNL     1      12.959   7.214   6.443  0.00  0.00    -0.232 NA
ATOM      9  C   UNL     1      13.211   7.227   5.153  0.00  0.00    +0.115 A 
ATOM     11  C   UNL     1      11.256   6.203   5.314  0.00  0.00    +0.069 A 
ATOM     12  C   UNL     1      11.744   6.580   6.563  0.00  0.00    +0.089 A 
ATOM     14  C   UNL     1      12.174   6.476   2.995  0.00  0.00    +0.150 C 
ATOM     15  C   UNL     1      10.042   5.541   5.133  0.00  0.00    +0.028 A 
ATOM     16  C   UNL     1      10.988   6.284   7.710  0.00  0.00    +0.030 A 
ATOM     18  C   UNL     1       9.302   5.256   6.285  0.00  0.00    +0.002 A 
ATOM     19  C   UNL     1       9.765   5.619   7.552  0.00  0.00    +0.002 A 
ENDBRANCH   5   9
BRANCH   1  10
ATOM     10  C   UNL     1      17.422   9.450   5.890  0.00  0.00    +0.139 C 
BRANCH  10  13
ATOM      4  N   UNL     1      18.928   8.144   4.495  0.00  0.00    -0.259 NA
ATOM     13  C   UNL     1      18.708   8.688   5.713  0.00  0.00    +0.055 A 
ATOM     17  C   UNL     1      19.586   8.583   6.780  0.00  0.00    +0.024 A 
ATOM     20  C   UNL     1      20.766   7.874   6.583  0.00  0.00    +0.003 A 
ATOM     21  C   UNL     1      20.085   7.462   4.343  0.00  0.00    +0.111 A 
ATOM     22  C   UNL     1      21.028   7.300   5.345  0.00  0.00    +0.020 A 
ENDBRANCH  10  13
ENDBRANCH   1  10
TORSDOF 3
ENDMDL
