MODEL 1
REMARK VINA RESULT:      -6.9      0.000      0.000
REMARK  Name = 38029166
REMARK  14 active torsions:
REMARK  status: ('A' for Active; 'I' for Inactive)
REMARK    1  A    between atoms: O_3  and  C_31
REMARK    2  A    between atoms: O_3  and  C_35
REMARK    3  A    between atoms: N_4  and  C_15
REMARK    4  A    between atoms: N_5  and  C_22
REMARK    5  A    between atoms: N_5  and  C_23
REMARK    6  A    between atoms: N_6  and  C_25
REMARK    7  A    between atoms: C_8  and  C_12
REMARK    8  A    between atoms: C_9  and  C_15
REMARK    9  A    between atoms: C_11  and  C_16
REMARK   10  A    between atoms: C_12  and  C_17
REMARK   11  A    between atoms: C_12  and  C_18
REMARK   12  A    between atoms: C_13  and  C_19
REMARK   13  A    between atoms: C_16  and  C_20
REMARK   14  A    between atoms: C_22  and  C_24
REMARK                            x       y       z     vdW  Elec       q    Type
REMARK                         _______ _______ _______ _____ _____    ______ ____
ROOT
ATOM      8  C   UNL     1      12.037   9.167  20.586  0.00  0.00    +0.000 C 
ATOM      9  C   UNL     1      11.988   8.739  19.098  0.00  0.00    +0.032 C 
ATOM     10  C   UNL     1      12.019  10.698  20.705  0.00  0.00    +0.012 C 
ATOM     11  C   UNL     1      13.203  11.353  19.968  0.00  0.00    +0.023 C 
ATOM     13  C   UNL     1      13.385  10.784  18.575  0.00  0.00    -0.073 C 
ATOM     14  C   UNL     1      12.823   9.622  18.201  0.00  0.00    -0.022 C 
ATOM     19  C   UNL     1      14.190  11.605  17.608  0.00  0.00    +0.039 C 
ENDROOT
BRANCH   8  12
ATOM     12  C   UNL     1      10.876   8.571  21.388  0.00  0.00    -0.013 C 
ATOM     17  C   UNL     1      11.245   7.184  21.907  0.00  0.00    +0.007 C 
ATOM     18  C   UNL     1      10.494   9.496  22.539  0.00  0.00    +0.007 C 
ENDBRANCH   8  12
BRANCH   9  15
ATOM     15  C   UNL     1      12.423   7.279  18.927  0.00  0.00    +0.113 C 
BRANCH  15   4
ATOM      2  O   UNL     1      14.499   6.678  20.806  0.00  0.00    -0.253 OA
ATOM      4  N   UNL     1      13.823   7.196  18.654  0.00  0.00    -0.299 N 
ATOM      6  N   UNL     1      16.072   6.884  19.074  0.00  0.00    -0.269 N 
ATOM     21  C   UNL     1      14.790   6.895  19.632  0.00  0.00    +0.304 C 
ATOM     36  H   UNL     1      14.136   7.294  17.694  0.00  0.00    +0.150 HD
ATOM     37  H   UNL     1      16.139   7.087  18.080  0.00  0.00    +0.156 HD
BRANCH   6  25
ATOM     25  C   UNL     1      17.300   6.624  19.727  0.00  0.00    +0.038 A 
ATOM     28  C   UNL     1      17.783   7.516  20.685  0.00  0.00    +0.069 A 
ATOM     29  C   UNL     1      18.029   5.477  19.413  0.00  0.00    +0.023 A 
ATOM     31  C   UNL     1      18.994   7.260  21.328  0.00  0.00    +0.122 A 
ATOM     33  C   UNL     1      19.240   5.221  20.055  0.00  0.00    +0.005 A 
ATOM     34  C   UNL     1      19.722   6.113  21.014  0.00  0.00    +0.046 A 
BRANCH  31   3
ATOM      3  O   UNL     1      19.466   8.132  22.262  0.00  0.00    -0.495 OA
ATOM     35  C   UNL     1      18.988   9.474  22.195  0.00  0.00    +0.277 C 
ENDBRANCH  31   3
ENDBRANCH   6  25
ENDBRANCH  15   4
ENDBRANCH   9  15
BRANCH  11  16
ATOM     16  C   UNL     1      14.496  11.232  20.783  0.00  0.00    +0.103 C 
BRANCH  16  20
ATOM      1  O   UNL     1      15.545  13.360  20.434  0.00  0.00    -0.276 OA
ATOM      5  N   UNL     1      14.860  12.872  22.595  0.00  0.00    -0.300 N 
ATOM     20  C   UNL     1      15.018  12.583  21.235  0.00  0.00    +0.216 C 
ATOM     23  C   UNL     1      15.309  14.127  23.186  0.00  0.00    +0.132 C 
BRANCH   5  22
ATOM     22  C   UNL     1      14.231  11.937  23.526  0.00  0.00    +0.144 C 
BRANCH  22  24
ATOM      7  N   UNL     1      10.900  13.722  23.413  0.00  0.00    -0.263 NA
ATOM     24  C   UNL     1      12.839  12.361  23.894  0.00  0.00    -0.012 A 
ATOM     26  C   UNL     1      12.198  11.827  25.007  0.00  0.00    +0.008 A 
ATOM     27  C   UNL     1      12.152  13.297  23.137  0.00  0.00    +0.115 A 
ATOM     30  C   UNL     1      10.908  12.240  25.323  0.00  0.00    +0.020 A 
ATOM     32  C   UNL     1      10.309  13.182  24.503  0.00  0.00    +0.111 A 
ENDBRANCH  22  24
ENDBRANCH   5  22
ENDBRANCH  16  20
ENDBRANCH  11  16
TORSDOF 9
ENDMDL
MODEL 2
REMARK VINA RESULT:      -6.8      2.249      5.762
REMARK  Name = 38029166
REMARK  14 active torsions:
REMARK  status: ('A' for Active; 'I' for Inactive)
REMARK    1  A    between atoms: O_3  and  C_31
REMARK    2  A    between atoms: O_3  and  C_35
REMARK    3  A    between atoms: N_4  and  C_15
REMARK    4  A    between atoms: N_5  and  C_22
REMARK    5  A    between atoms: N_5  and  C_23
REMARK    6  A    between atoms: N_6  and  C_25
REMARK    7  A    between atoms: C_8  and  C_12
REMARK    8  A    between atoms: C_9  and  C_15
REMARK    9  A    between atoms: C_11  and  C_16
REMARK   10  A    between atoms: C_12  and  C_17
REMARK   11  A    between atoms: C_12  and  C_18
REMARK   12  A    between atoms: C_13  and  C_19
REMARK   13  A    between atoms: C_16  and  C_20
REMARK   14  A    between atoms: C_22  and  C_24
REMARK                            x       y       z     vdW  Elec       q    Type
REMARK                         _______ _______ _______ _____ _____    ______ ____
ROOT
ATOM      8  C   UNL     1      15.027  12.123  21.072  0.00  0.00    +0.000 C 
ATOM      9  C   UNL     1      15.619  12.870  22.293  0.00  0.00    +0.032 C 
ATOM     10  C   UNL     1      13.492  12.134  21.129  0.00  0.00    +0.012 C 
ATOM     11  C   UNL     1      12.952  11.477  22.414  0.00  0.00    +0.023 C 
ATOM     13  C   UNL     1      13.679  11.972  23.648  0.00  0.00    -0.073 C 
ATOM     14  C   UNL     1      14.863  12.604  23.573  0.00  0.00    -0.022 C 
ATOM     19  C   UNL     1      12.991  11.763  24.968  0.00  0.00    +0.039 C 
ENDROOT
BRANCH   8  12
ATOM     12  C   UNL     1      15.501  12.730  19.749  0.00  0.00    -0.013 C 
ATOM     17  C   UNL     1      15.510  11.671  18.651  0.00  0.00    +0.007 C 
ATOM     18  C   UNL     1      14.616  13.909  19.356  0.00  0.00    +0.007 C 
ENDBRANCH   8  12
BRANCH   9  15
ATOM     15  C   UNL     1      17.099  12.521  22.491  0.00  0.00    +0.113 C 
BRANCH  15   4
ATOM      2  O   UNL     1      18.276  10.666  20.654  0.00  0.00    -0.253 OA
ATOM      4  N   UNL     1      17.266  11.115  22.687  0.00  0.00    -0.299 N 
ATOM      6  N   UNL     1      17.883   8.944  22.202  0.00  0.00    -0.269 N 
ATOM     21  C   UNL     1      17.856  10.262  21.736  0.00  0.00    +0.304 C 
ATOM     36  H   UNL     1      17.007  10.717  23.584  0.00  0.00    +0.150 HD
ATOM     37  H   UNL     1      17.490   8.778  23.125  0.00  0.00    +0.156 HD
BRANCH   6  25
ATOM     25  C   UNL     1      18.393   7.801  21.542  0.00  0.00    +0.038 A 
ATOM     28  C   UNL     1      19.646   7.296  21.890  0.00  0.00    +0.069 A 
ATOM     29  C   UNL     1      17.643   7.179  20.544  0.00  0.00    +0.023 A 
ATOM     31  C   UNL     1      20.148   6.168  21.239  0.00  0.00    +0.122 A 
ATOM     33  C   UNL     1      18.144   6.052  19.893  0.00  0.00    +0.005 A 
ATOM     34  C   UNL     1      19.398   5.547  20.241  0.00  0.00    +0.046 A 
BRANCH  31   3
ATOM      3  O   UNL     1      21.371   5.677  21.578  0.00  0.00    -0.495 OA
ATOM     35  C   UNL     1      22.387   5.720  20.577  0.00  0.00    +0.277 C 
ENDBRANCH  31   3
ENDBRANCH   6  25
ENDBRANCH  15   4
ENDBRANCH   9  15
BRANCH  11  16
ATOM     16  C   UNL     1      13.010   9.949  22.319  0.00  0.00    +0.103 C 
BRANCH  16  20
ATOM      1  O   UNL     1      10.642   9.970  22.696  0.00  0.00    -0.276 OA
ATOM      5  N   UNL     1      11.565   7.979  21.949  0.00  0.00    -0.300 N 
ATOM     20  C   UNL     1      11.629   9.319  22.344  0.00  0.00    +0.216 C 
ATOM     23  C   UNL     1      10.314   7.231  21.918  0.00  0.00    +0.132 C 
BRANCH   5  22
ATOM     22  C   UNL     1      12.747   7.227  21.534  0.00  0.00    +0.144 C 
BRANCH  22  24
ATOM      7  N   UNL     1      12.386   7.230  17.770  0.00  0.00    -0.263 NA
ATOM     24  C   UNL     1      13.065   7.433  20.081  0.00  0.00    -0.012 A 
ATOM     26  C   UNL     1      14.276   7.991  19.685  0.00  0.00    +0.008 A 
ATOM     27  C   UNL     1      12.163   7.073  19.094  0.00  0.00    +0.115 A 
ATOM     30  C   UNL     1      14.542   8.169  18.331  0.00  0.00    +0.020 A 
ATOM     32  C   UNL     1      13.574   7.775  17.422  0.00  0.00    +0.111 A 
ENDBRANCH  22  24
ENDBRANCH   5  22
ENDBRANCH  16  20
ENDBRANCH  11  16
TORSDOF 9
ENDMDL
MODEL 3
REMARK VINA RESULT:      -6.6      1.448      2.112
REMARK  Name = 38029166
REMARK  14 active torsions:
REMARK  status: ('A' for Active; 'I' for Inactive)
REMARK    1  A    between atoms: O_3  and  C_31
REMARK    2  A    between atoms: O_3  and  C_35
REMARK    3  A    between atoms: N_4  and  C_15
REMARK    4  A    between atoms: N_5  and  C_22
REMARK    5  A    between atoms: N_5  and  C_23
REMARK    6  A    between atoms: N_6  and  C_25
REMARK    7  A    between atoms: C_8  and  C_12
REMARK    8  A    between atoms: C_9  and  C_15
REMARK    9  A    between atoms: C_11  and  C_16
REMARK   10  A    between atoms: C_12  and  C_17
REMARK   11  A    between atoms: C_12  and  C_18
REMARK   12  A    between atoms: C_13  and  C_19
REMARK   13  A    between atoms: C_16  and  C_20
REMARK   14  A    between atoms: C_22  and  C_24
REMARK                            x       y       z     vdW  Elec       q    Type
REMARK                         _______ _______ _______ _____ _____    ______ ____
ROOT
ATOM      8  C   UNL     1      12.505   8.632  21.083  0.00  0.00    +0.000 C 
ATOM      9  C   UNL     1      12.430   7.771  19.797  0.00  0.00    +0.032 C 
ATOM     10  C   UNL     1      12.137  10.091  20.775  0.00  0.00    +0.012 C 
ATOM     11  C   UNL     1      13.064  10.714  19.714  0.00  0.00    +0.023 C 
ATOM     13  C   UNL     1      13.255   9.798  18.522  0.00  0.00    -0.073 C 
ATOM     14  C   UNL     1      12.953   8.488  18.574  0.00  0.00    -0.022 C 
ATOM     19  C   UNL     1      13.757  10.430  17.255  0.00  0.00    +0.039 C 
ENDROOT
BRANCH   8  12
ATOM     12  C   UNL     1      11.591   8.088  22.185  0.00  0.00    -0.013 C 
ATOM     17  C   UNL     1      10.931   9.236  22.943  0.00  0.00    +0.007 C 
ATOM     18  C   UNL     1      10.540   7.155  21.593  0.00  0.00    +0.007 C 
ENDBRANCH   8  12
BRANCH   9  15
ATOM     15  C   UNL     1      13.181   6.447  19.973  0.00  0.00    +0.113 C 
BRANCH  15   4
ATOM      2  O   UNL     1      15.893   6.650  19.073  0.00  0.00    -0.253 OA
ATOM      4  N   UNL     1      14.341   6.626  20.789  0.00  0.00    -0.299 N 
ATOM      6  N   UNL     1      16.576   6.890  21.307  0.00  0.00    -0.269 N 
ATOM     21  C   UNL     1      15.648   6.718  20.275  0.00  0.00    +0.304 C 
ATOM     36  H   UNL     1      14.215   6.761  21.787  0.00  0.00    +0.150 HD
ATOM     37  H   UNL     1      16.204   6.923  22.253  0.00  0.00    +0.156 HD
BRANCH   6  25
ATOM     25  C   UNL     1      17.980   7.023  21.198  0.00  0.00    +0.038 A 
ATOM     28  C   UNL     1      18.742   5.971  20.690  0.00  0.00    +0.069 A 
ATOM     29  C   UNL     1      18.602   8.205  21.599  0.00  0.00    +0.023 A 
ATOM     31  C   UNL     1      20.128   6.102  20.583  0.00  0.00    +0.122 A 
ATOM     33  C   UNL     1      19.986   8.337  21.493  0.00  0.00    +0.005 A 
ATOM     34  C   UNL     1      20.749   7.285  20.984  0.00  0.00    +0.046 A 
BRANCH  31   3
ATOM      3  O   UNL     1      20.871   5.075  20.089  0.00  0.00    -0.495 OA
ATOM     35  C   UNL     1      21.050   3.939  20.933  0.00  0.00    +0.277 C 
ENDBRANCH  31   3
ENDBRANCH   6  25
ENDBRANCH  15   4
ENDBRANCH   9  15
BRANCH  11  16
ATOM     16  C   UNL     1      14.414  11.108  20.324  0.00  0.00    +0.103 C 
BRANCH  16  20
ATOM      1  O   UNL     1      14.653  13.368  19.562  0.00  0.00    -0.276 OA
ATOM      5  N   UNL     1      14.515  13.045  21.854  0.00  0.00    -0.300 N 
ATOM     20  C   UNL     1      14.538  12.606  20.526  0.00  0.00    +0.216 C 
ATOM     23  C   UNL     1      14.623  14.453  22.215  0.00  0.00    +0.132 C 
BRANCH   5  22
ATOM     22  C   UNL     1      14.377  12.125  22.981  0.00  0.00    +0.144 C 
BRANCH  22  24
ATOM      7  N   UNL     1      12.113  12.701  25.954  0.00  0.00    -0.263 NA
ATOM     24  C   UNL     1      13.141  12.402  23.787  0.00  0.00    -0.012 A 
ATOM     26  C   UNL     1      11.913  12.608  23.166  0.00  0.00    +0.008 A 
ATOM     27  C   UNL     1      13.186  12.458  25.170  0.00  0.00    +0.115 A 
ATOM     30  C   UNL     1      10.785  12.862  23.940  0.00  0.00    +0.020 A 
ATOM     32  C   UNL     1      10.936  12.896  25.316  0.00  0.00    +0.111 A 
ENDBRANCH  22  24
ENDBRANCH   5  22
ENDBRANCH  16  20
ENDBRANCH  11  16
TORSDOF 9
ENDMDL
MODEL 4
REMARK VINA RESULT:      -6.6      3.542      6.067
REMARK  Name = 38029166
REMARK  14 active torsions:
REMARK  status: ('A' for Active; 'I' for Inactive)
REMARK    1  A    between atoms: O_3  and  C_31
REMARK    2  A    between atoms: O_3  and  C_35
REMARK    3  A    between atoms: N_4  and  C_15
REMARK    4  A    between atoms: N_5  and  C_22
REMARK    5  A    between atoms: N_5  and  C_23
REMARK    6  A    between atoms: N_6  and  C_25
REMARK    7  A    between atoms: C_8  and  C_12
REMARK    8  A    between atoms: C_9  and  C_15
REMARK    9  A    between atoms: C_11  and  C_16
REMARK   10  A    between atoms: C_12  and  C_17
REMARK   11  A    between atoms: C_12  and  C_18
REMARK   12  A    between atoms: C_13  and  C_19
REMARK   13  A    between atoms: C_16  and  C_20
REMARK   14  A    between atoms: C_22  and  C_24
REMARK                            x       y       z     vdW  Elec       q    Type
REMARK                         _______ _______ _______ _____ _____    ______ ____
ROOT
ATOM      8  C   UNL     1      16.946   7.890  21.196  0.00  0.00    +0.000 C 
ATOM      9  C   UNL     1      18.487   8.042  21.124  0.00  0.00    +0.032 C 
ATOM     10  C   UNL     1      16.258   9.030  20.431  0.00  0.00    +0.012 C 
ATOM     11  C   UNL     1      16.639  10.416  20.985  0.00  0.00    +0.023 C 
ATOM     13  C   UNL     1      18.134  10.548  21.195  0.00  0.00    -0.073 C 
ATOM     14  C   UNL     1      18.945   9.476  21.240  0.00  0.00    -0.022 C 
ATOM     19  C   UNL     1      18.683  11.943  21.306  0.00  0.00    +0.039 C 
ENDROOT
BRANCH   8  12
ATOM     12  C   UNL     1      16.482   6.539  20.644  0.00  0.00    -0.013 C 
ATOM     17  C   UNL     1      14.973   6.549  20.416  0.00  0.00    +0.007 C 
ATOM     18  C   UNL     1      17.222   6.209  19.352  0.00  0.00    +0.007 C 
ENDBRANCH   8  12
BRANCH   9  15
ATOM     15  C   UNL     1      19.177   7.195  22.199  0.00  0.00    +0.113 C 
BRANCH  15   4
ATOM      2  O   UNL     1      21.328   5.748  23.417  0.00  0.00    -0.253 OA
ATOM      4  N   UNL     1      19.950   6.151  21.602  0.00  0.00    -0.299 N 
ATOM      6  N   UNL     1      21.569   4.513  21.435  0.00  0.00    -0.269 N 
ATOM     21  C   UNL     1      20.996   5.482  22.265  0.00  0.00    +0.304 C 
ATOM     36  H   UNL     1      19.692   5.826  20.676  0.00  0.00    +0.150 HD
ATOM     37  H   UNL     1      21.175   4.421  20.502  0.00  0.00    +0.156 HD
BRANCH   6  25
ATOM     25  C   UNL     1      22.639   3.637  21.734  0.00  0.00    +0.038 A 
ATOM     28  C   UNL     1      23.763   3.603  20.910  0.00  0.00    +0.069 A 
ATOM     29  C   UNL     1      22.569   2.806  22.852  0.00  0.00    +0.023 A 
ATOM     31  C   UNL     1      24.819   2.739  21.205  0.00  0.00    +0.122 A 
ATOM     33  C   UNL     1      23.622   1.941  23.147  0.00  0.00    +0.005 A 
ATOM     34  C   UNL     1      24.748   1.909  22.323  0.00  0.00    +0.046 A 
BRANCH  31   3
ATOM      3  O   UNL     1      25.915   2.706  20.399  0.00  0.00    -0.495 OA
ATOM     35  C   UNL     1      25.883   3.516  19.226  0.00  0.00    +0.277 C 
ENDBRANCH  31   3
ENDBRANCH   6  25
ENDBRANCH  15   4
ENDBRANCH   9  15
BRANCH  11  16
ATOM     16  C   UNL     1      15.875  10.724  22.277  0.00  0.00    +0.103 C 
BRANCH  16  20
ATOM      1  O   UNL     1      15.246  13.022  22.008  0.00  0.00    -0.276 OA
ATOM      5  N   UNL     1      13.529  11.464  22.042  0.00  0.00    -0.300 N 
ATOM     20  C   UNL     1      14.873  11.850  22.097  0.00  0.00    +0.216 C 
ATOM     23  C   UNL     1      12.446  12.425  21.873  0.00  0.00    +0.132 C 
BRANCH   5  22
ATOM     22  C   UNL     1      13.110  10.068  22.149  0.00  0.00    +0.144 C 
BRANCH  22  24
ATOM      7  N   UNL     1      10.810   8.290  19.731  0.00  0.00    -0.263 NA
ATOM     24  C   UNL     1      12.532   9.555  20.862  0.00  0.00    -0.012 A 
ATOM     26  C   UNL     1      13.138   9.836  19.642  0.00  0.00    +0.008 A 
ATOM     27  C   UNL     1      11.380   8.785  20.852  0.00  0.00    +0.115 A 
ATOM     30  C   UNL     1      12.580   9.344  18.466  0.00  0.00    +0.020 A 
ATOM     32  C   UNL     1      11.427   8.584  18.564  0.00  0.00    +0.111 A 
ENDBRANCH  22  24
ENDBRANCH   5  22
ENDBRANCH  16  20
ENDBRANCH  11  16
TORSDOF 9
ENDMDL
MODEL 5
REMARK VINA RESULT:      -6.6     27.336     30.410
REMARK  Name = 38029166
REMARK  14 active torsions:
REMARK  status: ('A' for Active; 'I' for Inactive)
REMARK    1  A    between atoms: O_3  and  C_31
REMARK    2  A    between atoms: O_3  and  C_35
REMARK    3  A    between atoms: N_4  and  C_15
REMARK    4  A    between atoms: N_5  and  C_22
REMARK    5  A    between atoms: N_5  and  C_23
REMARK    6  A    between atoms: N_6  and  C_25
REMARK    7  A    between atoms: C_8  and  C_12
REMARK    8  A    between atoms: C_9  and  C_15
REMARK    9  A    between atoms: C_11  and  C_16
REMARK   10  A    between atoms: C_12  and  C_17
REMARK   11  A    between atoms: C_12  and  C_18
REMARK   12  A    between atoms: C_13  and  C_19
REMARK   13  A    between atoms: C_16  and  C_20
REMARK   14  A    between atoms: C_22  and  C_24
REMARK                            x       y       z     vdW  Elec       q    Type
REMARK                         _______ _______ _______ _____ _____    ______ ____
ROOT
ATOM      8  C   UNL     1      -2.885 -12.508  13.223  0.00  0.00    +0.000 C 
ATOM      9  C   UNL     1      -1.688 -11.524  13.246  0.00  0.00    +0.032 C 
ATOM     10  C   UNL     1      -3.358 -12.745  11.781  0.00  0.00    +0.012 C 
ATOM     11  C   UNL     1      -3.785 -11.438  11.086  0.00  0.00    +0.023 C 
ATOM     13  C   UNL     1      -2.771 -10.331  11.292  0.00  0.00    -0.073 C 
ATOM     14  C   UNL     1      -1.833 -10.394  12.254  0.00  0.00    -0.022 C 
ATOM     19  C   UNL     1      -2.830  -9.172  10.339  0.00  0.00    +0.039 C 
ENDROOT
BRANCH   8  12
ATOM     12  C   UNL     1      -2.535 -13.845  13.881  0.00  0.00    -0.013 C 
ATOM     17  C   UNL     1      -3.654 -14.857  13.657  0.00  0.00    +0.007 C 
ATOM     18  C   UNL     1      -1.211 -14.374  13.338  0.00  0.00    +0.007 C 
ENDBRANCH   8  12
BRANCH   9  15
ATOM     15  C   UNL     1      -1.472 -10.948  14.649  0.00  0.00    +0.113 C 
BRANCH  15   4
ATOM      2  O   UNL     1      -3.332 -11.858  16.627  0.00  0.00    -0.253 OA
ATOM      4  N   UNL     1      -2.641 -10.262  15.102  0.00  0.00    -0.299 N 
ATOM      6  N   UNL     1      -4.567  -9.885  16.318  0.00  0.00    -0.269 N 
ATOM     21  C   UNL     1      -3.513 -10.773  16.081  0.00  0.00    +0.304 C 
ATOM     36  H   UNL     1      -2.822  -9.327  14.749  0.00  0.00    +0.150 HD
ATOM     37  H   UNL     1      -4.569  -9.024  15.776  0.00  0.00    +0.156 HD
BRANCH   6  25
ATOM     25  C   UNL     1      -5.642 -10.037  17.226  0.00  0.00    +0.038 A 
ATOM     28  C   UNL     1      -6.906  -9.546  16.897  0.00  0.00    +0.069 A 
ATOM     29  C   UNL     1      -5.438 -10.675  18.449  0.00  0.00    +0.023 A 
ATOM     31  C   UNL     1      -7.966  -9.696  17.793  0.00  0.00    +0.122 A 
ATOM     33  C   UNL     1      -6.496 -10.825  19.344  0.00  0.00    +0.005 A 
ATOM     34  C   UNL     1      -7.761 -10.335  19.016  0.00  0.00    +0.046 A 
BRANCH  31   3
ATOM      3  O   UNL     1      -9.199  -9.216  17.472  0.00  0.00    -0.495 OA
ATOM     35  C   UNL     1      -9.336  -8.575  16.206  0.00  0.00    +0.277 C 
ENDBRANCH  31   3
ENDBRANCH   6  25
ENDBRANCH  15   4
ENDBRANCH   9  15
BRANCH  11  16
ATOM     16  C   UNL     1      -5.179 -10.997  11.547  0.00  0.00    +0.103 C 
BRANCH  16  20
ATOM      1  O   UNL     1      -6.112 -12.617  10.046  0.00  0.00    -0.276 OA
ATOM      5  N   UNL     1      -7.432 -11.968  11.838  0.00  0.00    -0.300 N 
ATOM     20  C   UNL     1      -6.268 -11.936  11.063  0.00  0.00    +0.216 C 
ATOM     23  C   UNL     1      -8.570 -12.817  11.507  0.00  0.00    +0.132 C 
BRANCH   5  22
ATOM     22  C   UNL     1      -7.596 -11.153  13.040  0.00  0.00    +0.144 C 
BRANCH  22  24
ATOM      7  N   UNL     1      -8.723 -12.861  16.219  0.00  0.00    -0.263 NA
ATOM     24  C   UNL     1      -7.560 -11.982  14.291  0.00  0.00    -0.012 A 
ATOM     26  C   UNL     1      -6.392 -12.621  14.694  0.00  0.00    +0.008 A 
ATOM     27  C   UNL     1      -8.687 -12.132  15.082  0.00  0.00    +0.115 A 
ATOM     30  C   UNL     1      -6.390 -13.382  15.859  0.00  0.00    +0.020 A 
ATOM     32  C   UNL     1      -7.569 -13.468  16.580  0.00  0.00    +0.111 A 
ENDBRANCH  22  24
ENDBRANCH   5  22
ENDBRANCH  16  20
ENDBRANCH  11  16
TORSDOF 9
ENDMDL
MODEL 6
REMARK VINA RESULT:      -6.5     28.157     30.637
REMARK  Name = 38029166
REMARK  14 active torsions:
REMARK  status: ('A' for Active; 'I' for Inactive)
REMARK    1  A    between atoms: O_3  and  C_31
REMARK    2  A    between atoms: O_3  and  C_35
REMARK    3  A    between atoms: N_4  and  C_15
REMARK    4  A    between atoms: N_5  and  C_22
REMARK    5  A    between atoms: N_5  and  C_23
REMARK    6  A    between atoms: N_6  and  C_25
REMARK    7  A    between atoms: C_8  and  C_12
REMARK    8  A    between atoms: C_9  and  C_15
REMARK    9  A    between atoms: C_11  and  C_16
REMARK   10  A    between atoms: C_12  and  C_17
REMARK   11  A    between atoms: C_12  and  C_18
REMARK   12  A    between atoms: C_13  and  C_19
REMARK   13  A    between atoms: C_16  and  C_20
REMARK   14  A    between atoms: C_22  and  C_24
REMARK                            x       y       z     vdW  Elec       q    Type
REMARK                         _______ _______ _______ _____ _____    ______ ____
ROOT
ATOM      8  C   UNL     1      -4.758 -10.371  11.108  0.00  0.00    +0.000 C 
ATOM      9  C   UNL     1      -6.176 -10.251  10.494  0.00  0.00    +0.032 C 
ATOM     10  C   UNL     1      -4.118 -11.712  10.722  0.00  0.00    +0.012 C 
ATOM     11  C   UNL     1      -4.958 -12.916  11.191  0.00  0.00    +0.023 C 
ATOM     13  C   UNL     1      -6.426 -12.744  10.854  0.00  0.00    -0.073 C 
ATOM     14  C   UNL     1      -6.948 -11.548  10.531  0.00  0.00    -0.022 C 
ATOM     19  C   UNL     1      -7.270 -13.987  10.852  0.00  0.00    +0.039 C 
ENDROOT
BRANCH   8  12
ATOM     12  C   UNL     1      -3.850  -9.218  10.672  0.00  0.00    -0.013 C 
ATOM     17  C   UNL     1      -2.387  -9.565  10.933  0.00  0.00    +0.007 C 
ATOM     18  C   UNL     1      -4.074  -8.891   9.199  0.00  0.00    +0.007 C 
ENDBRANCH   8  12
BRANCH   9  15
ATOM     15  C   UNL     1      -6.988  -9.151  11.187  0.00  0.00    +0.113 C 
BRANCH  15   4
ATOM      2  O   UNL     1      -8.984  -9.805  13.133  0.00  0.00    -0.253 OA
ATOM      4  N   UNL     1      -6.812  -9.208  12.604  0.00  0.00    -0.299 N 
ATOM      6  N   UNL     1      -7.378  -9.513  14.822  0.00  0.00    -0.269 N 
ATOM     21  C   UNL     1      -7.843  -9.538  13.503  0.00  0.00    +0.304 C 
ATOM     36  H   UNL     1      -5.881  -9.068  12.983  0.00  0.00    +0.150 HD
ATOM     37  H   UNL     1      -6.400  -9.269  14.956  0.00  0.00    +0.156 HD
BRANCH   6  25
ATOM     25  C   UNL     1      -8.106  -9.786  16.004  0.00  0.00    +0.038 A 
ATOM     28  C   UNL     1      -8.040 -11.051  16.586  0.00  0.00    +0.069 A 
ATOM     29  C   UNL     1      -8.890  -8.790  16.586  0.00  0.00    +0.023 A 
ATOM     31  C   UNL     1      -8.758 -11.320  17.753  0.00  0.00    +0.122 A 
ATOM     33  C   UNL     1      -9.608  -9.058  17.751  0.00  0.00    +0.005 A 
ATOM     34  C   UNL     1      -9.542 -10.323  18.334  0.00  0.00    +0.046 A 
BRANCH  31   3
ATOM      3  O   UNL     1      -8.695 -12.556  18.320  0.00  0.00    -0.495 OA
ATOM     35  C   UNL     1      -8.615 -12.613  19.743  0.00  0.00    +0.277 C 
ENDBRANCH  31   3
ENDBRANCH   6  25
ENDBRANCH  15   4
ENDBRANCH   9  15
BRANCH  11  16
ATOM     16  C   UNL     1      -4.766 -13.173  12.689  0.00  0.00    +0.103 C 
BRANCH  16  20
ATOM      1  O   UNL     1      -2.437 -13.739  12.631  0.00  0.00    -0.276 OA
ATOM      5  N   UNL     1      -3.065 -12.040  14.078  0.00  0.00    -0.300 N 
ATOM     20  C   UNL     1      -3.317 -13.024  13.117  0.00  0.00    +0.216 C 
ATOM     23  C   UNL     1      -1.727 -11.773  14.592  0.00  0.00    +0.132 C 
BRANCH   5  22
ATOM     22  C   UNL     1      -4.124 -11.203  14.639  0.00  0.00    +0.144 C 
BRANCH  22  24
ATOM      7  N   UNL     1      -5.123 -13.292  17.629  0.00  0.00    -0.263 NA
ATOM     24  C   UNL     1      -4.453 -11.585  16.054  0.00  0.00    -0.012 A 
ATOM     26  C   UNL     1      -4.408 -10.645  17.078  0.00  0.00    +0.008 A 
ATOM     27  C   UNL     1      -4.813 -12.883  16.379  0.00  0.00    +0.115 A 
ATOM     30  C   UNL     1      -4.719 -11.029  18.379  0.00  0.00    +0.020 A 
ATOM     32  C   UNL     1      -5.068 -12.351  18.599  0.00  0.00    +0.111 A 
ENDBRANCH  22  24
ENDBRANCH   5  22
ENDBRANCH  16  20
ENDBRANCH  11  16
TORSDOF 9
ENDMDL
MODEL 7
REMARK VINA RESULT:      -6.4      2.724      6.918
REMARK  Name = 38029166
REMARK  14 active torsions:
REMARK  status: ('A' for Active; 'I' for Inactive)
REMARK    1  A    between atoms: O_3  and  C_31
REMARK    2  A    between atoms: O_3  and  C_35
REMARK    3  A    between atoms: N_4  and  C_15
REMARK    4  A    between atoms: N_5  and  C_22
REMARK    5  A    between atoms: N_5  and  C_23
REMARK    6  A    between atoms: N_6  and  C_25
REMARK    7  A    between atoms: C_8  and  C_12
REMARK    8  A    between atoms: C_9  and  C_15
REMARK    9  A    between atoms: C_11  and  C_16
REMARK   10  A    between atoms: C_12  and  C_17
REMARK   11  A    between atoms: C_12  and  C_18
REMARK   12  A    between atoms: C_13  and  C_19
REMARK   13  A    between atoms: C_16  and  C_20
REMARK   14  A    between atoms: C_22  and  C_24
REMARK                            x       y       z     vdW  Elec       q    Type
REMARK                         _______ _______ _______ _____ _____    ______ ____
ROOT
ATOM      8  C   UNL     1      11.556  13.615  21.908  0.00  0.00    +0.000 C 
ATOM      9  C   UNL     1      13.014  14.037  22.221  0.00  0.00    +0.032 C 
ATOM     10  C   UNL     1      11.086  12.535  22.894  0.00  0.00    +0.012 C 
ATOM     11  C   UNL     1      11.979  11.280  22.853  0.00  0.00    +0.023 C 
ATOM     13  C   UNL     1      13.452  11.634  22.888  0.00  0.00    -0.073 C 
ATOM     14  C   UNL     1      13.894  12.875  22.617  0.00  0.00    -0.022 C 
ATOM     19  C   UNL     1      14.402  10.541  23.288  0.00  0.00    +0.039 C 
ENDROOT
BRANCH   8  12
ATOM     12  C   UNL     1      10.597  14.808  21.949  0.00  0.00    -0.013 C 
ATOM     17  C   UNL     1       9.953  15.020  20.582  0.00  0.00    +0.007 C 
ATOM     18  C   UNL     1       9.533  14.599  23.022  0.00  0.00    +0.007 C 
ENDBRANCH   8  12
BRANCH   9  15
ATOM     15  C   UNL     1      13.643  14.775  21.035  0.00  0.00    +0.113 C 
BRANCH  15   4
ATOM      2  O   UNL     1      13.139  13.776  18.398  0.00  0.00    -0.253 OA
ATOM      4  N   UNL     1      14.481  13.898  20.279  0.00  0.00    -0.299 N 
ATOM      6  N   UNL     1      15.170  12.603  18.496  0.00  0.00    -0.269 N 
ATOM     21  C   UNL     1      14.167  13.447  18.983  0.00  0.00    +0.304 C 
ATOM     36  H   UNL     1      15.382  13.636  20.666  0.00  0.00    +0.150 HD
ATOM     37  H   UNL     1      15.960  12.429  19.113  0.00  0.00    +0.156 HD
BRANCH   6  25
ATOM     25  C   UNL     1      15.223  11.952  17.241  0.00  0.00    +0.038 A 
ATOM     28  C   UNL     1      14.292  10.960  16.931  0.00  0.00    +0.069 A 
ATOM     29  C   UNL     1      16.206  12.300  16.315  0.00  0.00    +0.023 A 
ATOM     31  C   UNL     1      14.344  10.318  15.692  0.00  0.00    +0.122 A 
ATOM     33  C   UNL     1      16.259  11.658  15.078  0.00  0.00    +0.005 A 
ATOM     34  C   UNL     1      15.327  10.667  14.767  0.00  0.00    +0.046 A 
BRANCH  31   3
ATOM      3  O   UNL     1      13.436   9.350  15.390  0.00  0.00    -0.495 OA
ATOM     35  C   UNL     1      12.266   9.282  16.204  0.00  0.00    +0.277 C 
ENDBRANCH  31   3
ENDBRANCH   6  25
ENDBRANCH  15   4
ENDBRANCH   9  15
BRANCH  11  16
ATOM     16  C   UNL     1      11.653  10.411  21.634  0.00  0.00    +0.103 C 
BRANCH  16  20
ATOM      1  O   UNL     1      10.760   8.738  23.101  0.00  0.00    -0.276 OA
ATOM      5  N   UNL     1      11.635   8.002  21.084  0.00  0.00    -0.300 N 
ATOM     20  C   UNL     1      11.303   8.986  22.021  0.00  0.00    +0.216 C 
ATOM     23  C   UNL     1      11.365   6.587  21.306  0.00  0.00    +0.132 C 
BRANCH   5  22
ATOM     22  C   UNL     1      12.278   8.318  19.810  0.00  0.00    +0.144 C 
BRANCH  22  24
ATOM      7  N   UNL     1      15.513   6.377  19.559  0.00  0.00    -0.263 NA
ATOM     24  C   UNL     1      13.746   8.004  19.827  0.00  0.00    -0.012 A 
ATOM     26  C   UNL     1      14.685   8.989  20.116  0.00  0.00    +0.008 A 
ATOM     27  C   UNL     1      14.207   6.726  19.559  0.00  0.00    +0.115 A 
ATOM     30  C   UNL     1      16.039   8.667  20.125  0.00  0.00    +0.020 A 
ATOM     32  C   UNL     1      16.397   7.359  19.844  0.00  0.00    +0.111 A 
ENDBRANCH  22  24
ENDBRANCH   5  22
ENDBRANCH  16  20
ENDBRANCH  11  16
TORSDOF 9
ENDMDL
MODEL 8
REMARK VINA RESULT:      -6.4     27.276     30.670
REMARK  Name = 38029166
REMARK  14 active torsions:
REMARK  status: ('A' for Active; 'I' for Inactive)
REMARK    1  A    between atoms: O_3  and  C_31
REMARK    2  A    between atoms: O_3  and  C_35
REMARK    3  A    between atoms: N_4  and  C_15
REMARK    4  A    between atoms: N_5  and  C_22
REMARK    5  A    between atoms: N_5  and  C_23
REMARK    6  A    between atoms: N_6  and  C_25
REMARK    7  A    between atoms: C_8  and  C_12
REMARK    8  A    between atoms: C_9  and  C_15
REMARK    9  A    between atoms: C_11  and  C_16
REMARK   10  A    between atoms: C_12  and  C_17
REMARK   11  A    between atoms: C_12  and  C_18
REMARK   12  A    between atoms: C_13  and  C_19
REMARK   13  A    between atoms: C_16  and  C_20
REMARK   14  A    between atoms: C_22  and  C_24
REMARK                            x       y       z     vdW  Elec       q    Type
REMARK                         _______ _______ _______ _____ _____    ______ ____
ROOT
ATOM      8  C   UNL     1      -5.247 -10.906  13.622  0.00  0.00    +0.000 C 
ATOM      9  C   UNL     1      -3.886 -10.673  12.919  0.00  0.00    +0.032 C 
ATOM     10  C   UNL     1      -5.289 -10.169  14.968  0.00  0.00    +0.012 C 
ATOM     11  C   UNL     1      -4.164 -10.625  15.917  0.00  0.00    +0.023 C 
ATOM     13  C   UNL     1      -2.821 -10.678  15.216  0.00  0.00    -0.073 C 
ATOM     14  C   UNL     1      -2.717 -10.685  13.875  0.00  0.00    -0.022 C 
ATOM     19  C   UNL     1      -1.599 -10.677  16.091  0.00  0.00    +0.039 C 
ENDROOT
BRANCH   8  12
ATOM     12  C   UNL     1      -6.422 -10.458  12.748  0.00  0.00    -0.013 C 
ATOM     17  C   UNL     1      -7.725 -10.513  13.541  0.00  0.00    +0.007 C 
ATOM     18  C   UNL     1      -6.177  -9.054  12.206  0.00  0.00    +0.007 C 
ENDBRANCH   8  12
BRANCH   9  15
ATOM     15  C   UNL     1      -3.651 -11.707  11.811  0.00  0.00    +0.113 C 
BRANCH  15   4
ATOM      2  O   UNL     1      -5.579 -12.116   9.733  0.00  0.00    -0.253 OA
ATOM      4  N   UNL     1      -3.666 -11.083  10.525  0.00  0.00    -0.299 N 
ATOM      6  N   UNL     1      -4.405 -10.584   8.395  0.00  0.00    -0.269 N 
ATOM     21  C   UNL     1      -4.649 -11.334   9.550  0.00  0.00    +0.304 C 
ATOM     36  H   UNL     1      -2.970 -10.372  10.324  0.00  0.00    +0.150 HD
ATOM     37  H   UNL     1      -3.585  -9.983   8.407  0.00  0.00    +0.156 HD
BRANCH   6  25
ATOM     25  C   UNL     1      -5.162 -10.559   7.201  0.00  0.00    +0.038 A 
ATOM     28  C   UNL     1      -4.878 -11.461   6.176  0.00  0.00    +0.069 A 
ATOM     29  C   UNL     1      -6.192  -9.630   7.047  0.00  0.00    +0.023 A 
ATOM     31  C   UNL     1      -5.626 -11.436   4.997  0.00  0.00    +0.122 A 
ATOM     33  C   UNL     1      -6.938  -9.604   5.869  0.00  0.00    +0.005 A 
ATOM     34  C   UNL     1      -6.655 -10.507   4.845  0.00  0.00    +0.046 A 
BRANCH  31   3
ATOM      3  O   UNL     1      -5.347 -12.316   3.997  0.00  0.00    -0.495 OA
ATOM     35  C   UNL     1      -6.254 -12.355   2.896  0.00  0.00    +0.277 C 
ENDBRANCH  31   3
ENDBRANCH   6  25
ENDBRANCH  15   4
ENDBRANCH   9  15
BRANCH  11  16
ATOM     16  C   UNL     1      -4.498 -11.974  16.563  0.00  0.00    +0.103 C 
BRANCH  16  20
ATOM      1  O   UNL     1      -3.929 -11.666  18.871  0.00  0.00    -0.276 OA
ATOM      5  N   UNL     1      -6.179 -11.925  18.373  0.00  0.00    -0.300 N 
ATOM     20  C   UNL     1      -4.823 -11.839  18.039  0.00  0.00    +0.216 C 
ATOM     23  C   UNL     1      -6.655 -11.815  19.747  0.00  0.00    +0.132 C 
BRANCH   5  22
ATOM     22  C   UNL     1      -7.222 -12.130  17.370  0.00  0.00    +0.144 C 
BRANCH  22  24
ATOM      7  N   UNL     1     -10.554 -10.354  17.574  0.00  0.00    -0.263 NA
ATOM     24  C   UNL     1      -8.240 -11.026  17.384  0.00  0.00    -0.012 A 
ATOM     26  C   UNL     1      -7.859  -9.698  17.222  0.00  0.00    +0.008 A 
ATOM     27  C   UNL     1      -9.588 -11.298  17.554  0.00  0.00    +0.115 A 
ATOM     30  C   UNL     1      -8.825  -8.698  17.238  0.00  0.00    +0.020 A 
ATOM     32  C   UNL     1     -10.146  -9.074  17.415  0.00  0.00    +0.111 A 
ENDBRANCH  22  24
ENDBRANCH   5  22
ENDBRANCH  16  20
ENDBRANCH  11  16
TORSDOF 9
ENDMDL
MODEL 9
REMARK VINA RESULT:      -6.4      3.364      7.108
REMARK  Name = 38029166
REMARK  14 active torsions:
REMARK  status: ('A' for Active; 'I' for Inactive)
REMARK    1  A    between atoms: O_3  and  C_31
REMARK    2  A    between atoms: O_3  and  C_35
REMARK    3  A    between atoms: N_4  and  C_15
REMARK    4  A    between atoms: N_5  and  C_22
REMARK    5  A    between atoms: N_5  and  C_23
REMARK    6  A    between atoms: N_6  and  C_25
REMARK    7  A    between atoms: C_8  and  C_12
REMARK    8  A    between atoms: C_9  and  C_15
REMARK    9  A    between atoms: C_11  and  C_16
REMARK   10  A    between atoms: C_12  and  C_17
REMARK   11  A    between atoms: C_12  and  C_18
REMARK   12  A    between atoms: C_13  and  C_19
REMARK   13  A    between atoms: C_16  and  C_20
REMARK   14  A    between atoms: C_22  and  C_24
REMARK                            x       y       z     vdW  Elec       q    Type
REMARK                         _______ _______ _______ _____ _____    ______ ____
ROOT
ATOM      8  C   UNL     1      12.490  11.193  21.775  0.00  0.00    +0.000 C 
ATOM      9  C   UNL     1      11.138  11.108  22.529  0.00  0.00    +0.032 C 
ATOM     10  C   UNL     1      12.473  10.281  20.540  0.00  0.00    +0.012 C 
ATOM     11  C   UNL     1      12.209   8.808  20.906  0.00  0.00    +0.023 C 
ATOM     13  C   UNL     1      11.046   8.666  21.867  0.00  0.00    -0.073 C 
ATOM     14  C   UNL     1      10.573   9.708  22.573  0.00  0.00    -0.022 C 
ATOM     19  C   UNL     1      10.410   7.308  21.965  0.00  0.00    +0.039 C 
ENDROOT
BRANCH   8  12
ATOM     12  C   UNL     1      12.818  12.629  21.356  0.00  0.00    -0.013 C 
ATOM     17  C   UNL     1      14.130  13.081  21.991  0.00  0.00    +0.007 C 
ATOM     18  C   UNL     1      12.886  12.738  19.836  0.00  0.00    +0.007 C 
ENDBRANCH   8  12
BRANCH   9  15
ATOM     15  C   UNL     1      11.265  11.655  23.955  0.00  0.00    +0.113 C 
BRANCH  15   4
ATOM      2  O   UNL     1      13.099  13.119  25.596  0.00  0.00    -0.253 OA
ATOM      4  N   UNL     1      12.437  11.142  24.592  0.00  0.00    -0.299 N 
ATOM      6  N   UNL     1      14.356  11.155  25.876  0.00  0.00    -0.269 N 
ATOM     21  C   UNL     1      13.295  11.924  25.387  0.00  0.00    +0.304 C 
ATOM     36  H   UNL     1      12.630  10.148  24.525  0.00  0.00    +0.150 HD
ATOM     37  H   UNL     1      14.372  10.175  25.605  0.00  0.00    +0.156 HD
BRANCH   6  25
ATOM     25  C   UNL     1      15.422  11.575  26.706  0.00  0.00    +0.038 A 
ATOM     28  C   UNL     1      15.495  11.127  28.026  0.00  0.00    +0.069 A 
ATOM     29  C   UNL     1      16.398  12.437  26.207  0.00  0.00    +0.023 A 
ATOM     31  C   UNL     1      16.547  11.541  28.845  0.00  0.00    +0.122 A 
ATOM     33  C   UNL     1      17.448  12.851  27.025  0.00  0.00    +0.005 A 
ATOM     34  C   UNL     1      17.523  12.403  28.344  0.00  0.00    +0.046 A 
BRANCH  31   3
ATOM      3  O   UNL     1      16.617  11.105  30.132  0.00  0.00    -0.495 OA
ATOM     35  C   UNL     1      15.700  10.085  30.523  0.00  0.00    +0.277 C 
ENDBRANCH  31   3
ENDBRANCH   6  25
ENDBRANCH  15   4
ENDBRANCH   9  15
BRANCH  11  16
ATOM     16  C   UNL     1      13.470   8.144  21.469  0.00  0.00    +0.103 C 
BRANCH  16  20
ATOM      1  O   UNL     1      13.644   6.732  19.539  0.00  0.00    -0.276 OA
ATOM      5  N   UNL     1      15.632   7.452  20.492  0.00  0.00    -0.300 N 
ATOM     20  C   UNL     1      14.237   7.376  20.409  0.00  0.00    +0.216 C 
ATOM     23  C   UNL     1      16.510   6.771  19.549  0.00  0.00    +0.132 C 
BRANCH   5  22
ATOM     22  C   UNL     1      16.313   8.222  21.530  0.00  0.00    +0.144 C 
BRANCH  22  24
ATOM      7  N   UNL     1      18.854  10.898  20.704  0.00  0.00    -0.263 NA
ATOM     24  C   UNL     1      16.911   9.489  20.990  0.00  0.00    -0.012 A 
ATOM     26  C   UNL     1      16.130  10.412  20.302  0.00  0.00    +0.008 A 
ATOM     27  C   UNL     1      18.255   9.777  21.163  0.00  0.00    +0.115 A 
ATOM     30  C   UNL     1      16.711  11.579  19.814  0.00  0.00    +0.020 A 
ATOM     32  C   UNL     1      18.064  11.773  20.040  0.00  0.00    +0.111 A 
ENDBRANCH  22  24
ENDBRANCH   5  22
ENDBRANCH  16  20
ENDBRANCH  11  16
TORSDOF 9
ENDMDL
MODEL 10
REMARK VINA RESULT:      -6.3     16.931     20.280
REMARK  Name = 38029166
REMARK  14 active torsions:
REMARK  status: ('A' for Active; 'I' for Inactive)
REMARK    1  A    between atoms: O_3  and  C_31
REMARK    2  A    between atoms: O_3  and  C_35
REMARK    3  A    between atoms: N_4  and  C_15
REMARK    4  A    between atoms: N_5  and  C_22
REMARK    5  A    between atoms: N_5  and  C_23
REMARK    6  A    between atoms: N_6  and  C_25
REMARK    7  A    between atoms: C_8  and  C_12
REMARK    8  A    between atoms: C_9  and  C_15
REMARK    9  A    between atoms: C_11  and  C_16
REMARK   10  A    between atoms: C_12  and  C_17
REMARK   11  A    between atoms: C_12  and  C_18
REMARK   12  A    between atoms: C_13  and  C_19
REMARK   13  A    between atoms: C_16  and  C_20
REMARK   14  A    between atoms: C_22  and  C_24
REMARK                            x       y       z     vdW  Elec       q    Type
REMARK                         _______ _______ _______ _____ _____    ______ ____
ROOT
ATOM      8  C   UNL     1      12.048   4.224  -0.981  0.00  0.00    +0.000 C 
ATOM      9  C   UNL     1      11.739   3.541   0.376  0.00  0.00    +0.032 C 
ATOM     10  C   UNL     1      13.430   3.794  -1.495  0.00  0.00    +0.012 C 
ATOM     11  C   UNL     1      14.556   4.144  -0.503  0.00  0.00    +0.023 C 
ATOM     13  C   UNL     1      14.205   3.738   0.914  0.00  0.00    -0.073 C 
ATOM     14  C   UNL     1      12.942   3.459   1.284  0.00  0.00    -0.022 C 
ATOM     19  C   UNL     1      15.345   3.615   1.885  0.00  0.00    +0.039 C 
ENDROOT
BRANCH   8  12
ATOM     12  C   UNL     1      10.982   3.908  -2.033  0.00  0.00    -0.013 C 
ATOM     17  C   UNL     1      10.650   5.156  -2.846  0.00  0.00    +0.007 C 
ATOM     18  C   UNL     1      11.450   2.778  -2.944  0.00  0.00    +0.007 C 
ENDBRANCH   8  12
BRANCH   9  15
ATOM     15  C   UNL     1      10.594   4.253   1.105  0.00  0.00    +0.113 C 
BRANCH  15   4
ATOM      2  O   UNL     1       9.696   6.018   3.174  0.00  0.00    -0.253 OA
ATOM      4  N   UNL     1      10.673   4.028   2.514  0.00  0.00    -0.299 N 
ATOM      6  N   UNL     1      10.418   4.454   4.769  0.00  0.00    -0.269 N 
ATOM     21  C   UNL     1      10.209   4.944   3.476  0.00  0.00    +0.304 C 
ATOM     36  H   UNL     1      11.021   3.132   2.842  0.00  0.00    +0.150 HD
ATOM     37  H   UNL     1      10.860   3.542   4.845  0.00  0.00    +0.156 HD
BRANCH   6  25
ATOM     25  C   UNL     1      10.090   5.077   5.996  0.00  0.00    +0.038 A 
ATOM     28  C   UNL     1      10.025   4.320   7.166  0.00  0.00    +0.069 A 
ATOM     29  C   UNL     1       9.832   6.447   6.037  0.00  0.00    +0.023 A 
ATOM     31  C   UNL     1       9.702   4.934   8.377  0.00  0.00    +0.122 A 
ATOM     33  C   UNL     1       9.508   7.061   7.246  0.00  0.00    +0.005 A 
ATOM     34  C   UNL     1       9.443   6.304   8.416  0.00  0.00    +0.046 A 
BRANCH  31   3
ATOM      3  O   UNL     1       9.636   4.195   9.518  0.00  0.00    -0.495 OA
ATOM     35  C   UNL     1       8.742   4.646  10.533  0.00  0.00    +0.277 C 
ENDBRANCH  31   3
ENDBRANCH   6  25
ENDBRANCH  15   4
ENDBRANCH   9  15
BRANCH  11  16
ATOM     16  C   UNL     1      14.912   5.633  -0.575  0.00  0.00    +0.103 C 
BRANCH  16  20
ATOM      1  O   UNL     1      17.181   5.022  -1.052  0.00  0.00    -0.276 OA
ATOM      5  N   UNL     1      16.842   7.076  -0.030  0.00  0.00    -0.300 N 
ATOM     20  C   UNL     1      16.412   5.865  -0.583  0.00  0.00    +0.216 C 
ATOM     23  C   UNL     1      18.250   7.449   0.037  0.00  0.00    +0.132 C 
BRANCH   5  22
ATOM     22  C   UNL     1      15.913   8.060   0.519  0.00  0.00    +0.144 C 
BRANCH  22  24
ATOM      7  N   UNL     1      16.608   9.265   4.035  0.00  0.00    -0.263 NA
ATOM     24  C   UNL     1      15.958   8.101   2.019  0.00  0.00    -0.012 A 
ATOM     26  C   UNL     1      15.424   7.065   2.780  0.00  0.00    +0.008 A 
ATOM     27  C   UNL     1      16.533   9.168   2.690  0.00  0.00    +0.115 A 
ATOM     30  C   UNL     1      15.482   7.130   4.168  0.00  0.00    +0.020 A 
ATOM     32  C   UNL     1      16.079   8.240   4.742  0.00  0.00    +0.111 A 
ENDBRANCH  22  24
ENDBRANCH   5  22
ENDBRANCH  16  20
ENDBRANCH  11  16
TORSDOF 9
ENDMDL
