MODEL 1
REMARK VINA RESULT:      -6.4      0.000      0.000
REMARK  Name = 45783825
REMARK  7 active torsions:
REMARK  status: ('A' for Active; 'I' for Inactive)
REMARK    1  A    between atoms: N_2  and  C_10
REMARK    2  A    between atoms: N_6  and  C_21
REMARK    3  A    between atoms: N_6  and  C_22
REMARK    4  A    between atoms: N_6  and  C_23
REMARK    5  A    between atoms: C_7  and  C_10
REMARK    6  A    between atoms: C_11  and  C_15
REMARK    7  A    between atoms: C_16  and  C_17
REMARK                            x       y       z     vdW  Elec       q    Type
REMARK                         _______ _______ _______ _____ _____    ______ ____
ROOT
ATOM      1  O   UNL     1      16.168   5.966  18.334  0.00  0.00    -0.336 OA
ATOM      3  N   UNL     1      16.504   7.082  20.248  0.00  0.00    -0.190 NA
ATOM      4  N   UNL     1      17.455   5.622  18.766  0.00  0.00    -0.056 NA
ATOM     15  C   UNL     1      15.678   6.830  19.263  0.00  0.00    +0.245 A 
ATOM     16  C   UNL     1      17.580   6.319  19.899  0.00  0.00    +0.204 A 
ENDROOT
BRANCH  16  17
ATOM      5  N   UNL     1      19.991   7.091  22.622  0.00  0.00    -0.240 NA
ATOM     17  C   UNL     1      18.766   6.276  20.705  0.00  0.00    +0.041 A 
ATOM     18  C   UNL     1      19.815   5.421  20.388  0.00  0.00    +0.016 A 
ATOM     19  C   UNL     1      18.901   7.083  21.822  0.00  0.00    +0.124 A 
ATOM     20  C   UNL     1      20.954   5.401  21.188  0.00  0.00    +0.044 A 
ATOM     21  C   UNL     1      20.991   6.247  22.284  0.00  0.00    +0.121 A 
BRANCH  21   6
ATOM      6  N   UNL     1      22.157   6.214  23.089  0.00  0.00    -0.321 N 
ATOM     22  C   UNL     1      22.428   7.287  24.020  0.00  0.00    +0.130 C 
ATOM     23  C   UNL     1      23.085   5.112  22.980  0.00  0.00    +0.130 C 
ENDBRANCH  21   6
ENDBRANCH  16  17
BRANCH  15  11
ATOM      2  N   UNL     1      13.790   8.194  20.136  0.00  0.00    -0.291 NA
ATOM     11  C   UNL     1      14.279   7.356  19.022  0.00  0.00    +0.146 C 
ATOM     12  C   UNL     1      12.858   9.158  19.550  0.00  0.00    +0.085 C 
ATOM     13  C   UNL     1      14.191   8.265  17.782  0.00  0.00    +0.030 C 
ATOM     14  C   UNL     1      13.585   9.567  18.284  0.00  0.00    +0.017 C 
BRANCH   2  10
ATOM     10  C   UNL     1      13.177   7.422  21.209  0.00  0.00    +0.088 C 
BRANCH  10   7
ATOM      7  C   UNL     1      11.807   6.960  20.832  0.00  0.00    +0.003 C 
ATOM      8  C   UNL     1      10.663   7.214  21.770  0.00  0.00    +0.005 C 
ATOM      9  C   UNL     1      11.185   5.820  21.582  0.00  0.00    +0.005 C 
ENDBRANCH  10   7
ENDBRANCH   2  10
ENDBRANCH  15  11
TORSDOF 5
ENDMDL
MODEL 2
REMARK VINA RESULT:      -6.2      1.643      2.896
REMARK  Name = 45783825
REMARK  7 active torsions:
REMARK  status: ('A' for Active; 'I' for Inactive)
REMARK    1  A    between atoms: N_2  and  C_10
REMARK    2  A    between atoms: N_6  and  C_21
REMARK    3  A    between atoms: N_6  and  C_22
REMARK    4  A    between atoms: N_6  and  C_23
REMARK    5  A    between atoms: C_7  and  C_10
REMARK    6  A    between atoms: C_11  and  C_15
REMARK    7  A    between atoms: C_16  and  C_17
REMARK                            x       y       z     vdW  Elec       q    Type
REMARK                         _______ _______ _______ _____ _____    ______ ____
ROOT
ATOM      1  O   UNL     1      14.477   6.819  19.398  0.00  0.00    -0.336 OA
ATOM      3  N   UNL     1      15.657   7.985  20.904  0.00  0.00    -0.190 NA
ATOM      4  N   UNL     1      15.764   6.268  19.396  0.00  0.00    -0.056 NA
ATOM     15  C   UNL     1      14.499   7.824  20.313  0.00  0.00    +0.245 A 
ATOM     16  C   UNL     1      16.401   7.009  20.308  0.00  0.00    +0.204 A 
ENDROOT
BRANCH  16  17
ATOM      5  N   UNL     1      19.717   7.473  21.924  0.00  0.00    -0.240 NA
ATOM     17  C   UNL     1      17.779   6.800  20.647  0.00  0.00    +0.041 A 
ATOM     18  C   UNL     1      18.510   5.769  20.066  0.00  0.00    +0.016 A 
ATOM     19  C   UNL     1      18.422   7.616  21.562  0.00  0.00    +0.124 A 
ATOM     20  C   UNL     1      19.845   5.591  20.414  0.00  0.00    +0.044 A 
ATOM     21  C   UNL     1      20.397   6.461  21.340  0.00  0.00    +0.121 A 
BRANCH  21   6
ATOM      6  N   UNL     1      21.757   6.265  21.684  0.00  0.00    -0.321 N 
ATOM     22  C   UNL     1      22.694   7.363  21.597  0.00  0.00    +0.130 C 
ATOM     23  C   UNL     1      22.218   4.965  22.117  0.00  0.00    +0.130 C 
ENDBRANCH  21   6
ENDBRANCH  16  17
BRANCH  15  11
ATOM      2  N   UNL     1      12.249   8.369  19.403  0.00  0.00    -0.291 NA
ATOM     11  C   UNL     1      13.206   8.587  20.507  0.00  0.00    +0.146 C 
ATOM     12  C   UNL     1      10.912   8.517  19.980  0.00  0.00    +0.085 C 
ATOM     13  C   UNL     1      12.445   8.156  21.775  0.00  0.00    +0.030 C 
ATOM     14  C   UNL     1      11.053   7.772  21.293  0.00  0.00    +0.017 C 
BRANCH   2  10
ATOM     10  C   UNL     1      12.461   9.267  18.275  0.00  0.00    +0.088 C 
BRANCH  10   7
ATOM      7  C   UNL     1      12.148   8.593  16.979  0.00  0.00    +0.003 C 
ATOM      8  C   UNL     1      12.035   9.419  15.730  0.00  0.00    +0.005 C 
ATOM      9  C   UNL     1      10.807   8.811  16.343  0.00  0.00    +0.005 C 
ENDBRANCH  10   7
ENDBRANCH   2  10
ENDBRANCH  15  11
TORSDOF 5
ENDMDL
MODEL 3
REMARK VINA RESULT:      -6.1      5.868      7.418
REMARK  Name = 45783825
REMARK  7 active torsions:
REMARK  status: ('A' for Active; 'I' for Inactive)
REMARK    1  A    between atoms: N_2  and  C_10
REMARK    2  A    between atoms: N_6  and  C_21
REMARK    3  A    between atoms: N_6  and  C_22
REMARK    4  A    between atoms: N_6  and  C_23
REMARK    5  A    between atoms: C_7  and  C_10
REMARK    6  A    between atoms: C_11  and  C_15
REMARK    7  A    between atoms: C_16  and  C_17
REMARK                            x       y       z     vdW  Elec       q    Type
REMARK                         _______ _______ _______ _____ _____    ______ ____
ROOT
ATOM      1  O   UNL     1      12.259   7.197  18.644  0.00  0.00    -0.336 OA
ATOM      3  N   UNL     1      13.531   8.998  19.042  0.00  0.00    -0.190 NA
ATOM      4  N   UNL     1      12.737   7.620  17.397  0.00  0.00    -0.056 NA
ATOM     15  C   UNL     1      12.774   8.063  19.557  0.00  0.00    +0.245 A 
ATOM     16  C   UNL     1      13.478   8.686  17.714  0.00  0.00    +0.204 A 
ENDROOT
BRANCH  16  17
ATOM      5  N   UNL     1      15.036   9.648  14.478  0.00  0.00    -0.240 NA
ATOM     17  C   UNL     1      14.178   9.460  16.730  0.00  0.00    +0.041 A 
ATOM     18  C   UNL     1      14.668  10.726  17.031  0.00  0.00    +0.016 A 
ATOM     19  C   UNL     1      14.385   8.971  15.451  0.00  0.00    +0.124 A 
ATOM     20  C   UNL     1      15.342  11.453  16.055  0.00  0.00    +0.044 A 
ATOM     21  C   UNL     1      15.498  10.875  14.806  0.00  0.00    +0.121 A 
BRANCH  21   6
ATOM      6  N   UNL     1      16.187  11.629  13.824  0.00  0.00    -0.321 N 
ATOM     22  C   UNL     1      17.470  12.221  14.129  0.00  0.00    +0.130 C 
ATOM     23  C   UNL     1      15.607  11.818  12.514  0.00  0.00    +0.130 C 
ENDBRANCH  21   6
ENDBRANCH  16  17
BRANCH  15  11
ATOM      2  N   UNL     1      11.487   8.848  21.537  0.00  0.00    -0.291 NA
ATOM     11  C   UNL     1      12.401   7.816  21.004  0.00  0.00    +0.146 C 
ATOM     12  C   UNL     1      10.680   8.193  22.567  0.00  0.00    +0.085 C 
ATOM     13  C   UNL     1      11.649   6.487  21.206  0.00  0.00    +0.030 C 
ATOM     14  C   UNL     1      10.355   6.864  21.914  0.00  0.00    +0.017 C 
BRANCH   2  10
ATOM     10  C   UNL     1      12.183  10.021  22.049  0.00  0.00    +0.088 C 
BRANCH  10   7
ATOM      7  C   UNL     1      11.766  11.259  21.325  0.00  0.00    +0.003 C 
ATOM      8  C   UNL     1      12.501  12.543  21.583  0.00  0.00    +0.005 C 
ATOM      9  C   UNL     1      11.100  12.365  22.089  0.00  0.00    +0.005 C 
ENDBRANCH  10   7
ENDBRANCH   2  10
ENDBRANCH  15  11
TORSDOF 5
ENDMDL
MODEL 4
REMARK VINA RESULT:      -6.1      6.246      8.786
REMARK  Name = 45783825
REMARK  7 active torsions:
REMARK  status: ('A' for Active; 'I' for Inactive)
REMARK    1  A    between atoms: N_2  and  C_10
REMARK    2  A    between atoms: N_6  and  C_21
REMARK    3  A    between atoms: N_6  and  C_22
REMARK    4  A    between atoms: N_6  and  C_23
REMARK    5  A    between atoms: C_7  and  C_10
REMARK    6  A    between atoms: C_11  and  C_15
REMARK    7  A    between atoms: C_16  and  C_17
REMARK                            x       y       z     vdW  Elec       q    Type
REMARK                         _______ _______ _______ _____ _____    ______ ____
ROOT
ATOM      1  O   UNL     1      14.479   9.496  14.758  0.00  0.00    -0.336 OA
ATOM      3  N   UNL     1      13.912  10.676  16.576  0.00  0.00    -0.190 NA
ATOM      4  N   UNL     1      13.920   8.581  15.657  0.00  0.00    -0.056 NA
ATOM     15  C   UNL     1      14.436  10.706  15.377  0.00  0.00    +0.245 A 
ATOM     16  C   UNL     1      13.610   9.351  16.705  0.00  0.00    +0.204 A 
ENDROOT
BRANCH  16  17
ATOM      5  N   UNL     1      12.100   6.933  19.091  0.00  0.00    -0.240 NA
ATOM     17  C   UNL     1      13.000   8.829  17.893  0.00  0.00    +0.041 A 
ATOM     18  C   UNL     1      12.717   9.656  18.974  0.00  0.00    +0.016 A 
ATOM     19  C   UNL     1      12.676   7.487  18.001  0.00  0.00    +0.124 A 
ATOM     20  C   UNL     1      12.124   9.122  20.114  0.00  0.00    +0.044 A 
ATOM     21  C   UNL     1      11.839   7.767  20.123  0.00  0.00    +0.121 A 
BRANCH  21   6
ATOM      6  N   UNL     1      11.237   7.238  21.291  0.00  0.00    -0.321 N 
ATOM     22  C   UNL     1      11.211   5.809  21.512  0.00  0.00    +0.130 C 
ATOM     23  C   UNL     1      10.640   8.122  22.265  0.00  0.00    +0.130 C 
ENDBRANCH  21   6
ENDBRANCH  16  17
BRANCH  15  11
ATOM      2  N   UNL     1      16.300  11.585  13.982  0.00  0.00    -0.291 NA
ATOM     11  C   UNL     1      14.990  11.881  14.599  0.00  0.00    +0.146 C 
ATOM     12  C   UNL     1      16.384  12.408  12.776  0.00  0.00    +0.085 C 
ATOM     13  C   UNL     1      14.088  12.292  13.420  0.00  0.00    +0.030 C 
ATOM     14  C   UNL     1      14.992  12.258  12.196  0.00  0.00    +0.017 C 
BRANCH   2  10
ATOM     10  C   UNL     1      17.422  11.816  14.883  0.00  0.00    +0.088 C 
BRANCH  10   7
ATOM      7  C   UNL     1      18.684  12.071  14.124  0.00  0.00    +0.003 C 
ATOM      8  C   UNL     1      19.854  11.150  14.316  0.00  0.00    +0.005 C 
ATOM      9  C   UNL     1      19.900  12.547  14.862  0.00  0.00    +0.005 C 
ENDBRANCH  10   7
ENDBRANCH   2  10
ENDBRANCH  15  11
TORSDOF 5
ENDMDL
MODEL 5
REMARK VINA RESULT:      -6.1     15.729     18.895
REMARK  Name = 45783825
REMARK  7 active torsions:
REMARK  status: ('A' for Active; 'I' for Inactive)
REMARK    1  A    between atoms: N_2  and  C_10
REMARK    2  A    between atoms: N_6  and  C_21
REMARK    3  A    between atoms: N_6  and  C_22
REMARK    4  A    between atoms: N_6  and  C_23
REMARK    5  A    between atoms: C_7  and  C_10
REMARK    6  A    between atoms: C_11  and  C_15
REMARK    7  A    between atoms: C_16  and  C_17
REMARK                            x       y       z     vdW  Elec       q    Type
REMARK                         _______ _______ _______ _____ _____    ______ ____
ROOT
ATOM      1  O   UNL     1       9.960   4.236   5.539  0.00  0.00    -0.336 OA
ATOM      3  N   UNL     1       9.979   5.725   3.866  0.00  0.00    -0.190 NA
ATOM      4  N   UNL     1      10.519   3.577   4.436  0.00  0.00    -0.056 NA
ATOM     15  C   UNL     1       9.670   5.495   5.117  0.00  0.00    +0.245 A 
ATOM     16  C   UNL     1      10.496   4.520   3.490  0.00  0.00    +0.204 A 
ENDROOT
BRANCH  16  17
ATOM      5  N   UNL     1      10.568   4.308  -0.222  0.00  0.00    -0.240 NA
ATOM     17  C   UNL     1      10.982   4.290   2.159  0.00  0.00    +0.041 A 
ATOM     18  C   UNL     1      12.280   3.843   1.939  0.00  0.00    +0.016 A 
ATOM     19  C   UNL     1      10.173   4.506   1.056  0.00  0.00    +0.124 A 
ATOM     20  C   UNL     1      12.722   3.628   0.637  0.00  0.00    +0.044 A 
ATOM     21  C   UNL     1      11.836   3.874  -0.399  0.00  0.00    +0.121 A 
BRANCH  21   6
ATOM      6  N   UNL     1      12.303   3.651  -1.718  0.00  0.00    -0.321 N 
ATOM     22  C   UNL     1      11.442   3.025  -2.697  0.00  0.00    +0.130 C 
ATOM     23  C   UNL     1      13.643   4.042  -2.091  0.00  0.00    +0.130 C 
ENDBRANCH  21   6
ENDBRANCH  16  17
BRANCH  15  11
ATOM      2  N   UNL     1      10.056   7.081   6.994  0.00  0.00    -0.291 NA
ATOM     11  C   UNL     1       9.048   6.421   6.140  0.00  0.00    +0.146 C 
ATOM     12  C   UNL     1       9.485   8.369   7.389  0.00  0.00    +0.085 C 
ATOM     13  C   UNL     1       8.265   7.580   5.494  0.00  0.00    +0.030 C 
ATOM     14  C   UNL     1       8.862   8.846   6.093  0.00  0.00    +0.017 C 
BRANCH   2  10
ATOM     10  C   UNL     1      10.446   6.278   8.147  0.00  0.00    +0.088 C 
BRANCH  10   7
ATOM      7  C   UNL     1       9.296   5.476   8.663  0.00  0.00    +0.003 C 
ATOM      8  C   UNL     1       9.341   4.950  10.068  0.00  0.00    +0.005 C 
ATOM      9  C   UNL     1       9.478   4.007   8.909  0.00  0.00    +0.005 C 
ENDBRANCH  10   7
ENDBRANCH   2  10
ENDBRANCH  15  11
TORSDOF 5
ENDMDL
MODEL 6
REMARK VINA RESULT:      -6.1      1.818      8.289
REMARK  Name = 45783825
REMARK  7 active torsions:
REMARK  status: ('A' for Active; 'I' for Inactive)
REMARK    1  A    between atoms: N_2  and  C_10
REMARK    2  A    between atoms: N_6  and  C_21
REMARK    3  A    between atoms: N_6  and  C_22
REMARK    4  A    between atoms: N_6  and  C_23
REMARK    5  A    between atoms: C_7  and  C_10
REMARK    6  A    between atoms: C_11  and  C_15
REMARK    7  A    between atoms: C_16  and  C_17
REMARK                            x       y       z     vdW  Elec       q    Type
REMARK                         _______ _______ _______ _____ _____    ______ ____
ROOT
ATOM      1  O   UNL     1      18.824   5.749  19.577  0.00  0.00    -0.336 OA
ATOM      3  N   UNL     1      17.932   6.936  21.255  0.00  0.00    -0.190 NA
ATOM      4  N   UNL     1      17.452   5.833  19.309  0.00  0.00    -0.056 NA
ATOM     15  C   UNL     1      19.022   6.424  20.741  0.00  0.00    +0.245 A 
ATOM     16  C   UNL     1      16.995   6.548  20.343  0.00  0.00    +0.204 A 
ENDROOT
BRANCH  16  17
ATOM      5  N   UNL     1      13.398   7.017  19.528  0.00  0.00    -0.240 NA
ATOM     17  C   UNL     1      15.610   6.889  20.493  0.00  0.00    +0.041 A 
ATOM     18  C   UNL     1      15.126   7.404  21.690  0.00  0.00    +0.016 A 
ATOM     19  C   UNL     1      14.714   6.715  19.452  0.00  0.00    +0.124 A 
ATOM     20  C   UNL     1      13.777   7.726  21.806  0.00  0.00    +0.044 A 
ATOM     21  C   UNL     1      12.963   7.515  20.707  0.00  0.00    +0.121 A 
BRANCH  21   6
ATOM      6  N   UNL     1      11.592   7.848  20.841  0.00  0.00    -0.321 N 
ATOM     22  C   UNL     1      10.850   7.416  22.005  0.00  0.00    +0.130 C 
ATOM     23  C   UNL     1      10.925   8.613  19.813  0.00  0.00    +0.130 C 
ENDBRANCH  21   6
ENDBRANCH  16  17
BRANCH  15  11
ATOM      2  N   UNL     1      21.362   5.623  20.474  0.00  0.00    -0.291 NA
ATOM     11  C   UNL     1      20.445   6.481  21.252  0.00  0.00    +0.146 C 
ATOM     12  C   UNL     1      22.681   6.251  20.550  0.00  0.00    +0.085 C 
ATOM     13  C   UNL     1      21.056   7.892  21.157  0.00  0.00    +0.030 C 
ATOM     14  C   UNL     1      22.342   7.716  20.361  0.00  0.00    +0.017 C 
BRANCH   2  10
ATOM     10  C   UNL     1      21.385   4.241  20.936  0.00  0.00    +0.088 C 
BRANCH  10   7
ATOM      7  C   UNL     1      22.703   3.896  21.550  0.00  0.00    +0.003 C 
ATOM      8  C   UNL     1      23.226   2.494  21.425  0.00  0.00    +0.005 C 
ATOM      9  C   UNL     1      22.740   2.999  22.752  0.00  0.00    +0.005 C 
ENDBRANCH  10   7
ENDBRANCH   2  10
ENDBRANCH  15  11
TORSDOF 5
ENDMDL
MODEL 7
REMARK VINA RESULT:      -6.0     16.208     19.439
REMARK  Name = 45783825
REMARK  7 active torsions:
REMARK  status: ('A' for Active; 'I' for Inactive)
REMARK    1  A    between atoms: N_2  and  C_10
REMARK    2  A    between atoms: N_6  and  C_21
REMARK    3  A    between atoms: N_6  and  C_22
REMARK    4  A    between atoms: N_6  and  C_23
REMARK    5  A    between atoms: C_7  and  C_10
REMARK    6  A    between atoms: C_11  and  C_15
REMARK    7  A    between atoms: C_16  and  C_17
REMARK                            x       y       z     vdW  Elec       q    Type
REMARK                         _______ _______ _______ _____ _____    ______ ____
ROOT
ATOM      1  O   UNL     1      10.088   4.353   5.421  0.00  0.00    -0.336 OA
ATOM      3  N   UNL     1      11.073   5.751   3.974  0.00  0.00    -0.190 NA
ATOM      4  N   UNL     1      10.330   3.606   4.261  0.00  0.00    -0.056 NA
ATOM     15  C   UNL     1      10.556   5.604   5.168  0.00  0.00    +0.245 A 
ATOM     16  C   UNL     1      10.912   4.499   3.455  0.00  0.00    +0.204 A 
ENDROOT
BRANCH  16  17
ATOM      5  N   UNL     1      10.828   4.006  -0.229  0.00  0.00    -0.240 NA
ATOM     17  C   UNL     1      11.343   4.174   2.126  0.00  0.00    +0.041 A 
ATOM     18  C   UNL     1      12.636   3.725   1.883  0.00  0.00    +0.016 A 
ATOM     19  C   UNL     1      10.485   4.296   1.046  0.00  0.00    +0.124 A 
ATOM     20  C   UNL     1      13.026   3.416   0.584  0.00  0.00    +0.044 A 
ATOM     21  C   UNL     1      12.093   3.573  -0.428  0.00  0.00    +0.121 A 
BRANCH  21   6
ATOM      6  N   UNL     1      12.506   3.255  -1.746  0.00  0.00    -0.321 N 
ATOM     22  C   UNL     1      11.810   2.236  -2.499  0.00  0.00    +0.130 C 
ATOM     23  C   UNL     1      13.628   3.943  -2.342  0.00  0.00    +0.130 C 
ENDBRANCH  21   6
ENDBRANCH  16  17
BRANCH  15  11
ATOM      2  N   UNL     1       9.059   7.209   6.339  0.00  0.00    -0.291 NA
ATOM     11  C   UNL     1      10.410   6.616   6.284  0.00  0.00    +0.146 C 
ATOM     12  C   UNL     1       8.817   7.560   7.739  0.00  0.00    +0.085 C 
ATOM     13  C   UNL     1      10.622   5.998   7.679  0.00  0.00    +0.030 C 
ATOM     14  C   UNL     1       9.365   6.347   8.464  0.00  0.00    +0.017 C 
BRANCH   2  10
ATOM     10  C   UNL     1       8.899   8.355   5.452  0.00  0.00    +0.088 C 
BRANCH  10   7
ATOM      7  C   UNL     1       7.973   8.041   4.322  0.00  0.00    +0.003 C 
ATOM      8  C   UNL     1       8.485   8.112   2.913  0.00  0.00    +0.005 C 
ATOM      9  C   UNL     1       7.524   9.148   3.414  0.00  0.00    +0.005 C 
ENDBRANCH  10   7
ENDBRANCH   2  10
ENDBRANCH  15  11
TORSDOF 5
ENDMDL
MODEL 8
REMARK VINA RESULT:      -5.8      1.661      7.949
REMARK  Name = 45783825
REMARK  7 active torsions:
REMARK  status: ('A' for Active; 'I' for Inactive)
REMARK    1  A    between atoms: N_2  and  C_10
REMARK    2  A    between atoms: N_6  and  C_21
REMARK    3  A    between atoms: N_6  and  C_22
REMARK    4  A    between atoms: N_6  and  C_23
REMARK    5  A    between atoms: C_7  and  C_10
REMARK    6  A    between atoms: C_11  and  C_15
REMARK    7  A    between atoms: C_16  and  C_17
REMARK                            x       y       z     vdW  Elec       q    Type
REMARK                         _______ _______ _______ _____ _____    ______ ____
ROOT
ATOM      1  O   UNL     1      18.726   5.591  19.630  0.00  0.00    -0.336 OA
ATOM      3  N   UNL     1      17.950   6.857  21.308  0.00  0.00    -0.190 NA
ATOM      4  N   UNL     1      17.361   5.781  19.377  0.00  0.00    -0.056 NA
ATOM     15  C   UNL     1      18.990   6.258  20.785  0.00  0.00    +0.245 A 
ATOM     16  C   UNL     1      16.975   6.536  20.409  0.00  0.00    +0.204 A 
ENDROOT
BRANCH  16  17
ATOM      5  N   UNL     1      13.911   7.907  22.009  0.00  0.00    -0.240 NA
ATOM     17  C   UNL     1      15.622   6.986  20.572  0.00  0.00    +0.041 A 
ATOM     18  C   UNL     1      14.724   6.951  19.512  0.00  0.00    +0.016 A 
ATOM     19  C   UNL     1      15.171   7.469  21.789  0.00  0.00    +0.124 A 
ATOM     20  C   UNL     1      13.418   7.394  19.700  0.00  0.00    +0.044 A 
ATOM     21  C   UNL     1      13.065   7.859  20.955  0.00  0.00    +0.121 A 
BRANCH  21   6
ATOM      6  N   UNL     1      11.732   8.307  21.130  0.00  0.00    -0.321 N 
ATOM     22  C   UNL     1      10.878   8.511  19.982  0.00  0.00    +0.130 C 
ATOM     23  C   UNL     1      11.222   8.570  22.456  0.00  0.00    +0.130 C 
ENDBRANCH  21   6
ENDBRANCH  16  17
BRANCH  15  11
ATOM      2  N   UNL     1      20.507   6.003  22.741  0.00  0.00    -0.291 NA
ATOM     11  C   UNL     1      20.420   6.206  21.280  0.00  0.00    +0.146 C 
ATOM     12  C   UNL     1      21.762   5.293  22.986  0.00  0.00    +0.085 C 
ATOM     13  C   UNL     1      21.217   5.035  20.676  0.00  0.00    +0.030 C 
ATOM     14  C   UNL     1      21.764   4.267  21.871  0.00  0.00    +0.017 C 
BRANCH   2  10
ATOM     10  C   UNL     1      20.423   7.246  23.499  0.00  0.00    +0.088 C 
BRANCH  10   7
ATOM      7  C   UNL     1      21.426   8.243  23.017  0.00  0.00    +0.003 C 
ATOM      8  C   UNL     1      21.791   9.401  23.901  0.00  0.00    +0.005 C 
ATOM      9  C   UNL     1      20.971   9.629  22.665  0.00  0.00    +0.005 C 
ENDBRANCH  10   7
ENDBRANCH   2  10
ENDBRANCH  15  11
TORSDOF 5
ENDMDL
MODEL 9
REMARK VINA RESULT:      -5.7      2.711      8.928
REMARK  Name = 45783825
REMARK  7 active torsions:
REMARK  status: ('A' for Active; 'I' for Inactive)
REMARK    1  A    between atoms: N_2  and  C_10
REMARK    2  A    between atoms: N_6  and  C_21
REMARK    3  A    between atoms: N_6  and  C_22
REMARK    4  A    between atoms: N_6  and  C_23
REMARK    5  A    between atoms: C_7  and  C_10
REMARK    6  A    between atoms: C_11  and  C_15
REMARK    7  A    between atoms: C_16  and  C_17
REMARK                            x       y       z     vdW  Elec       q    Type
REMARK                         _______ _______ _______ _____ _____    ______ ____
ROOT
ATOM      1  O   UNL     1      21.270   5.811  23.097  0.00  0.00    -0.336 OA
ATOM      3  N   UNL     1      20.859   6.002  20.903  0.00  0.00    -0.190 NA
ATOM      4  N   UNL     1      19.931   6.204  22.984  0.00  0.00    -0.056 NA
ATOM     15  C   UNL     1      21.742   5.715  21.825  0.00  0.00    +0.245 A 
ATOM     16  C   UNL     1      19.763   6.295  21.661  0.00  0.00    +0.204 A 
ENDROOT
BRANCH  16  17
ATOM      5  N   UNL     1      16.620   8.176  21.026  0.00  0.00    -0.240 NA
ATOM     17  C   UNL     1      18.515   6.678  21.066  0.00  0.00    +0.041 A 
ATOM     18  C   UNL     1      17.987   5.969  19.993  0.00  0.00    +0.016 A 
ATOM     19  C   UNL     1      17.800   7.764  21.541  0.00  0.00    +0.124 A 
ATOM     20  C   UNL     1      16.775   6.363  19.436  0.00  0.00    +0.044 A 
ATOM     21  C   UNL     1      16.136   7.464  19.984  0.00  0.00    +0.121 A 
BRANCH  21   6
ATOM      6  N   UNL     1      14.903   7.853  19.405  0.00  0.00    -0.321 N 
ATOM     22  C   UNL     1      14.766   9.158  18.797  0.00  0.00    +0.130 C 
ATOM     23  C   UNL     1      13.774   6.952  19.426  0.00  0.00    +0.130 C 
ENDBRANCH  21   6
ENDBRANCH  16  17
BRANCH  15  11
ATOM      2  N   UNL     1      23.401   4.385  20.533  0.00  0.00    -0.291 NA
ATOM     11  C   UNL     1      23.190   5.299  21.674  0.00  0.00    +0.146 C 
ATOM     12  C   UNL     1      24.767   4.617  20.064  0.00  0.00    +0.085 C 
ATOM     13  C   UNL     1      24.126   6.490  21.398  0.00  0.00    +0.030 C 
ATOM     14  C   UNL     1      24.864   6.128  20.117  0.00  0.00    +0.017 C 
BRANCH   2  10
ATOM     10  C   UNL     1      23.166   2.986  20.867  0.00  0.00    +0.088 C 
BRANCH  10   7
ATOM      7  C   UNL     1      24.452   2.252  21.066  0.00  0.00    +0.003 C 
ATOM      8  C   UNL     1      24.417   0.821  21.518  0.00  0.00    +0.005 C 
ATOM      9  C   UNL     1      24.884   1.893  22.457  0.00  0.00    +0.005 C 
ENDBRANCH  10   7
ENDBRANCH   2  10
ENDBRANCH  15  11
TORSDOF 5
ENDMDL
MODEL 10
REMARK VINA RESULT:      -5.7     16.990     20.280
REMARK  Name = 45783825
REMARK  7 active torsions:
REMARK  status: ('A' for Active; 'I' for Inactive)
REMARK    1  A    between atoms: N_2  and  C_10
REMARK    2  A    between atoms: N_6  and  C_21
REMARK    3  A    between atoms: N_6  and  C_22
REMARK    4  A    between atoms: N_6  and  C_23
REMARK    5  A    between atoms: C_7  and  C_10
REMARK    6  A    between atoms: C_11  and  C_15
REMARK    7  A    between atoms: C_16  and  C_17
REMARK                            x       y       z     vdW  Elec       q    Type
REMARK                         _______ _______ _______ _____ _____    ______ ____
ROOT
ATOM      1  O   UNL     1      11.019   4.000   0.694  0.00  0.00    -0.336 OA
ATOM      3  N   UNL     1      12.339   4.574   2.410  0.00  0.00    -0.190 NA
ATOM      4  N   UNL     1      10.164   4.432   1.715  0.00  0.00    -0.056 NA
ATOM     15  C   UNL     1      12.281   4.115   1.185  0.00  0.00    +0.245 A 
ATOM     16  C   UNL     1      11.017   4.754   2.693  0.00  0.00    +0.204 A 
ENDROOT
BRANCH  16  17
ATOM      5  N   UNL     1      10.151   7.154   5.398  0.00  0.00    -0.240 NA
ATOM     17  C   UNL     1      10.579   5.256   3.964  0.00  0.00    +0.041 A 
ATOM     18  C   UNL     1      10.170   4.392   4.973  0.00  0.00    +0.016 A 
ATOM     19  C   UNL     1      10.551   6.616   4.224  0.00  0.00    +0.124 A 
ATOM     20  C   UNL     1       9.752   4.908   6.195  0.00  0.00    +0.044 A 
ATOM     21  C   UNL     1       9.760   6.283   6.356  0.00  0.00    +0.121 A 
BRANCH  21   6
ATOM      6  N   UNL     1       9.330   6.793   7.606  0.00  0.00    -0.321 N 
ATOM     22  C   UNL     1       9.056   8.205   7.759  0.00  0.00    +0.130 C 
ATOM     23  C   UNL     1       9.170   5.907   8.736  0.00  0.00    +0.130 C 
ENDBRANCH  21   6
ENDBRANCH  16  17
BRANCH  15  11
ATOM      2  N   UNL     1      13.649   4.694  -0.810  0.00  0.00    -0.291 NA
ATOM     11  C   UNL     1      13.405   3.704   0.258  0.00  0.00    +0.146 C 
ATOM     12  C   UNL     1      15.069   4.594  -1.151  0.00  0.00    +0.085 C 
ATOM     13  C   UNL     1      14.757   3.572   0.984  0.00  0.00    +0.030 C 
ATOM     14  C   UNL     1      15.712   4.475   0.216  0.00  0.00    +0.017 C 
BRANCH   2  10
ATOM     10  C   UNL     1      12.792   4.506  -1.974  0.00  0.00    +0.088 C 
BRANCH  10   7
ATOM      7  C   UNL     1      12.788   3.081  -2.421  0.00  0.00    +0.003 C 
ATOM      8  C   UNL     1      12.378   2.754  -3.827  0.00  0.00    +0.005 C 
ATOM      9  C   UNL     1      11.478   2.398  -2.681  0.00  0.00    +0.005 C 
ENDBRANCH  10   7
ENDBRANCH   2  10
ENDBRANCH  15  11
TORSDOF 5
ENDMDL
