MODEL 1
REMARK VINA RESULT:      -6.6      0.000      0.000
REMARK  Name = 25313511
REMARK  8 active torsions:
REMARK  status: ('A' for Active; 'I' for Inactive)
REMARK    1  A    between atoms: N_5  and  C_18
REMARK    2  A    between atoms: N_5  and  C_19
REMARK    3  A    between atoms: C_7  and  C_13
REMARK    4  A    between atoms: C_8  and  C_12
REMARK    5  A    between atoms: C_12  and  C_14
REMARK    6  A    between atoms: C_13  and  C_15
REMARK    7  A    between atoms: C_17  and  C_20
REMARK    8  A    between atoms: C_18  and  C_21
REMARK                            x       y       z     vdW  Elec       q    Type
REMARK                         _______ _______ _______ _____ _____    ______ ____
ROOT
ATOM      4  N   UNL     1      11.565   9.324  23.038  0.00  0.00    -0.316 NA
ATOM      7  C   UNL     1      12.322   8.010  20.506  0.00  0.00    +0.004 C 
ATOM      8  C   UNL     1      13.342   8.758  21.399  0.00  0.00    +0.012 C 
ATOM      9  C   UNL     1      11.140   7.547  21.374  0.00  0.00    +0.019 C 
ATOM     10  C   UNL     1      12.666   9.857  22.236  0.00  0.00    +0.085 C 
ATOM     11  C   UNL     1      10.547   8.684  22.206  0.00  0.00    +0.081 C 
ATOM     28  H   UNL     1      11.137  10.081  23.570  0.00  0.00    +0.122 HD
ENDROOT
BRANCH   8  12
ATOM     12  C   UNL     1      14.521   9.330  20.611  0.00  0.00    +0.064 C 
BRANCH  12  14
ATOM      3  O   UNL     1      16.746   6.640  19.729  0.00  0.00    -0.354 OA
ATOM      6  N   UNL     1      15.576   7.373  19.565  0.00  0.00    -0.083 NA
ATOM     14  C   UNL     1      15.637   8.332  20.494  0.00  0.00    +0.085 A 
ATOM     16  C   UNL     1      16.810   8.256  21.265  0.00  0.00    +0.076 A 
ATOM     17  C   UNL     1      17.472   7.175  20.743  0.00  0.00    +0.167 A 
BRANCH  17  20
ATOM      1  F   UNL     1      22.288   4.627  21.867  0.00  0.00    -0.205 F 
ATOM     20  C   UNL     1      18.714   6.519  21.032  0.00  0.00    +0.020 A 
ATOM     22  C   UNL     1      19.211   5.551  20.159  0.00  0.00    +0.014 A 
ATOM     23  C   UNL     1      19.424   6.848  22.187  0.00  0.00    +0.014 A 
ATOM     24  C   UNL     1      20.419   4.912  20.441  0.00  0.00    +0.039 A 
ATOM     25  C   UNL     1      20.632   6.209  22.469  0.00  0.00    +0.039 A 
ATOM     26  C   UNL     1      21.129   5.241  21.596  0.00  0.00    +0.123 A 
ENDBRANCH  17  20
ENDBRANCH  12  14
ENDBRANCH   8  12
BRANCH   7  13
ATOM     13  C   UNL     1      11.831   8.826  19.304  0.00  0.00    +0.100 C 
BRANCH  13  15
ATOM      2  O   UNL     1      12.303   7.124  17.684  0.00  0.00    -0.276 OA
ATOM      5  N   UNL     1      13.006   9.276  17.174  0.00  0.00    -0.293 N 
ATOM     15  C   UNL     1      12.394   8.317  17.989  0.00  0.00    +0.216 C 
ATOM     19  C   UNL     1      13.594   8.942  15.882  0.00  0.00    +0.133 C 
BRANCH   5  18
ATOM     18  C   UNL     1      13.102  10.682  17.556  0.00  0.00    +0.196 C 
BRANCH  18  21
ATOM     21  C   UNL     1      14.493  11.133  17.562  0.00  0.00    -0.086 C 
ATOM     27  C   UNL     1      15.635  11.504  17.564  0.00  0.00    +0.005 C 
ENDBRANCH  18  21
ENDBRANCH   5  18
ENDBRANCH  13  15
ENDBRANCH   7  13
TORSDOF 7
ENDMDL
MODEL 2
REMARK VINA RESULT:      -6.2      5.268     11.175
REMARK  Name = 25313511
REMARK  8 active torsions:
REMARK  status: ('A' for Active; 'I' for Inactive)
REMARK    1  A    between atoms: N_5  and  C_18
REMARK    2  A    between atoms: N_5  and  C_19
REMARK    3  A    between atoms: C_7  and  C_13
REMARK    4  A    between atoms: C_8  and  C_12
REMARK    5  A    between atoms: C_12  and  C_14
REMARK    6  A    between atoms: C_13  and  C_15
REMARK    7  A    between atoms: C_17  and  C_20
REMARK    8  A    between atoms: C_18  and  C_21
REMARK                            x       y       z     vdW  Elec       q    Type
REMARK                         _______ _______ _______ _____ _____    ______ ____
ROOT
ATOM      4  N   UNL     1      24.601   3.786  19.390  0.00  0.00    -0.316 NA
ATOM      7  C   UNL     1      22.927   2.882  21.645  0.00  0.00    +0.004 C 
ATOM      8  C   UNL     1      22.606   4.152  20.821  0.00  0.00    +0.012 C 
ATOM      9  C   UNL     1      23.768   1.925  20.785  0.00  0.00    +0.019 C 
ATOM     10  C   UNL     1      23.874   4.762  20.201  0.00  0.00    +0.085 C 
ATOM     11  C   UNL     1      24.987   2.612  20.170  0.00  0.00    +0.081 C 
ATOM     28  H   UNL     1      25.438   4.223  19.004  0.00  0.00    +0.122 HD
ENDROOT
BRANCH   8  12
ATOM     12  C   UNL     1      21.838   5.206  21.619  0.00  0.00    +0.064 C 
BRANCH  12  14
ATOM      3  O   UNL     1      18.750   5.172  19.768  0.00  0.00    -0.354 OA
ATOM      6  N   UNL     1      19.979   4.628  20.119  0.00  0.00    -0.083 NA
ATOM     14  C   UNL     1      20.492   5.480  21.011  0.00  0.00    +0.085 A 
ATOM     16  C   UNL     1      19.639   6.569  21.261  0.00  0.00    +0.076 A 
ATOM     17  C   UNL     1      18.558   6.327  20.454  0.00  0.00    +0.167 A 
BRANCH  17  20
ATOM      1  F   UNL     1      13.770   8.970  19.437  0.00  0.00    -0.205 F 
ATOM     20  C   UNL     1      17.323   7.007  20.193  0.00  0.00    +0.020 A 
ATOM     22  C   UNL     1      16.336   6.391  19.423  0.00  0.00    +0.014 A 
ATOM     23  C   UNL     1      17.110   8.286  20.707  0.00  0.00    +0.014 A 
ATOM     24  C   UNL     1      15.135   7.054  19.169  0.00  0.00    +0.039 A 
ATOM     25  C   UNL     1      15.909   8.950  20.452  0.00  0.00    +0.039 A 
ATOM     26  C   UNL     1      14.922   8.333  19.683  0.00  0.00    +0.123 A 
ENDBRANCH  17  20
ENDBRANCH  12  14
ENDBRANCH   8  12
BRANCH   7  13
ATOM     13  C   UNL     1      23.620   3.166  22.983  0.00  0.00    +0.100 C 
BRANCH  13  15
ATOM      2  O   UNL     1      22.134   2.054  24.499  0.00  0.00    -0.276 OA
ATOM      5  N   UNL     1      24.330   1.306  24.452  0.00  0.00    -0.293 N 
ATOM     15  C   UNL     1      23.279   2.135  24.044  0.00  0.00    +0.216 C 
ATOM     19  C   UNL     1      24.159   0.268  25.461  0.00  0.00    +0.133 C 
BRANCH   5  18
ATOM     18  C   UNL     1      25.677   1.419  23.899  0.00  0.00    +0.196 C 
BRANCH  18  21
ATOM     21  C   UNL     1      26.028   0.232  23.120  0.00  0.00    -0.086 C 
ATOM     27  C   UNL     1      26.320  -0.740  22.479  0.00  0.00    +0.005 C 
ENDBRANCH  18  21
ENDBRANCH   5  18
ENDBRANCH  13  15
ENDBRANCH   7  13
TORSDOF 7
ENDMDL
MODEL 3
REMARK VINA RESULT:      -6.0     29.399     31.730
REMARK  Name = 25313511
REMARK  8 active torsions:
REMARK  status: ('A' for Active; 'I' for Inactive)
REMARK    1  A    between atoms: N_5  and  C_18
REMARK    2  A    between atoms: N_5  and  C_19
REMARK    3  A    between atoms: C_7  and  C_13
REMARK    4  A    between atoms: C_8  and  C_12
REMARK    5  A    between atoms: C_12  and  C_14
REMARK    6  A    between atoms: C_13  and  C_15
REMARK    7  A    between atoms: C_17  and  C_20
REMARK    8  A    between atoms: C_18  and  C_21
REMARK                            x       y       z     vdW  Elec       q    Type
REMARK                         _______ _______ _______ _____ _____    ______ ____
ROOT
ATOM      4  N   UNL     1     -13.561   9.863  30.472  0.00  0.00    -0.316 NA
ATOM      7  C   UNL     1     -11.643   8.870  32.483  0.00  0.00    +0.004 C 
ATOM      8  C   UNL     1     -13.058   8.268  32.306  0.00  0.00    +0.012 C 
ATOM      9  C   UNL     1     -11.213   9.535  31.165  0.00  0.00    +0.019 C 
ATOM     10  C   UNL     1     -14.046   9.295  31.729  0.00  0.00    +0.085 C 
ATOM     11  C   UNL     1     -12.261  10.511  30.633  0.00  0.00    +0.081 C 
ATOM     28  H   UNL     1     -14.236  10.545  30.126  0.00  0.00    +0.122 HD
ENDROOT
BRANCH   8  12
ATOM     12  C   UNL     1     -13.612   7.652  33.591  0.00  0.00    +0.064 C 
BRANCH  12  14
ATOM      3  O   UNL     1     -14.277   4.139  34.020  0.00  0.00    -0.354 OA
ATOM      6  N   UNL     1     -14.139   5.433  34.508  0.00  0.00    -0.083 NA
ATOM     14  C   UNL     1     -13.836   6.175  33.438  0.00  0.00    +0.085 A 
ATOM     16  C   UNL     1     -13.770   5.411  32.260  0.00  0.00    +0.076 A 
ATOM     17  C   UNL     1     -14.055   4.138  32.681  0.00  0.00    +0.167 A 
BRANCH  17  20
ATOM      1  F   UNL     1     -14.467  -0.810  30.173  0.00  0.00    -0.205 F 
ATOM     20  C   UNL     1     -14.163   2.863  32.034  0.00  0.00    +0.020 A 
ATOM     22  C   UNL     1     -14.763   1.792  32.698  0.00  0.00    +0.014 A 
ATOM     23  C   UNL     1     -13.665   2.693  30.742  0.00  0.00    +0.014 A 
ATOM     24  C   UNL     1     -14.867   0.552  32.068  0.00  0.00    +0.039 A 
ATOM     25  C   UNL     1     -13.768   1.452  30.113  0.00  0.00    +0.039 A 
ATOM     26  C   UNL     1     -14.369   0.381  30.776  0.00  0.00    +0.123 A 
ENDBRANCH  17  20
ENDBRANCH  12  14
ENDBRANCH   8  12
BRANCH   7  13
ATOM     13  C   UNL     1     -11.528   9.855  33.653  0.00  0.00    +0.100 C 
BRANCH  13  15
ATOM      2  O   UNL     1      -9.131   9.859  33.649  0.00  0.00    -0.276 OA
ATOM      5  N   UNL     1     -10.171   9.692  35.717  0.00  0.00    -0.293 N 
ATOM     15  C   UNL     1     -10.165   9.803  34.322  0.00  0.00    +0.216 C 
ATOM     19  C   UNL     1      -8.944   9.632  36.501  0.00  0.00    +0.133 C 
BRANCH   5  18
ATOM     18  C   UNL     1     -11.408   9.628  36.491  0.00  0.00    +0.196 C 
BRANCH  18  21
ATOM     21  C   UNL     1     -11.811   8.242  36.727  0.00  0.00    -0.086 C 
ATOM     27  C   UNL     1     -12.146   7.105  36.920  0.00  0.00    +0.005 C 
ENDBRANCH  18  21
ENDBRANCH   5  18
ENDBRANCH  13  15
ENDBRANCH   7  13
TORSDOF 7
ENDMDL
MODEL 4
REMARK VINA RESULT:      -6.0     27.245     29.155
REMARK  Name = 25313511
REMARK  8 active torsions:
REMARK  status: ('A' for Active; 'I' for Inactive)
REMARK    1  A    between atoms: N_5  and  C_18
REMARK    2  A    between atoms: N_5  and  C_19
REMARK    3  A    between atoms: C_7  and  C_13
REMARK    4  A    between atoms: C_8  and  C_12
REMARK    5  A    between atoms: C_12  and  C_14
REMARK    6  A    between atoms: C_13  and  C_15
REMARK    7  A    between atoms: C_17  and  C_20
REMARK    8  A    between atoms: C_18  and  C_21
REMARK                            x       y       z     vdW  Elec       q    Type
REMARK                         _______ _______ _______ _____ _____    ______ ____
ROOT
ATOM      4  N   UNL     1      -4.507  -8.553   9.214  0.00  0.00    -0.316 NA
ATOM      7  C   UNL     1      -4.586 -11.179  10.557  0.00  0.00    +0.004 C 
ATOM      8  C   UNL     1      -3.714 -10.006  11.064  0.00  0.00    +0.012 C 
ATOM      9  C   UNL     1      -5.762 -10.614   9.743  0.00  0.00    +0.019 C 
ATOM     10  C   UNL     1      -3.328  -9.050   9.923  0.00  0.00    +0.085 C 
ATOM     11  C   UNL     1      -5.305  -9.643   8.655  0.00  0.00    +0.081 C 
ATOM     28  H   UNL     1      -4.212  -7.932   8.461  0.00  0.00    +0.122 HD
ENDROOT
BRANCH   8  12
ATOM     12  C   UNL     1      -2.468 -10.469  11.821  0.00  0.00    +0.064 C 
BRANCH  12  14
ATOM      3  O   UNL     1      -2.379 -11.139  15.357  0.00  0.00    -0.354 OA
ATOM      6  N   UNL     1      -1.787 -11.083  14.101  0.00  0.00    -0.083 NA
ATOM     14  C   UNL     1      -2.753 -10.653  13.284  0.00  0.00    +0.085 A 
ATOM     16  C   UNL     1      -3.963 -10.423  13.961  0.00  0.00    +0.076 A 
ATOM     17  C   UNL     1      -3.674 -10.744  15.261  0.00  0.00    +0.167 A 
BRANCH  17  20
ATOM      1  F   UNL     1      -6.558 -10.767  20.019  0.00  0.00    -0.205 F 
ATOM     20  C   UNL     1      -4.418 -10.751  16.487  0.00  0.00    +0.020 A 
ATOM     22  C   UNL     1      -5.626 -10.057  16.575  0.00  0.00    +0.014 A 
ATOM     23  C   UNL     1      -3.934 -11.450  17.593  0.00  0.00    +0.014 A 
ATOM     24  C   UNL     1      -6.348 -10.063  17.767  0.00  0.00    +0.039 A 
ATOM     25  C   UNL     1      -4.657 -11.456  18.786  0.00  0.00    +0.039 A 
ATOM     26  C   UNL     1      -5.864 -10.762  18.873  0.00  0.00    +0.123 A 
ENDBRANCH  17  20
ENDBRANCH  12  14
ENDBRANCH   8  12
BRANCH   7  13
ATOM     13  C   UNL     1      -3.813 -12.226   9.746  0.00  0.00    +0.100 C 
BRANCH  13  15
ATOM      2  O   UNL     1      -5.376 -13.836   8.905  0.00  0.00    -0.276 OA
ATOM      5  N   UNL     1      -4.084 -14.485  10.720  0.00  0.00    -0.293 N 
ATOM     15  C   UNL     1      -4.503 -13.579   9.739  0.00  0.00    +0.216 C 
ATOM     19  C   UNL     1      -4.651 -15.822  10.841  0.00  0.00    +0.133 C 
BRANCH   5  18
ATOM     18  C   UNL     1      -3.048 -14.158  11.696  0.00  0.00    +0.196 C 
BRANCH  18  21
ATOM     21  C   UNL     1      -3.573 -14.214  13.060  0.00  0.00    -0.086 C 
ATOM     27  C   UNL     1      -4.002 -14.256  14.181  0.00  0.00    +0.005 C 
ENDBRANCH  18  21
ENDBRANCH   5  18
ENDBRANCH  13  15
ENDBRANCH   7  13
TORSDOF 7
ENDMDL
MODEL 5
REMARK VINA RESULT:      -5.9     26.086     28.404
REMARK  Name = 25313511
REMARK  8 active torsions:
REMARK  status: ('A' for Active; 'I' for Inactive)
REMARK    1  A    between atoms: N_5  and  C_18
REMARK    2  A    between atoms: N_5  and  C_19
REMARK    3  A    between atoms: C_7  and  C_13
REMARK    4  A    between atoms: C_8  and  C_12
REMARK    5  A    between atoms: C_12  and  C_14
REMARK    6  A    between atoms: C_13  and  C_15
REMARK    7  A    between atoms: C_17  and  C_20
REMARK    8  A    between atoms: C_18  and  C_21
REMARK                            x       y       z     vdW  Elec       q    Type
REMARK                         _______ _______ _______ _____ _____    ______ ____
ROOT
ATOM      4  N   UNL     1     -13.965   4.358  21.976  0.00  0.00    -0.316 NA
ATOM      7  C   UNL     1     -14.117   7.130  20.975  0.00  0.00    +0.004 C 
ATOM      8  C   UNL     1     -12.811   6.300  20.946  0.00  0.00    +0.012 C 
ATOM      9  C   UNL     1     -15.319   6.172  20.988  0.00  0.00    +0.019 C 
ATOM     10  C   UNL     1     -12.793   5.230  22.050  0.00  0.00    +0.085 C 
ATOM     11  C   UNL     1     -15.211   5.114  22.085  0.00  0.00    +0.081 C 
ATOM     28  H   UNL     1     -13.923   3.670  22.727  0.00  0.00    +0.122 HD
ENDROOT
BRANCH   8  12
ATOM     12  C   UNL     1     -11.550   7.163  21.013  0.00  0.00    +0.064 C 
BRANCH  12  14
ATOM      3  O   UNL     1     -10.975   8.093  17.583  0.00  0.00    -0.354 OA
ATOM      6  N   UNL     1     -11.209   7.154  18.579  0.00  0.00    -0.083 NA
ATOM     14  C   UNL     1     -11.296   7.863  19.709  0.00  0.00    +0.085 A 
ATOM     16  C   UNL     1     -11.126   9.241  19.489  0.00  0.00    +0.076 A 
ATOM     17  C   UNL     1     -10.927   9.332  18.136  0.00  0.00    +0.167 A 
BRANCH  17  20
ATOM      1  F   UNL     1      -9.999  13.518  14.593  0.00  0.00    -0.205 F 
ATOM     20  C   UNL     1     -10.689  10.412  17.223  0.00  0.00    +0.020 A 
ATOM     22  C   UNL     1     -11.438  10.512  16.050  0.00  0.00    +0.014 A 
ATOM     23  C   UNL     1      -9.707  11.361  17.508  0.00  0.00    +0.014 A 
ATOM     24  C   UNL     1     -11.205  11.561  15.162  0.00  0.00    +0.039 A 
ATOM     25  C   UNL     1      -9.474  12.411  16.619  0.00  0.00    +0.039 A 
ATOM     26  C   UNL     1     -10.223  12.511  15.446  0.00  0.00    +0.123 A 
ENDBRANCH  17  20
ENDBRANCH  12  14
ENDBRANCH   8  12
BRANCH   7  13
ATOM     13  C   UNL     1     -14.197   8.123  22.141  0.00  0.00    +0.100 C 
BRANCH  13  15
ATOM      2  O   UNL     1     -14.469   9.826  20.476  0.00  0.00    -0.276 OA
ATOM      5  N   UNL     1     -14.163  10.542  22.662  0.00  0.00    -0.293 N 
ATOM     15  C   UNL     1     -14.290   9.564  21.669  0.00  0.00    +0.216 C 
ATOM     19  C   UNL     1     -14.230  11.968  22.366  0.00  0.00    +0.133 C 
BRANCH   5  18
ATOM     18  C   UNL     1     -13.952  10.208  24.068  0.00  0.00    +0.196 C 
BRANCH  18  21
ATOM     21  C   UNL     1     -12.652  10.688  24.534  0.00  0.00    -0.086 C 
ATOM     27  C   UNL     1     -11.584  11.078  24.920  0.00  0.00    +0.005 C 
ENDBRANCH  18  21
ENDBRANCH   5  18
ENDBRANCH  13  15
ENDBRANCH   7  13
TORSDOF 7
ENDMDL
MODEL 6
REMARK VINA RESULT:      -5.8     14.742     18.888
REMARK  Name = 25313511
REMARK  8 active torsions:
REMARK  status: ('A' for Active; 'I' for Inactive)
REMARK    1  A    between atoms: N_5  and  C_18
REMARK    2  A    between atoms: N_5  and  C_19
REMARK    3  A    between atoms: C_7  and  C_13
REMARK    4  A    between atoms: C_8  and  C_12
REMARK    5  A    between atoms: C_12  and  C_14
REMARK    6  A    between atoms: C_13  and  C_15
REMARK    7  A    between atoms: C_17  and  C_20
REMARK    8  A    between atoms: C_18  and  C_21
REMARK                            x       y       z     vdW  Elec       q    Type
REMARK                         _______ _______ _______ _____ _____    ______ ____
ROOT
ATOM      4  N   UNL     1       8.721   7.865  -1.185  0.00  0.00    -0.316 NA
ATOM      7  C   UNL     1      10.356   6.202   0.623  0.00  0.00    +0.004 C 
ATOM      8  C   UNL     1       9.587   7.456   1.105  0.00  0.00    +0.012 C 
ATOM      9  C   UNL     1       9.677   5.653  -0.642  0.00  0.00    +0.019 C 
ATOM     10  C   UNL     1       9.385   8.471  -0.031  0.00  0.00    +0.085 C 
ATOM     11  C   UNL     1       9.474   6.727  -1.709  0.00  0.00    +0.081 C 
ATOM     28  H   UNL     1       8.614   8.564  -1.919  0.00  0.00    +0.122 HD
ENDROOT
BRANCH   8  12
ATOM     12  C   UNL     1      10.234   8.127   2.317  0.00  0.00    +0.064 C 
BRANCH  12  14
ATOM      3  O   UNL     1       8.218   7.072   5.108  0.00  0.00    -0.354 OA
ATOM      6  N   UNL     1       8.379   7.665   3.862  0.00  0.00    -0.083 NA
ATOM     14  C   UNL     1       9.687   7.578   3.604  0.00  0.00    +0.085 A 
ATOM     16  C   UNL     1      10.395   6.946   4.641  0.00  0.00    +0.076 A 
ATOM     17  C   UNL     1       9.425   6.648   5.562  0.00  0.00    +0.167 A 
BRANCH  17  20
ATOM      1  F   UNL     1       9.401   4.180  10.547  0.00  0.00    -0.205 F 
ATOM     20  C   UNL     1       9.417   6.011   6.847  0.00  0.00    +0.020 A 
ATOM     22  C   UNL     1       9.013   6.724   7.977  0.00  0.00    +0.014 A 
ATOM     23  C   UNL     1       9.816   4.681   6.968  0.00  0.00    +0.014 A 
ATOM     24  C   UNL     1       9.007   6.106   9.226  0.00  0.00    +0.039 A 
ATOM     25  C   UNL     1       9.810   4.061   8.218  0.00  0.00    +0.039 A 
ATOM     26  C   UNL     1       9.406   4.774   9.348  0.00  0.00    +0.123 A 
ENDBRANCH  17  20
ENDBRANCH  12  14
ENDBRANCH   8  12
BRANCH   7  13
ATOM     13  C   UNL     1      11.851   6.445   0.379  0.00  0.00    +0.100 C 
BRANCH  13  15
ATOM      2  O   UNL     1      12.713   5.538   2.423  0.00  0.00    -0.276 OA
ATOM      5  N   UNL     1      13.536   4.634   0.450  0.00  0.00    -0.293 N 
ATOM     15  C   UNL     1      12.730   5.508   1.188  0.00  0.00    +0.216 C 
ATOM     19  C   UNL     1      14.433   3.676   1.083  0.00  0.00    +0.133 C 
BRANCH   5  18
ATOM     18  C   UNL     1      13.538   4.617  -1.011  0.00  0.00    +0.196 C 
BRANCH  18  21
ATOM     21  C   UNL     1      12.794   3.469  -1.526  0.00  0.00    -0.086 C 
ATOM     27  C   UNL     1      12.184   2.524  -1.946  0.00  0.00    +0.005 C 
ENDBRANCH  18  21
ENDBRANCH   5  18
ENDBRANCH  13  15
ENDBRANCH   7  13
TORSDOF 7
ENDMDL
MODEL 7
REMARK VINA RESULT:      -5.7     27.847     31.374
REMARK  Name = 25313511
REMARK  8 active torsions:
REMARK  status: ('A' for Active; 'I' for Inactive)
REMARK    1  A    between atoms: N_5  and  C_18
REMARK    2  A    between atoms: N_5  and  C_19
REMARK    3  A    between atoms: C_7  and  C_13
REMARK    4  A    between atoms: C_8  and  C_12
REMARK    5  A    between atoms: C_12  and  C_14
REMARK    6  A    between atoms: C_13  and  C_15
REMARK    7  A    between atoms: C_17  and  C_20
REMARK    8  A    between atoms: C_18  and  C_21
REMARK                            x       y       z     vdW  Elec       q    Type
REMARK                         _______ _______ _______ _____ _____    ______ ____
ROOT
ATOM      4  N   UNL     1      -9.532 -11.010  14.840  0.00  0.00    -0.316 NA
ATOM      7  C   UNL     1      -8.997 -10.151  17.611  0.00  0.00    +0.004 C 
ATOM      8  C   UNL     1      -9.955  -9.385  16.667  0.00  0.00    +0.012 C 
ATOM      9  C   UNL     1      -8.904 -11.615  17.151  0.00  0.00    +0.019 C 
ATOM     10  C   UNL     1      -9.583  -9.591  15.190  0.00  0.00    +0.085 C 
ATOM     11  C   UNL     1      -8.571 -11.739  15.665  0.00  0.00    +0.081 C 
ATOM     28  H   UNL     1      -9.274 -11.107  13.858  0.00  0.00    +0.122 HD
ENDROOT
BRANCH   8  12
ATOM     12  C   UNL     1     -10.053  -7.894  16.994  0.00  0.00    +0.064 C 
BRANCH  12  14
ATOM      3  O   UNL     1     -13.128  -6.782  15.487  0.00  0.00    -0.354 OA
ATOM      6  N   UNL     1     -12.409  -7.579  16.370  0.00  0.00    -0.083 NA
ATOM     14  C   UNL     1     -11.132  -7.227  16.191  0.00  0.00    +0.085 A 
ATOM     16  C   UNL     1     -10.986  -6.222  15.218  0.00  0.00    +0.076 A 
ATOM     17  C   UNL     1     -12.271  -5.979  14.808  0.00  0.00    +0.167 A 
BRANCH  17  20
ATOM      1  F   UNL     1     -14.604  -2.552  11.098  0.00  0.00    -0.205 F 
ATOM     20  C   UNL     1     -12.873  -5.094  13.852  0.00  0.00    +0.020 A 
ATOM     22  C   UNL     1     -14.262  -5.015  13.753  0.00  0.00    +0.014 A 
ATOM     23  C   UNL     1     -12.068  -4.315  13.022  0.00  0.00    +0.014 A 
ATOM     24  C   UNL     1     -14.847  -4.156  12.823  0.00  0.00    +0.039 A 
ATOM     25  C   UNL     1     -12.653  -3.455  12.091  0.00  0.00    +0.039 A 
ATOM     26  C   UNL     1     -14.043  -3.376  11.992  0.00  0.00    +0.123 A 
ENDBRANCH  17  20
ENDBRANCH  12  14
ENDBRANCH   8  12
BRANCH   7  13
ATOM     13  C   UNL     1      -7.602  -9.524  17.724  0.00  0.00    +0.100 C 
BRANCH  13  15
ATOM      2  O   UNL     1      -6.989 -10.483  19.834  0.00  0.00    -0.276 OA
ATOM      5  N   UNL     1      -5.513 -10.805  18.073  0.00  0.00    -0.293 N 
ATOM     15  C   UNL     1      -6.688 -10.309  18.649  0.00  0.00    +0.216 C 
ATOM     19  C   UNL     1      -4.536 -11.577  18.831  0.00  0.00    +0.133 C 
BRANCH   5  18
ATOM     18  C   UNL     1      -5.177 -10.586  16.668  0.00  0.00    +0.196 C 
BRANCH  18  21
ATOM     21  C   UNL     1      -3.731 -10.622  16.460  0.00  0.00    -0.086 C 
ATOM     27  C   UNL     1      -2.543 -10.651  16.285  0.00  0.00    +0.005 C 
ENDBRANCH  18  21
ENDBRANCH   5  18
ENDBRANCH  13  15
ENDBRANCH   7  13
TORSDOF 7
ENDMDL
MODEL 8
REMARK VINA RESULT:      -5.6     27.726     29.717
REMARK  Name = 25313511
REMARK  8 active torsions:
REMARK  status: ('A' for Active; 'I' for Inactive)
REMARK    1  A    between atoms: N_5  and  C_18
REMARK    2  A    between atoms: N_5  and  C_19
REMARK    3  A    between atoms: C_7  and  C_13
REMARK    4  A    between atoms: C_8  and  C_12
REMARK    5  A    between atoms: C_12  and  C_14
REMARK    6  A    between atoms: C_13  and  C_15
REMARK    7  A    between atoms: C_17  and  C_20
REMARK    8  A    between atoms: C_18  and  C_21
REMARK                            x       y       z     vdW  Elec       q    Type
REMARK                         _______ _______ _______ _____ _____    ______ ____
ROOT
ATOM      4  N   UNL     1      -2.641 -14.082  14.463  0.00  0.00    -0.316 NA
ATOM      7  C   UNL     1      -4.271 -11.815  13.510  0.00  0.00    +0.004 C 
ATOM      8  C   UNL     1      -2.929 -12.215  12.852  0.00  0.00    +0.012 C 
ATOM      9  C   UNL     1      -4.868 -13.042  14.219  0.00  0.00    +0.019 C 
ATOM     10  C   UNL     1      -1.995 -12.922  13.849  0.00  0.00    +0.085 C 
ATOM     11  C   UNL     1      -3.870 -13.714  15.162  0.00  0.00    +0.081 C 
ATOM     28  H   UNL     1      -1.997 -14.518  15.123  0.00  0.00    +0.122 HD
ENDROOT
BRANCH   8  12
ATOM     12  C   UNL     1      -2.213 -11.039  12.187  0.00  0.00    +0.064 C 
BRANCH  12  14
ATOM      3  O   UNL     1      -3.698  -9.235   9.448  0.00  0.00    -0.354 OA
ATOM      6  N   UNL     1      -2.972  -9.294  10.631  0.00  0.00    -0.083 NA
ATOM     14  C   UNL     1      -2.930 -10.593  10.945  0.00  0.00    +0.085 A 
ATOM     16  C   UNL     1      -3.605 -11.392  10.006  0.00  0.00    +0.076 A 
ATOM     17  C   UNL     1      -4.069 -10.489   9.085  0.00  0.00    +0.167 A 
BRANCH  17  20
ATOM      1  F   UNL     1      -7.030 -10.872   4.391  0.00  0.00    -0.205 F 
ATOM     20  C   UNL     1      -4.832 -10.587   7.874  0.00  0.00    +0.020 A 
ATOM     22  C   UNL     1      -5.782  -9.612   7.567  0.00  0.00    +0.014 A 
ATOM     23  C   UNL     1      -4.624 -11.658   7.005  0.00  0.00    +0.014 A 
ATOM     24  C   UNL     1      -6.524  -9.708   6.391  0.00  0.00    +0.039 A 
ATOM     25  C   UNL     1      -5.367 -11.754   5.827  0.00  0.00    +0.039 A 
ATOM     26  C   UNL     1      -6.317 -10.779   5.521  0.00  0.00    +0.123 A 
ENDBRANCH  17  20
ENDBRANCH  12  14
ENDBRANCH   8  12
BRANCH   7  13
ATOM     13  C   UNL     1      -4.162 -10.627  14.474  0.00  0.00    +0.100 C 
BRANCH  13  15
ATOM      2  O   UNL     1      -6.358  -9.768  14.044  0.00  0.00    -0.276 OA
ATOM      5  N   UNL     1      -5.746 -10.004  16.270  0.00  0.00    -0.293 N 
ATOM     15  C   UNL     1      -5.521 -10.093  14.892  0.00  0.00    +0.216 C 
ATOM     19  C   UNL     1      -7.000  -9.511  16.827  0.00  0.00    +0.133 C 
BRANCH   5  18
ATOM     18  C   UNL     1      -4.741 -10.395  17.255  0.00  0.00    +0.196 C 
BRANCH  18  21
ATOM     21  C   UNL     1      -5.365 -10.801  18.513  0.00  0.00    -0.086 C 
ATOM     27  C   UNL     1      -5.875 -11.131  19.549  0.00  0.00    +0.005 C 
ENDBRANCH  18  21
ENDBRANCH   5  18
ENDBRANCH  13  15
ENDBRANCH   7  13
TORSDOF 7
ENDMDL
MODEL 9
REMARK VINA RESULT:      -5.6     27.076     30.318
REMARK  Name = 25313511
REMARK  8 active torsions:
REMARK  status: ('A' for Active; 'I' for Inactive)
REMARK    1  A    between atoms: N_5  and  C_18
REMARK    2  A    between atoms: N_5  and  C_19
REMARK    3  A    between atoms: C_7  and  C_13
REMARK    4  A    between atoms: C_8  and  C_12
REMARK    5  A    between atoms: C_12  and  C_14
REMARK    6  A    between atoms: C_13  and  C_15
REMARK    7  A    between atoms: C_17  and  C_20
REMARK    8  A    between atoms: C_18  and  C_21
REMARK                            x       y       z     vdW  Elec       q    Type
REMARK                         _______ _______ _______ _____ _____    ______ ____
ROOT
ATOM      4  N   UNL     1      -6.135 -12.705  18.763  0.00  0.00    -0.316 NA
ATOM      7  C   UNL     1      -4.548 -10.925  17.026  0.00  0.00    +0.004 C 
ATOM      8  C   UNL     1      -6.087 -10.821  17.148  0.00  0.00    +0.012 C 
ATOM      9  C   UNL     1      -3.987 -11.577  18.300  0.00  0.00    +0.019 C 
ATOM     10  C   UNL     1      -6.719 -12.168  17.534  0.00  0.00    +0.085 C 
ATOM     11  C   UNL     1      -4.690 -12.890  18.643  0.00  0.00    +0.081 C 
ATOM     28  H   UNL     1      -6.571 -13.600  18.982  0.00  0.00    +0.122 HD
ENDROOT
BRANCH   8  12
ATOM     12  C   UNL     1      -6.751 -10.257  15.891  0.00  0.00    +0.064 C 
BRANCH  12  14
ATOM      3  O   UNL     1      -9.313  -8.213  17.380  0.00  0.00    -0.354 OA
ATOM      6  N   UNL     1      -8.063  -8.818  17.391  0.00  0.00    -0.083 NA
ATOM     14  C   UNL     1      -7.987  -9.474  16.229  0.00  0.00    +0.085 A 
ATOM     16  C   UNL     1      -9.149  -9.321  15.452  0.00  0.00    +0.076 A 
ATOM     17  C   UNL     1      -9.950  -8.519  16.222  0.00  0.00    +0.167 A 
BRANCH  17  20
ATOM      1  F   UNL     1     -15.041  -6.357  15.619  0.00  0.00    -0.205 F 
ATOM     20  C   UNL     1     -11.263  -7.961  16.068  0.00  0.00    +0.020 A 
ATOM     22  C   UNL     1     -12.389  -8.762  16.264  0.00  0.00    +0.014 A 
ATOM     23  C   UNL     1     -11.413  -6.619  15.720  0.00  0.00    +0.014 A 
ATOM     24  C   UNL     1     -13.665  -8.220  16.113  0.00  0.00    +0.039 A 
ATOM     25  C   UNL     1     -12.690  -6.076  15.569  0.00  0.00    +0.039 A 
ATOM     26  C   UNL     1     -13.816  -6.877  15.765  0.00  0.00    +0.123 A 
ENDBRANCH  17  20
ENDBRANCH  12  14
ENDBRANCH   8  12
BRANCH   7  13
ATOM     13  C   UNL     1      -4.071 -11.673  15.774  0.00  0.00    +0.100 C 
BRANCH  13  15
ATOM      2  O   UNL     1      -1.961 -10.540  15.712  0.00  0.00    -0.276 OA
ATOM      5  N   UNL     1      -3.055 -10.820  13.686  0.00  0.00    -0.293 N 
ATOM     15  C   UNL     1      -2.929 -10.960  15.072  0.00  0.00    +0.216 C 
ATOM     19  C   UNL     1      -2.043 -10.159  12.872  0.00  0.00    +0.133 C 
BRANCH   5  18
ATOM     18  C   UNL     1      -4.211 -11.326  12.950  0.00  0.00    +0.196 C 
BRANCH  18  21
ATOM     21  C   UNL     1      -5.132 -10.244  12.606  0.00  0.00    -0.086 C 
ATOM     27  C   UNL     1      -5.890  -9.357  12.321  0.00  0.00    +0.005 C 
ENDBRANCH  18  21
ENDBRANCH   5  18
ENDBRANCH  13  15
ENDBRANCH   7  13
TORSDOF 7
ENDMDL
MODEL 10
REMARK VINA RESULT:      -5.6     23.486     25.545
REMARK  Name = 25313511
REMARK  8 active torsions:
REMARK  status: ('A' for Active; 'I' for Inactive)
REMARK    1  A    between atoms: N_5  and  C_18
REMARK    2  A    between atoms: N_5  and  C_19
REMARK    3  A    between atoms: C_7  and  C_13
REMARK    4  A    between atoms: C_8  and  C_12
REMARK    5  A    between atoms: C_12  and  C_14
REMARK    6  A    between atoms: C_13  and  C_15
REMARK    7  A    between atoms: C_17  and  C_20
REMARK    8  A    between atoms: C_18  and  C_21
REMARK                            x       y       z     vdW  Elec       q    Type
REMARK                         _______ _______ _______ _____ _____    ______ ____
ROOT
ATOM      4  N   UNL     1      18.432  -1.615  -3.479  0.00  0.00    -0.316 NA
ATOM      7  C   UNL     1      18.048  -4.303  -2.323  0.00  0.00    +0.004 C 
ATOM      8  C   UNL     1      19.338  -3.476  -2.108  0.00  0.00    +0.012 C 
ATOM      9  C   UNL     1      16.885  -3.346  -2.634  0.00  0.00    +0.019 C 
ATOM     10  C   UNL     1      19.583  -2.493  -3.265  0.00  0.00    +0.085 C 
ATOM     11  C   UNL     1      17.216  -2.374  -3.766  0.00  0.00    +0.081 C 
ATOM     28  H   UNL     1      18.627  -0.986  -4.257  0.00  0.00    +0.122 HD
ENDROOT
BRANCH   8  12
ATOM     12  C   UNL     1      20.574  -4.345  -1.871  0.00  0.00    +0.064 C 
BRANCH  12  14
ATOM      3  O   UNL     1      19.824  -5.437   1.477  0.00  0.00    -0.354 OA
ATOM      6  N   UNL     1      19.549  -4.694   0.336  0.00  0.00    -0.083 NA
ATOM     14  C   UNL     1      20.544  -4.979  -0.510  0.00  0.00    +0.085 A 
ATOM     16  C   UNL     1      21.466  -5.888   0.038  0.00  0.00    +0.076 A 
ATOM     17  C   UNL     1      20.968  -6.143   1.288  0.00  0.00    +0.167 A 
BRANCH  17  20
ATOM      1  F   UNL     1      22.569  -9.318   5.566  0.00  0.00    -0.205 F 
ATOM     20  C   UNL     1      21.382  -6.962   2.390  0.00  0.00    +0.020 A 
ATOM     22  C   UNL     1      20.894  -8.264   2.514  0.00  0.00    +0.014 A 
ATOM     23  C   UNL     1      22.270  -6.457   3.340  0.00  0.00    +0.014 A 
ATOM     24  C   UNL     1      21.296  -9.060   3.586  0.00  0.00    +0.039 A 
ATOM     25  C   UNL     1      22.672  -7.253   4.413  0.00  0.00    +0.039 A 
ATOM     26  C   UNL     1      22.184  -8.555   4.536  0.00  0.00    +0.123 A 
ENDBRANCH  17  20
ENDBRANCH  12  14
ENDBRANCH   8  12
BRANCH   7  13
ATOM     13  C   UNL     1      18.172  -5.381  -3.406  0.00  0.00    +0.100 C 
BRANCH  13  15
ATOM      2  O   UNL     1      18.410  -7.371  -2.090  0.00  0.00    -0.276 OA
ATOM      5  N   UNL     1      16.535  -7.237  -3.451  0.00  0.00    -0.293 N 
ATOM     15  C   UNL     1      17.732  -6.750  -2.915  0.00  0.00    +0.216 C 
ATOM     19  C   UNL     1      15.983  -8.533  -3.078  0.00  0.00    +0.133 C 
BRANCH   5  18
ATOM     18  C   UNL     1      15.750  -6.483  -4.425  0.00  0.00    +0.196 C 
BRANCH  18  21
ATOM     21  C   UNL     1      14.513  -5.980  -3.830  0.00  0.00    -0.086 C 
ATOM     27  C   UNL     1      13.497  -5.564  -3.343  0.00  0.00    +0.005 C 
ENDBRANCH  18  21
ENDBRANCH   5  18
ENDBRANCH  13  15
ENDBRANCH   7  13
TORSDOF 7
ENDMDL
