MODEL 1
REMARK VINA RESULT:      -7.3      0.000      0.000
REMARK  Name = 11943112
REMARK  6 active torsions:
REMARK  status: ('A' for Active; 'I' for Inactive)
REMARK    1  A    between atoms: O_5  and  C_26
REMARK    2  A    between atoms: O_5  and  C_33
REMARK    3  A    between atoms: N_7  and  C_11
REMARK    4  A    between atoms: N_9  and  C_25
REMARK    5  A    between atoms: C_22  and  C_24
REMARK    6  A    between atoms: C_25  and  C_29
REMARK                            x       y       z     vdW  Elec       q    Type
REMARK                         _______ _______ _______ _____ _____    ______ ____
ROOT
ATOM      2  O   UNL     1      21.414   8.336  21.712  0.00  0.00    -0.273 OA
ATOM      3  O   UNL     1      17.682   5.819  19.078  0.00  0.00    -0.270 OA
ATOM      6  N   UNL     1      19.263   6.074  20.759  0.00  0.00    -0.286 N 
ATOM      8  N   UNL     1      19.300   9.006  21.154  0.00  0.00    -0.283 N 
ATOM     10  C   UNL     1      19.639   6.728  22.006  0.00  0.00    +0.164 C 
ATOM     11  C   UNL     1      21.647   5.134  22.157  0.00  0.00    +0.078 C 
ATOM     12  C   UNL     1      20.559   5.898  22.911  0.00  0.00    +0.054 C 
ATOM     13  C   UNL     1      21.009   4.316  21.040  0.00  0.00    +0.041 C 
ATOM     14  C   UNL     1      20.247   5.222  20.087  0.00  0.00    +0.111 C 
ATOM     15  C   UNL     1      20.217   8.071  21.597  0.00  0.00    +0.238 C 
ATOM     16  C   UNL     1      18.093   6.411  20.076  0.00  0.00    +0.249 C 
ATOM     17  C   UNL     1      17.323   7.602  20.527  0.00  0.00    +0.059 A 
ATOM     18  C   UNL     1      17.921   8.816  20.908  0.00  0.00    +0.046 A 
ATOM     20  C   UNL     1      15.929   7.538  20.353  0.00  0.00    +0.023 A 
ATOM     21  C   UNL     1      17.113   9.957  21.042  0.00  0.00    +0.024 A 
ATOM     22  C   UNL     1      15.137   8.670  20.540  0.00  0.00    -0.014 A 
ATOM     23  C   UNL     1      15.730   9.882  20.871  0.00  0.00    +0.010 A 
ATOM     35  H   UNL     1      19.639   9.964  21.095  0.00  0.00    +0.155 HD
ENDROOT
BRANCH  22  24
ATOM      1 CL   UNL     1      10.502   8.077  22.711  0.00  0.00    -0.084 Cl
ATOM     24  C   UNL     1      13.704   8.589  20.364  0.00  0.00    +0.025 A 
ATOM     26  C   UNL     1      13.129   8.701  19.097  0.00  0.00    +0.128 A 
ATOM     27  C   UNL     1      12.890   8.395  21.482  0.00  0.00    +0.032 A 
ATOM     28  C   UNL     1      11.744   8.621  18.947  0.00  0.00    +0.047 A 
ATOM     30  C   UNL     1      11.505   8.315  21.332  0.00  0.00    +0.042 A 
ATOM     31  C   UNL     1      10.933   8.427  20.065  0.00  0.00    +0.023 A 
BRANCH  26   5
ATOM      5  O   UNL     1      13.899   8.891  17.987  0.00  0.00    -0.495 OA
ATOM     33  C   UNL     1      14.099   7.762  17.139  0.00  0.00    +0.277 C 
ENDBRANCH  26   5
ENDBRANCH  22  24
BRANCH  11   7
ATOM      4  O   UNL     1      24.125   3.763  21.601  0.00  0.00    -0.253 OA
ATOM      7  N   UNL     1      22.390   4.283  23.056  0.00  0.00    -0.296 N 
ATOM      9  N   UNL     1      24.089   2.898  23.754  0.00  0.00    -0.296 N 
ATOM     19  C   UNL     1      23.584   3.658  22.702  0.00  0.00    +0.300 C 
ATOM     34  H   UNL     1      22.066   4.191  24.014  0.00  0.00    +0.151 HD
ATOM     36  H   UNL     1      23.582   2.886  24.634  0.00  0.00    +0.151 HD
BRANCH   9  25
ATOM     25  C   UNL     1      25.317   2.144  23.657  0.00  0.00    +0.132 C 
BRANCH  25  29
ATOM     29  C   UNL     1      25.009   0.775  23.146  0.00  0.00    -0.016 C 
ATOM     32  C   UNL     1      25.538   0.259  22.031  0.00  0.00    +0.005 C 
ENDBRANCH  25  29
ENDBRANCH   9  25
ENDBRANCH  11   7
TORSDOF 5
ENDMDL
MODEL 2
REMARK VINA RESULT:      -7.2     14.740     17.779
REMARK  Name = 11943112
REMARK  6 active torsions:
REMARK  status: ('A' for Active; 'I' for Inactive)
REMARK    1  A    between atoms: O_5  and  C_26
REMARK    2  A    between atoms: O_5  and  C_33
REMARK    3  A    between atoms: N_7  and  C_11
REMARK    4  A    between atoms: N_9  and  C_25
REMARK    5  A    between atoms: C_22  and  C_24
REMARK    6  A    between atoms: C_25  and  C_29
REMARK                            x       y       z     vdW  Elec       q    Type
REMARK                         _______ _______ _______ _____ _____    ______ ____
ROOT
ATOM      2  O   UNL     1       9.097   8.189   3.307  0.00  0.00    -0.273 OA
ATOM      3  O   UNL     1       8.505   7.372   8.423  0.00  0.00    -0.270 OA
ATOM      6  N   UNL     1       9.509   7.085   6.350  0.00  0.00    -0.286 N 
ATOM      8  N   UNL     1       9.001   9.685   5.033  0.00  0.00    -0.283 N 
ATOM     10  C   UNL     1      10.346   7.647   5.298  0.00  0.00    +0.164 C 
ATOM     11  C   UNL     1      10.372   5.339   4.174  0.00  0.00    +0.078 C 
ATOM     12  C   UNL     1      11.149   6.615   4.498  0.00  0.00    +0.054 C 
ATOM     13  C   UNL     1       9.776   4.771   5.458  0.00  0.00    +0.041 C 
ATOM     14  C   UNL     1       8.862   5.791   6.116  0.00  0.00    +0.111 C 
ATOM     15  C   UNL     1       9.414   8.499   4.455  0.00  0.00    +0.238 C 
ATOM     16  C   UNL     1       9.125   7.833   7.464  0.00  0.00    +0.249 C 
ATOM     17  C   UNL     1       9.409   9.293   7.474  0.00  0.00    +0.059 A 
ATOM     18  C   UNL     1       9.229  10.128   6.357  0.00  0.00    +0.046 A 
ATOM     20  C   UNL     1       9.671   9.862   8.732  0.00  0.00    +0.023 A 
ATOM     21  C   UNL     1       9.250  11.520   6.540  0.00  0.00    +0.024 A 
ATOM     22  C   UNL     1       9.738  11.247   8.885  0.00  0.00    -0.014 A 
ATOM     23  C   UNL     1       9.514  12.075   7.792  0.00  0.00    +0.010 A 
ATOM     35  H   UNL     1       8.569  10.357   4.403  0.00  0.00    +0.155 HD
ENDROOT
BRANCH  22  24
ATOM      1 CL   UNL     1      13.246  12.497  12.446  0.00  0.00    -0.084 Cl
ATOM     24  C   UNL     1      10.014  11.819  10.185  0.00  0.00    +0.025 A 
ATOM     26  C   UNL     1       8.982  12.312  10.985  0.00  0.00    +0.128 A 
ATOM     27  C   UNL     1      11.333  11.876  10.638  0.00  0.00    +0.032 A 
ATOM     28  C   UNL     1       9.268  12.862  12.235  0.00  0.00    +0.047 A 
ATOM     30  C   UNL     1      11.619  12.426  11.888  0.00  0.00    +0.042 A 
ATOM     31  C   UNL     1      10.587  12.918  12.686  0.00  0.00    +0.023 A 
BRANCH  26   5
ATOM      5  O   UNL     1       7.684  12.271  10.568  0.00  0.00    -0.495 OA
ATOM     33  C   UNL     1       7.066  13.518  10.257  0.00  0.00    +0.277 C 
ENDBRANCH  26   5
ENDBRANCH  22  24
BRANCH  11   7
ATOM      4  O   UNL     1      11.188   5.304   1.406  0.00  0.00    -0.253 OA
ATOM      7  N   UNL     1      11.226   4.369   3.532  0.00  0.00    -0.296 N 
ATOM      9  N   UNL     1      12.403   3.372   1.825  0.00  0.00    -0.296 N 
ATOM     19  C   UNL     1      11.570   4.429   2.183  0.00  0.00    +0.300 C 
ATOM     34  H   UNL     1      11.654   3.647   4.104  0.00  0.00    +0.151 HD
ATOM     36  H   UNL     1      12.682   2.707   2.540  0.00  0.00    +0.151 HD
BRANCH   9  25
ATOM     25  C   UNL     1      12.909   3.193   0.484  0.00  0.00    +0.132 C 
BRANCH  25  29
ATOM     29  C   UNL     1      14.316   3.689   0.424  0.00  0.00    -0.016 C 
ATOM     32  C   UNL     1      15.176   3.616   1.446  0.00  0.00    +0.005 C 
ENDBRANCH  25  29
ENDBRANCH   9  25
ENDBRANCH  11   7
TORSDOF 5
ENDMDL
MODEL 3
REMARK VINA RESULT:      -7.2      3.727     10.351
REMARK  Name = 11943112
REMARK  6 active torsions:
REMARK  status: ('A' for Active; 'I' for Inactive)
REMARK    1  A    between atoms: O_5  and  C_26
REMARK    2  A    between atoms: O_5  and  C_33
REMARK    3  A    between atoms: N_7  and  C_11
REMARK    4  A    between atoms: N_9  and  C_25
REMARK    5  A    between atoms: C_22  and  C_24
REMARK    6  A    between atoms: C_25  and  C_29
REMARK                            x       y       z     vdW  Elec       q    Type
REMARK                         _______ _______ _______ _____ _____    ______ ____
ROOT
ATOM      2  O   UNL     1      17.721   5.956  18.988  0.00  0.00    -0.273 OA
ATOM      3  O   UNL     1      21.170   8.136  22.235  0.00  0.00    -0.270 OA
ATOM      6  N   UNL     1      19.054   7.467  21.555  0.00  0.00    -0.286 N 
ATOM      8  N   UNL     1      19.645   5.101  19.880  0.00  0.00    -0.283 N 
ATOM     10  C   UNL     1      18.122   6.370  21.331  0.00  0.00    +0.164 C 
ATOM     11  C   UNL     1      16.274   8.107  20.934  0.00  0.00    +0.078 C 
ATOM     12  C   UNL     1      16.644   6.739  21.505  0.00  0.00    +0.054 C 
ATOM     13  C   UNL     1      17.225   9.162  21.489  0.00  0.00    +0.041 C 
ATOM     14  C   UNL     1      18.663   8.817  21.139  0.00  0.00    +0.111 C 
ATOM     15  C   UNL     1      18.468   5.823  19.957  0.00  0.00    +0.238 C 
ATOM     16  C   UNL     1      20.378   7.243  21.937  0.00  0.00    +0.249 C 
ATOM     17  C   UNL     1      20.898   5.850  21.916  0.00  0.00    +0.059 A 
ATOM     18  C   UNL     1      20.623   4.932  20.886  0.00  0.00    +0.046 A 
ATOM     20  C   UNL     1      21.872   5.539  22.881  0.00  0.00    +0.023 A 
ATOM     21  C   UNL     1      21.380   3.751  20.810  0.00  0.00    +0.024 A 
ATOM     22  C   UNL     1      22.578   4.339  22.818  0.00  0.00    -0.014 A 
ATOM     23  C   UNL     1      22.342   3.451  21.775  0.00  0.00    +0.010 A 
ATOM     35  H   UNL     1      19.770   4.549  19.034  0.00  0.00    +0.155 HD
ENDROOT
BRANCH  22  24
ATOM      1 CL   UNL     1      27.312   5.181  24.670  0.00  0.00    -0.084 Cl
ATOM     24  C   UNL     1      23.573   4.030  23.821  0.00  0.00    +0.025 A 
ATOM     26  C   UNL     1      23.310   3.103  24.831  0.00  0.00    +0.128 A 
ATOM     27  C   UNL     1      24.812   4.672  23.772  0.00  0.00    +0.032 A 
ATOM     28  C   UNL     1      24.283   2.819  25.790  0.00  0.00    +0.047 A 
ATOM     30  C   UNL     1      25.785   4.388  24.731  0.00  0.00    +0.042 A 
ATOM     31  C   UNL     1      25.520   3.462  25.740  0.00  0.00    +0.023 A 
BRANCH  26   5
ATOM      5  O   UNL     1      22.109   2.461  24.905  0.00  0.00    -0.495 OA
ATOM     33  C   UNL     1      22.142   1.059  25.164  0.00  0.00    +0.277 C 
ENDBRANCH  26   5
ENDBRANCH  22  24
BRANCH  11   7
ATOM      4  O   UNL     1      13.900   6.919  19.800  0.00  0.00    -0.253 OA
ATOM      7  N   UNL     1      14.903   8.438  21.244  0.00  0.00    -0.296 N 
ATOM      9  N   UNL     1      12.609   8.319  21.126  0.00  0.00    -0.296 N 
ATOM     19  C   UNL     1      13.813   7.810  20.645  0.00  0.00    +0.300 C 
ATOM     34  H   UNL     1      14.723   9.110  21.984  0.00  0.00    +0.151 HD
ATOM     36  H   UNL     1      12.635   9.043  21.839  0.00  0.00    +0.151 HD
BRANCH   9  25
ATOM     25  C   UNL     1      11.322   7.846  20.673  0.00  0.00    +0.132 C 
BRANCH  25  29
ATOM     29  C   UNL     1      10.789   6.862  21.661  0.00  0.00    -0.016 C 
ATOM     32  C   UNL     1      11.036   5.548  21.611  0.00  0.00    +0.005 C 
ENDBRANCH  25  29
ENDBRANCH   9  25
ENDBRANCH  11   7
TORSDOF 5
ENDMDL
MODEL 4
REMARK VINA RESULT:      -6.9     14.577     19.604
REMARK  Name = 11943112
REMARK  6 active torsions:
REMARK  status: ('A' for Active; 'I' for Inactive)
REMARK    1  A    between atoms: O_5  and  C_26
REMARK    2  A    between atoms: O_5  and  C_33
REMARK    3  A    between atoms: N_7  and  C_11
REMARK    4  A    between atoms: N_9  and  C_25
REMARK    5  A    between atoms: C_22  and  C_24
REMARK    6  A    between atoms: C_25  and  C_29
REMARK                            x       y       z     vdW  Elec       q    Type
REMARK                         _______ _______ _______ _____ _____    ______ ____
ROOT
ATOM      2  O   UNL     1       8.408   7.542   7.902  0.00  0.00    -0.273 OA
ATOM      3  O   UNL     1       9.508   8.685   2.934  0.00  0.00    -0.270 OA
ATOM      6  N   UNL     1       9.717   8.895   5.237  0.00  0.00    -0.286 N 
ATOM      8  N   UNL     1       9.048   6.174   6.186  0.00  0.00    -0.283 N 
ATOM     10  C   UNL     1      10.199   8.322   6.487  0.00  0.00    +0.164 C 
ATOM     11  C   UNL     1       9.620  10.537   7.649  0.00  0.00    +0.078 C 
ATOM     12  C   UNL     1      10.580   9.351   7.558  0.00  0.00    +0.054 C 
ATOM     13  C   UNL     1       9.442  11.151   6.265  0.00  0.00    +0.041 C 
ATOM     14  C   UNL     1       8.907  10.115   5.289  0.00  0.00    +0.111 C 
ATOM     15  C   UNL     1       9.124   7.342   6.921  0.00  0.00    +0.238 C 
ATOM     16  C   UNL     1       9.807   8.204   4.028  0.00  0.00    +0.249 C 
ATOM     17  C   UNL     1      10.218   6.774   4.053  0.00  0.00    +0.059 A 
ATOM     18  C   UNL     1       9.752   5.848   5.004  0.00  0.00    +0.046 A 
ATOM     20  C   UNL     1      10.944   6.320   2.939  0.00  0.00    +0.023 A 
ATOM     21  C   UNL     1       9.969   4.479   4.779  0.00  0.00    +0.024 A 
ATOM     22  C   UNL     1      11.193   4.960   2.759  0.00  0.00    -0.014 A 
ATOM     23  C   UNL     1      10.694   4.039   3.672  0.00  0.00    +0.010 A 
ATOM     35  H   UNL     1       8.495   5.427   6.599  0.00  0.00    +0.155 HD
ENDROOT
BRANCH  22  24
ATOM      1 CL   UNL     1      15.767   3.642   0.786  0.00  0.00    -0.084 Cl
ATOM     24  C   UNL     1      11.947   4.507   1.610  0.00  0.00    +0.025 A 
ATOM     26  C   UNL     1      11.316   4.260   0.390  0.00  0.00    +0.128 A 
ATOM     27  C   UNL     1      13.325   4.316   1.732  0.00  0.00    +0.032 A 
ATOM     28  C   UNL     1      12.060   3.823  -0.706  0.00  0.00    +0.047 A 
ATOM     30  C   UNL     1      14.068   3.878   0.635  0.00  0.00    +0.042 A 
ATOM     31  C   UNL     1      13.436   3.633  -0.583  0.00  0.00    +0.023 A 
BRANCH  26   5
ATOM      5  O   UNL     1       9.972   4.438   0.242  0.00  0.00    -0.495 OA
ATOM     33  C   UNL     1       9.549   5.356  -0.764  0.00  0.00    +0.277 C 
ENDBRANCH  26   5
ENDBRANCH  22  24
BRANCH  11   7
ATOM      4  O   UNL     1       8.594  11.077  10.292  0.00  0.00    -0.253 OA
ATOM      7  N   UNL     1      10.108  11.520   8.587  0.00  0.00    -0.296 N 
ATOM      9  N   UNL     1      10.211  12.722  10.546  0.00  0.00    -0.296 N 
ATOM     19  C   UNL     1       9.549  11.714   9.849  0.00  0.00    +0.300 C 
ATOM     34  H   UNL     1      10.941  12.048   8.345  0.00  0.00    +0.151 HD
ATOM     36  H   UNL     1      11.003  13.181  10.105  0.00  0.00    +0.151 HD
BRANCH   9  25
ATOM     25  C   UNL     1       9.835  13.128  11.880  0.00  0.00    +0.132 C 
BRANCH  25  29
ATOM     29  C   UNL     1      10.644  12.356  12.870  0.00  0.00    -0.016 C 
ATOM     32  C   UNL     1      11.973  12.223  12.804  0.00  0.00    +0.005 C 
ENDBRANCH  25  29
ENDBRANCH   9  25
ENDBRANCH  11   7
TORSDOF 5
ENDMDL
MODEL 5
REMARK VINA RESULT:      -6.8     34.121     35.498
REMARK  Name = 11943112
REMARK  6 active torsions:
REMARK  status: ('A' for Active; 'I' for Inactive)
REMARK    1  A    between atoms: O_5  and  C_26
REMARK    2  A    between atoms: O_5  and  C_33
REMARK    3  A    between atoms: N_7  and  C_11
REMARK    4  A    between atoms: N_9  and  C_25
REMARK    5  A    between atoms: C_22  and  C_24
REMARK    6  A    between atoms: C_25  and  C_29
REMARK                            x       y       z     vdW  Elec       q    Type
REMARK                         _______ _______ _______ _____ _____    ______ ____
ROOT
ATOM      2  O   UNL     1      -9.446 -12.242  38.222  0.00  0.00    -0.273 OA
ATOM      3  O   UNL     1      -6.088  -8.589  39.823  0.00  0.00    -0.270 OA
ATOM      6  N   UNL     1      -7.047 -10.031  38.278  0.00  0.00    -0.286 N 
ATOM      8  N   UNL     1      -9.835 -10.236  39.248  0.00  0.00    -0.283 N 
ATOM     10  C   UNL     1      -8.189 -10.343  37.428  0.00  0.00    +0.164 C 
ATOM     11  C   UNL     1      -6.796 -12.215  36.356  0.00  0.00    +0.078 C 
ATOM     12  C   UNL     1      -7.844 -11.121  36.152  0.00  0.00    +0.054 C 
ATOM     13  C   UNL     1      -5.573 -11.621  37.045  0.00  0.00    +0.041 C 
ATOM     14  C   UNL     1      -5.961 -11.009  38.381  0.00  0.00    +0.111 C 
ATOM     15  C   UNL     1      -9.185 -11.045  38.334  0.00  0.00    +0.238 C 
ATOM     16  C   UNL     1      -7.061  -8.951  39.162  0.00  0.00    +0.249 C 
ATOM     17  C   UNL     1      -8.342  -8.229  39.384  0.00  0.00    +0.059 A 
ATOM     18  C   UNL     1      -9.583  -8.874  39.530  0.00  0.00    +0.046 A 
ATOM     20  C   UNL     1      -8.237  -6.854  39.660  0.00  0.00    +0.023 A 
ATOM     21  C   UNL     1     -10.677  -8.138  40.014  0.00  0.00    +0.024 A 
ATOM     22  C   UNL     1      -9.347  -6.129  40.091  0.00  0.00    -0.014 A 
ATOM     23  C   UNL     1     -10.563  -6.773  40.282  0.00  0.00    +0.010 A 
ATOM     35  H   UNL     1     -10.652 -10.644  39.696  0.00  0.00    +0.155 HD
ENDROOT
BRANCH  22  24
ATOM      1 CL   UNL     1     -10.057  -1.292  38.464  0.00  0.00    -0.084 Cl
ATOM     24  C   UNL     1      -9.225  -4.714  40.366  0.00  0.00    +0.025 A 
ATOM     26  C   UNL     1      -8.696  -4.261  41.576  0.00  0.00    +0.128 A 
ATOM     27  C   UNL     1      -9.646  -3.794  39.404  0.00  0.00    +0.032 A 
ATOM     28  C   UNL     1      -8.588  -2.892  41.823  0.00  0.00    +0.047 A 
ATOM     30  C   UNL     1      -9.537  -2.425  39.651  0.00  0.00    +0.042 A 
ATOM     31  C   UNL     1      -9.008  -1.975  40.860  0.00  0.00    +0.023 A 
BRANCH  26   5
ATOM      5  O   UNL     1      -8.278  -5.136  42.535  0.00  0.00    -0.495 OA
ATOM     33  C   UNL     1      -6.877  -5.185  42.797  0.00  0.00    +0.277 C 
ENDBRANCH  26   5
ENDBRANCH  22  24
BRANCH  11   7
ATOM      4  O   UNL     1      -7.499 -14.855  35.425  0.00  0.00    -0.253 OA
ATOM      7  N   UNL     1      -6.433 -12.817  35.096  0.00  0.00    -0.296 N 
ATOM      9  N   UNL     1      -6.334 -14.435  33.463  0.00  0.00    -0.296 N 
ATOM     19  C   UNL     1      -6.818 -14.105  34.726  0.00  0.00    +0.300 C 
ATOM     34  H   UNL     1      -5.933 -12.252  34.416  0.00  0.00    +0.151 HD
ATOM     36  H   UNL     1      -5.795 -13.743  32.951  0.00  0.00    +0.151 HD
BRANCH   9  25
ATOM     25  C   UNL     1      -6.585 -15.712  32.837  0.00  0.00    +0.132 C 
BRANCH  25  29
ATOM     29  C   UNL     1      -5.307 -16.483  32.773  0.00  0.00    -0.016 C 
ATOM     32  C   UNL     1      -4.095 -15.922  32.840  0.00  0.00    +0.005 C 
ENDBRANCH  25  29
ENDBRANCH   9  25
ENDBRANCH  11   7
TORSDOF 5
ENDMDL
MODEL 6
REMARK VINA RESULT:      -6.7     29.153     32.729
REMARK  Name = 11943112
REMARK  6 active torsions:
REMARK  status: ('A' for Active; 'I' for Inactive)
REMARK    1  A    between atoms: O_5  and  C_26
REMARK    2  A    between atoms: O_5  and  C_33
REMARK    3  A    between atoms: N_7  and  C_11
REMARK    4  A    between atoms: N_9  and  C_25
REMARK    5  A    between atoms: C_22  and  C_24
REMARK    6  A    between atoms: C_25  and  C_29
REMARK                            x       y       z     vdW  Elec       q    Type
REMARK                         _______ _______ _______ _____ _____    ______ ____
ROOT
ATOM      2  O   UNL     1      -6.498 -11.423  20.526  0.00  0.00    -0.273 OA
ATOM      3  O   UNL     1      -7.015 -13.936  15.987  0.00  0.00    -0.270 OA
ATOM      6  N   UNL     1      -7.738 -12.614  17.753  0.00  0.00    -0.286 N 
ATOM      8  N   UNL     1      -5.235 -11.298  18.624  0.00  0.00    -0.283 N 
ATOM     10  C   UNL     1      -7.683 -11.324  18.428  0.00  0.00    +0.164 C 
ATOM     11  C   UNL     1      -9.610 -12.104  19.934  0.00  0.00    +0.078 C 
ATOM     12  C   UNL     1      -8.962 -10.942  19.183  0.00  0.00    +0.054 C 
ATOM     13  C   UNL     1      -9.806 -13.277  18.980  0.00  0.00    +0.041 C 
ATOM     14  C   UNL     1      -8.473 -13.709  18.390  0.00  0.00    +0.111 C 
ATOM     15  C   UNL     1      -6.440 -11.377  19.298  0.00  0.00    +0.238 C 
ATOM     16  C   UNL     1      -6.933 -12.902  16.650  0.00  0.00    +0.249 C 
ATOM     17  C   UNL     1      -5.856 -11.944  16.285  0.00  0.00    +0.059 A 
ATOM     18  C   UNL     1      -5.023 -11.313  17.227  0.00  0.00    +0.046 A 
ATOM     20  C   UNL     1      -5.553 -11.847  14.915  0.00  0.00    +0.023 A 
ATOM     21  C   UNL     1      -3.866 -10.655  16.777  0.00  0.00    +0.024 A 
ATOM     22  C   UNL     1      -4.427 -11.147  14.484  0.00  0.00    -0.014 A 
ATOM     23  C   UNL     1      -3.577 -10.563  15.415  0.00  0.00    +0.010 A 
ATOM     35  H   UNL     1      -4.419 -11.107  19.201  0.00  0.00    +0.155 HD
ENDROOT
BRANCH  22  24
ATOM      1 CL   UNL     1      -4.890  -8.478  10.100  0.00  0.00    -0.084 Cl
ATOM     24  C   UNL     1      -4.130 -11.051  13.071  0.00  0.00    +0.025 A 
ATOM     26  C   UNL     1      -3.389 -12.041  12.425  0.00  0.00    +0.128 A 
ATOM     27  C   UNL     1      -4.594  -9.949  12.351  0.00  0.00    +0.032 A 
ATOM     28  C   UNL     1      -3.113 -11.931  11.062  0.00  0.00    +0.047 A 
ATOM     30  C   UNL     1      -4.318  -9.838  10.988  0.00  0.00    +0.042 A 
ATOM     31  C   UNL     1      -3.577 -10.829  10.344  0.00  0.00    +0.023 A 
BRANCH  26   5
ATOM      5  O   UNL     1      -2.922 -13.129  13.103  0.00  0.00    -0.495 OA
ATOM     33  C   UNL     1      -1.551 -13.104  13.495  0.00  0.00    +0.277 C 
ENDBRANCH  26   5
ENDBRANCH  22  24
BRANCH  11   7
ATOM      4  O   UNL     1     -11.494 -13.780  21.339  0.00  0.00    -0.253 OA
ATOM      7  N   UNL     1     -10.869 -11.701  20.515  0.00  0.00    -0.296 N 
ATOM      9  N   UNL     1     -12.863 -11.931  21.640  0.00  0.00    -0.296 N 
ATOM     19  C   UNL     1     -11.721 -12.581  21.179  0.00  0.00    +0.300 C 
ATOM     34  H   UNL     1     -11.114 -10.715  20.501  0.00  0.00    +0.151 HD
ATOM     36  H   UNL     1     -12.954 -10.932  21.476  0.00  0.00    +0.151 HD
BRANCH   9  25
ATOM     25  C   UNL     1     -13.913 -12.609  22.362  0.00  0.00    +0.132 C 
BRANCH  25  29
ATOM     29  C   UNL     1     -13.649 -12.494  23.827  0.00  0.00    -0.016 C 
ATOM     32  C   UNL     1     -14.607 -12.323  24.746  0.00  0.00    +0.005 C 
ENDBRANCH  25  29
ENDBRANCH   9  25
ENDBRANCH  11   7
TORSDOF 5
ENDMDL
MODEL 7
REMARK VINA RESULT:      -6.6     29.881     32.464
REMARK  Name = 11943112
REMARK  6 active torsions:
REMARK  status: ('A' for Active; 'I' for Inactive)
REMARK    1  A    between atoms: O_5  and  C_26
REMARK    2  A    between atoms: O_5  and  C_33
REMARK    3  A    between atoms: N_7  and  C_11
REMARK    4  A    between atoms: N_9  and  C_25
REMARK    5  A    between atoms: C_22  and  C_24
REMARK    6  A    between atoms: C_25  and  C_29
REMARK                            x       y       z     vdW  Elec       q    Type
REMARK                         _______ _______ _______ _____ _____    ______ ____
ROOT
ATOM      2  O   UNL     1      -6.756 -12.608   9.057  0.00  0.00    -0.273 OA
ATOM      3  O   UNL     1      -3.488 -10.438  12.493  0.00  0.00    -0.270 OA
ATOM      6  N   UNL     1      -5.067 -10.420  10.792  0.00  0.00    -0.286 N 
ATOM      8  N   UNL     1      -6.597 -12.897  11.319  0.00  0.00    -0.283 N 
ATOM     10  C   UNL     1      -6.455 -10.625  10.397  0.00  0.00    +0.164 C 
ATOM     11  C   UNL     1      -5.878  -9.639   8.097  0.00  0.00    +0.078 C 
ATOM     12  C   UNL     1      -6.917  -9.769   9.211  0.00  0.00    +0.054 C 
ATOM     13  C   UNL     1      -4.553  -9.174   8.693  0.00  0.00    +0.041 C 
ATOM     14  C   UNL     1      -4.073 -10.155   9.749  0.00  0.00    +0.111 C 
ATOM     15  C   UNL     1      -6.593 -12.120  10.175  0.00  0.00    +0.238 C 
ATOM     16  C   UNL     1      -4.623 -10.690  12.087  0.00  0.00    +0.249 C 
ATOM     17  C   UNL     1      -5.541 -11.393  13.023  0.00  0.00    +0.059 A 
ATOM     18  C   UNL     1      -6.350 -12.480  12.648  0.00  0.00    +0.046 A 
ATOM     20  C   UNL     1      -5.412 -11.058  14.382  0.00  0.00    +0.023 A 
ATOM     21  C   UNL     1      -6.961 -13.249  13.652  0.00  0.00    +0.024 A 
ATOM     22  C   UNL     1      -6.067 -11.804  15.362  0.00  0.00    -0.014 A 
ATOM     23  C   UNL     1      -6.830 -12.907  14.998  0.00  0.00    +0.010 A 
ATOM     35  H   UNL     1      -6.910 -13.857  11.201  0.00  0.00    +0.155 HD
ENDROOT
BRANCH  22  24
ATOM      1 CL   UNL     1      -3.332 -12.172  19.714  0.00  0.00    -0.084 Cl
ATOM     24  C   UNL     1      -5.930 -11.445  16.757  0.00  0.00    +0.025 A 
ATOM     26  C   UNL     1      -6.876 -10.633  17.385  0.00  0.00    +0.128 A 
ATOM     27  C   UNL     1      -4.834 -11.921  17.479  0.00  0.00    +0.032 A 
ATOM     28  C   UNL     1      -6.727 -10.297  18.731  0.00  0.00    +0.047 A 
ATOM     30  C   UNL     1      -4.685 -11.585  18.825  0.00  0.00    +0.042 A 
ATOM     31  C   UNL     1      -5.631 -10.773  19.450  0.00  0.00    +0.023 A 
BRANCH  26   5
ATOM      5  O   UNL     1      -7.956 -10.152  16.705  0.00  0.00    -0.495 OA
ATOM     33  C   UNL     1      -8.441  -8.867  17.089  0.00  0.00    +0.277 C 
ENDBRANCH  26   5
ENDBRANCH  22  24
BRANCH  11   7
ATOM      4  O   UNL     1      -6.721 -10.301   5.418  0.00  0.00    -0.253 OA
ATOM      7  N   UNL     1      -6.332  -8.724   7.078  0.00  0.00    -0.296 N 
ATOM      9  N   UNL     1      -7.114  -8.048   5.023  0.00  0.00    -0.296 N 
ATOM     19  C   UNL     1      -6.722  -9.132   5.804  0.00  0.00    +0.300 C 
ATOM     34  H   UNL     1      -6.440  -7.743   7.322  0.00  0.00    +0.151 HD
ATOM     36  H   UNL     1      -7.099  -7.119   5.435  0.00  0.00    +0.151 HD
BRANCH   9  25
ATOM     25  C   UNL     1      -7.565  -8.189   3.658  0.00  0.00    +0.132 C 
BRANCH  25  29
ATOM     29  C   UNL     1      -8.955  -7.655   3.547  0.00  0.00    -0.016 C 
ATOM     32  C   UNL     1      -9.323  -6.710   2.674  0.00  0.00    +0.005 C 
ENDBRANCH  25  29
ENDBRANCH   9  25
ENDBRANCH  11   7
TORSDOF 5
ENDMDL
MODEL 8
REMARK VINA RESULT:      -6.6     29.196     32.767
REMARK  Name = 11943112
REMARK  6 active torsions:
REMARK  status: ('A' for Active; 'I' for Inactive)
REMARK    1  A    between atoms: O_5  and  C_26
REMARK    2  A    between atoms: O_5  and  C_33
REMARK    3  A    between atoms: N_7  and  C_11
REMARK    4  A    between atoms: N_9  and  C_25
REMARK    5  A    between atoms: C_22  and  C_24
REMARK    6  A    between atoms: C_25  and  C_29
REMARK                            x       y       z     vdW  Elec       q    Type
REMARK                         _______ _______ _______ _____ _____    ______ ____
ROOT
ATOM      2  O   UNL     1      -5.520 -14.382  16.146  0.00  0.00    -0.273 OA
ATOM      3  O   UNL     1      -6.731 -11.720  20.464  0.00  0.00    -0.270 OA
ATOM      6  N   UNL     1      -6.109 -11.948  18.239  0.00  0.00    -0.286 N 
ATOM      8  N   UNL     1      -7.364 -14.521  17.490  0.00  0.00    -0.283 N 
ATOM     10  C   UNL     1      -6.501 -12.304  16.881  0.00  0.00    +0.164 C 
ATOM     11  C   UNL     1      -4.239 -11.406  16.063  0.00  0.00    +0.078 C 
ATOM     12  C   UNL     1      -5.732 -11.566  15.779  0.00  0.00    +0.054 C 
ATOM     13  C   UNL     1      -4.051 -10.785  17.444  0.00  0.00    +0.041 C 
ATOM     14  C   UNL     1      -4.700 -11.654  18.509  0.00  0.00    +0.111 C 
ATOM     15  C   UNL     1      -6.387 -13.816  16.813  0.00  0.00    +0.238 C 
ATOM     16  C   UNL     1      -6.980 -12.100  19.319  0.00  0.00    +0.249 C 
ATOM     17  C   UNL     1      -8.259 -12.829  19.107  0.00  0.00    +0.059 A 
ATOM     18  C   UNL     1      -8.366 -14.007  18.346  0.00  0.00    +0.046 A 
ATOM     20  C   UNL     1      -9.349 -12.404  19.887  0.00  0.00    +0.023 A 
ATOM     21  C   UNL     1      -9.542 -14.769  18.436  0.00  0.00    +0.024 A 
ATOM     22  C   UNL     1     -10.527 -13.148  19.925  0.00  0.00    -0.014 A 
ATOM     23  C   UNL     1     -10.619 -14.337  19.211  0.00  0.00    +0.010 A 
ATOM     35  H   UNL     1      -7.429 -15.512  17.269  0.00  0.00    +0.155 HD
ENDROOT
BRANCH  22  24
ATOM      1 CL   UNL     1     -14.327  -9.731  20.585  0.00  0.00    -0.084 Cl
ATOM     24  C   UNL     1     -11.643 -12.697  20.728  0.00  0.00    +0.025 A 
ATOM     26  C   UNL     1     -12.007 -13.372  21.894  0.00  0.00    +0.128 A 
ATOM     27  C   UNL     1     -12.362 -11.570  20.324  0.00  0.00    +0.032 A 
ATOM     28  C   UNL     1     -13.087 -12.922  22.655  0.00  0.00    +0.047 A 
ATOM     30  C   UNL     1     -13.441 -11.120  21.084  0.00  0.00    +0.042 A 
ATOM     31  C   UNL     1     -13.803 -11.796  22.250  0.00  0.00    +0.023 A 
BRANCH  26   5
ATOM      5  O   UNL     1     -11.325 -14.476  22.313  0.00  0.00    -0.495 OA
ATOM     33  C   UNL     1     -11.362 -14.767  23.709  0.00  0.00    +0.277 C 
ENDBRANCH  26   5
ENDBRANCH  22  24
BRANCH  11   7
ATOM      4  O   UNL     1      -2.994 -12.332  13.630  0.00  0.00    -0.253 OA
ATOM      7  N   UNL     1      -3.608 -10.597  15.048  0.00  0.00    -0.296 N 
ATOM      9  N   UNL     1      -2.493 -10.132  13.090  0.00  0.00    -0.296 N 
ATOM     19  C   UNL     1      -3.029 -11.131  13.898  0.00  0.00    +0.300 C 
ATOM     34  H   UNL     1      -3.649  -9.587  15.139  0.00  0.00    +0.151 HD
ATOM     36  H   UNL     1      -2.586  -9.164  13.385  0.00  0.00    +0.151 HD
BRANCH   9  25
ATOM     25  C   UNL     1      -1.832 -10.409  11.836  0.00  0.00    +0.132 C 
BRANCH  25  29
ATOM     29  C   UNL     1      -2.401  -9.520  10.779  0.00  0.00    -0.016 C 
ATOM     32  C   UNL     1      -3.624  -9.670  10.258  0.00  0.00    +0.005 C 
ENDBRANCH  25  29
ENDBRANCH   9  25
ENDBRANCH  11   7
TORSDOF 5
ENDMDL
MODEL 9
REMARK VINA RESULT:      -6.6     14.616     19.256
REMARK  Name = 11943112
REMARK  6 active torsions:
REMARK  status: ('A' for Active; 'I' for Inactive)
REMARK    1  A    between atoms: O_5  and  C_26
REMARK    2  A    between atoms: O_5  and  C_33
REMARK    3  A    between atoms: N_7  and  C_11
REMARK    4  A    between atoms: N_9  and  C_25
REMARK    5  A    between atoms: C_22  and  C_24
REMARK    6  A    between atoms: C_25  and  C_29
REMARK                            x       y       z     vdW  Elec       q    Type
REMARK                         _______ _______ _______ _____ _____    ______ ____
ROOT
ATOM      2  O   UNL     1      10.208   7.223   7.950  0.00  0.00    -0.273 OA
ATOM      3  O   UNL     1      10.219   8.618   2.925  0.00  0.00    -0.270 OA
ATOM      6  N   UNL     1      11.020   8.598   5.104  0.00  0.00    -0.286 N 
ATOM      8  N   UNL     1      10.179   5.930   6.065  0.00  0.00    -0.283 N 
ATOM     10  C   UNL     1      11.697   7.858   6.160  0.00  0.00    +0.164 C 
ATOM     11  C   UNL     1      11.782  10.026   7.534  0.00  0.00    +0.078 C 
ATOM     12  C   UNL     1      12.489   8.727   7.145  0.00  0.00    +0.054 C 
ATOM     13  C   UNL     1      11.369  10.775   6.272  0.00  0.00    +0.041 C 
ATOM     14  C   UNL     1      10.453   9.912   5.419  0.00  0.00    +0.111 C 
ATOM     15  C   UNL     1      10.619   7.008   6.809  0.00  0.00    +0.238 C 
ATOM     16  C   UNL     1      10.698   8.007   3.881  0.00  0.00    +0.249 C 
ATOM     17  C   UNL     1      10.868   6.537   3.734  0.00  0.00    +0.059 A 
ATOM     18  C   UNL     1      10.509   5.609   4.728  0.00  0.00    +0.046 A 
ATOM     20  C   UNL     1      11.216   6.081   2.450  0.00  0.00    +0.023 A 
ATOM     21  C   UNL     1      10.443   4.247   4.392  0.00  0.00    +0.024 A 
ATOM     22  C   UNL     1      11.193   4.720   2.150  0.00  0.00    -0.014 A 
ATOM     23  C   UNL     1      10.793   3.804   3.116  0.00  0.00    +0.010 A 
ATOM     35  H   UNL     1       9.633   5.236   6.571  0.00  0.00    +0.155 HD
ENDROOT
BRANCH  22  24
ATOM      1 CL   UNL     1      10.008   4.467  -2.859  0.00  0.00    -0.084 Cl
ATOM     24  C   UNL     1      11.558   4.263   0.826  0.00  0.00    +0.025 A 
ATOM     26  C   UNL     1      12.737   3.548   0.614  0.00  0.00    +0.128 A 
ATOM     27  C   UNL     1      10.714   4.547  -0.249  0.00  0.00    +0.032 A 
ATOM     28  C   UNL     1      13.073   3.117  -0.670  0.00  0.00    +0.047 A 
ATOM     30  C   UNL     1      11.049   4.116  -1.533  0.00  0.00    +0.042 A 
ATOM     31  C   UNL     1      12.228   3.401  -1.743  0.00  0.00    +0.023 A 
BRANCH  26   5
ATOM      5  O   UNL     1      13.582   3.257   1.645  0.00  0.00    -0.495 OA
ATOM     33  C   UNL     1      14.933   3.696   1.516  0.00  0.00    +0.277 C 
ENDBRANCH  26   5
ENDBRANCH  22  24
BRANCH  11   7
ATOM      4  O   UNL     1      11.059  11.374   9.980  0.00  0.00    -0.253 OA
ATOM      7  N   UNL     1      12.637  10.845   8.360  0.00  0.00    -0.296 N 
ATOM      9  N   UNL     1      13.226  12.190  10.131  0.00  0.00    -0.296 N 
ATOM     19  C   UNL     1      12.202  11.462   9.531  0.00  0.00    +0.300 C 
ATOM     34  H   UNL     1      13.620  10.920   8.115  0.00  0.00    +0.151 HD
ATOM     36  H   UNL     1      14.145  12.189   9.696  0.00  0.00    +0.151 HD
BRANCH   9  25
ATOM     25  C   UNL     1      13.047  12.929  11.359  0.00  0.00    +0.132 C 
BRANCH  25  29
ATOM     29  C   UNL     1      14.318  12.887  12.142  0.00  0.00    -0.016 C 
ATOM     32  C   UNL     1      14.429  12.331  13.354  0.00  0.00    +0.005 C 
ENDBRANCH  25  29
ENDBRANCH   9  25
ENDBRANCH  11   7
TORSDOF 5
ENDMDL
MODEL 10
REMARK VINA RESULT:      -6.6     28.605     31.274
REMARK  Name = 11943112
REMARK  6 active torsions:
REMARK  status: ('A' for Active; 'I' for Inactive)
REMARK    1  A    between atoms: O_5  and  C_26
REMARK    2  A    between atoms: O_5  and  C_33
REMARK    3  A    between atoms: N_7  and  C_11
REMARK    4  A    between atoms: N_9  and  C_25
REMARK    5  A    between atoms: C_22  and  C_24
REMARK    6  A    between atoms: C_25  and  C_29
REMARK                            x       y       z     vdW  Elec       q    Type
REMARK                         _______ _______ _______ _____ _____    ______ ____
ROOT
ATOM      2  O   UNL     1      -1.853 -10.565  14.674  0.00  0.00    -0.273 OA
ATOM      3  O   UNL     1      -4.425 -13.491  11.208  0.00  0.00    -0.270 OA
ATOM      6  N   UNL     1      -4.144 -12.383  13.228  0.00  0.00    -0.286 N 
ATOM      8  N   UNL     1      -2.355 -10.148  12.482  0.00  0.00    -0.283 N 
ATOM     10  C   UNL     1      -4.084 -11.112  13.937  0.00  0.00    +0.164 C 
ATOM     11  C   UNL     1      -4.065 -12.420  16.147  0.00  0.00    +0.078 C 
ATOM     12  C   UNL     1      -4.538 -11.172  15.401  0.00  0.00    +0.054 C 
ATOM     13  C   UNL     1      -4.447 -13.661  15.349  0.00  0.00    +0.041 C 
ATOM     14  C   UNL     1      -3.828 -13.612  13.961  0.00  0.00    +0.111 C 
ATOM     15  C   UNL     1      -2.662 -10.613  13.748  0.00  0.00    +0.238 C 
ATOM     16  C   UNL     1      -4.268 -12.446  11.839  0.00  0.00    +0.249 C 
ATOM     17  C   UNL     1      -4.130 -11.190  11.054  0.00  0.00    +0.059 A 
ATOM     18  C   UNL     1      -3.158 -10.210  11.320  0.00  0.00    +0.046 A 
ATOM     20  C   UNL     1      -4.892 -11.113   9.875  0.00  0.00    +0.023 A 
ATOM     21  C   UNL     1      -2.925  -9.209  10.363  0.00  0.00    +0.024 A 
ATOM     22  C   UNL     1      -4.680 -10.082   8.960  0.00  0.00    -0.014 A 
ATOM     23  C   UNL     1      -3.688  -9.139   9.197  0.00  0.00    +0.010 A 
ATOM     35  H   UNL     1      -1.494  -9.612  12.405  0.00  0.00    +0.155 HD
ENDROOT
BRANCH  22  24
ATOM      1 CL   UNL     1      -5.480 -11.771   4.158  0.00  0.00    -0.084 Cl
ATOM     24  C   UNL     1      -5.475 -10.011   7.753  0.00  0.00    +0.025 A 
ATOM     26  C   UNL     1      -6.565  -9.145   7.662  0.00  0.00    +0.128 A 
ATOM     27  C   UNL     1      -5.139 -10.823   6.668  0.00  0.00    +0.032 A 
ATOM     28  C   UNL     1      -7.320  -9.091   6.489  0.00  0.00    +0.047 A 
ATOM     30  C   UNL     1      -5.894 -10.769   5.495  0.00  0.00    +0.042 A 
ATOM     31  C   UNL     1      -6.983  -9.903   5.406  0.00  0.00    +0.023 A 
BRANCH  26   5
ATOM      5  O   UNL     1      -6.917  -8.341   8.705  0.00  0.00    -0.495 OA
ATOM     33  C   UNL     1      -8.105  -8.687   9.415  0.00  0.00    +0.277 C 
ENDBRANCH  26   5
ENDBRANCH  22  24
BRANCH  11   7
ATOM      4  O   UNL     1      -6.863 -12.574  16.837  0.00  0.00    -0.253 OA
ATOM      7  N   UNL     1      -4.631 -12.468  17.474  0.00  0.00    -0.296 N 
ATOM      9  N   UNL     1      -6.273 -12.576  19.082  0.00  0.00    -0.296 N 
ATOM     19  C   UNL     1      -6.001 -12.542  17.716  0.00  0.00    +0.300 C 
ATOM     34  H   UNL     1      -4.000 -12.521  18.267  0.00  0.00    +0.151 HD
ATOM     36  H   UNL     1      -5.494 -12.564  19.734  0.00  0.00    +0.151 HD
BRANCH   9  25
ATOM     25  C   UNL     1      -7.614 -12.652  19.612  0.00  0.00    +0.132 C 
BRANCH  25  29
ATOM     29  C   UNL     1      -8.225 -11.290  19.587  0.00  0.00    -0.016 C 
ATOM     32  C   UNL     1      -9.406 -11.013  19.023  0.00  0.00    +0.005 C 
ENDBRANCH  25  29
ENDBRANCH   9  25
ENDBRANCH  11   7
TORSDOF 5
ENDMDL
