MODEL 1
REMARK VINA RESULT:      -6.4      0.000      0.000
REMARK  Name = 26742268
REMARK  9 active torsions:
REMARK  status: ('A' for Active; 'I' for Inactive)
REMARK    1  A    between atoms: O_1  and  C_12
REMARK    2  A    between atoms: O_5  and  C_25
REMARK    3  A    between atoms: O_5  and  C_29
REMARK    4  A    between atoms: N_7  and  C_11
REMARK    5  A    between atoms: N_8  and  C_22
REMARK    6  A    between atoms: N_9  and  C_26
REMARK    7  A    between atoms: C_18  and  C_21
REMARK    8  A    between atoms: C_22  and  C_25
REMARK    9  A    between atoms: C_34  and  C_37
REMARK                            x       y       z     vdW  Elec       q    Type
REMARK                         _______ _______ _______ _____ _____    ______ ____
ROOT
ATOM      2  O   UNL     1     -10.773  -9.543  14.985  0.00  0.00    -0.252 OA
ATOM      6  N   UNL     1     -10.529 -11.179  16.600  0.00  0.00    -0.284 N 
ATOM      9  N   UNL     1      -9.096 -11.130  14.721  0.00  0.00    -0.269 N 
ATOM     11  C   UNL     1      -8.649 -11.911  18.109  0.00  0.00    +0.119 C 
ATOM     12  C   UNL     1      -8.825 -10.632  18.947  0.00  0.00    +0.136 C 
ATOM     13  C   UNL     1     -10.228 -10.393  19.513  0.00  0.00    +0.035 C 
ATOM     14  C   UNL     1      -9.832 -12.314  17.221  0.00  0.00    +0.134 C 
ATOM     15  C   UNL     1     -11.178  -9.727  18.514  0.00  0.00    +0.022 C 
ATOM     16  C   UNL     1     -11.641 -10.636  17.382  0.00  0.00    +0.109 C 
ATOM     17  C   UNL     1     -10.169 -10.541  15.389  0.00  0.00    +0.307 C 
ATOM     40  H   UNL     1      -8.922 -12.116  14.881  0.00  0.00    +0.156 HD
ENDROOT
BRANCH   9  26
ATOM     26  C   UNL     1      -8.141 -10.501  13.883  0.00  0.00    +0.036 A 
ATOM     32  C   UNL     1      -8.493 -10.119  12.588  0.00  0.00    +0.042 A 
ATOM     33  C   UNL     1      -6.849 -10.266  14.352  0.00  0.00    +0.023 A 
ATOM     34  C   UNL     1      -7.553  -9.501  11.763  0.00  0.00    +0.054 A 
ATOM     35  C   UNL     1      -5.909  -9.648  13.528  0.00  0.00    +0.003 A 
ATOM     36  C   UNL     1      -6.261  -9.266  12.234  0.00  0.00    +0.019 A 
BRANCH  34  37
ATOM     10  N   UNL     1      -8.205  -8.792   9.361  0.00  0.00    -0.191 NA
ATOM     37  C   UNL     1      -7.913  -9.110  10.438  0.00  0.00    +0.099 C 
ENDBRANCH  34  37
ENDBRANCH   9  26
BRANCH  11   7
ATOM      4  O   UNL     1      -6.000 -12.656  18.926  0.00  0.00    -0.270 OA
ATOM      7  N   UNL     1      -7.436 -11.797  17.322  0.00  0.00    -0.305 N 
ATOM     18  C   UNL     1      -6.203 -12.186  17.810  0.00  0.00    +0.244 C 
ATOM     38  H   UNL     1      -7.538 -11.523  16.351  0.00  0.00    +0.149 HD
BRANCH  18  21
ATOM     21  C   UNL     1      -5.055 -11.979  16.890  0.00  0.00    +0.037 A 
ATOM     27  C   UNL     1      -4.829 -12.875  15.844  0.00  0.00    +0.016 A 
ATOM     28  C   UNL     1      -4.202 -10.890  17.072  0.00  0.00    +0.016 A 
ATOM     29  C   UNL     1      -2.899 -11.591  15.162  0.00  0.00    +0.121 A 
ATOM     30  C   UNL     1      -3.751 -12.680  14.979  0.00  0.00    +0.046 A 
ATOM     31  C   UNL     1      -3.125 -10.695  16.207  0.00  0.00    +0.046 A 
BRANCH  29   5
ATOM      5  O   UNL     1      -1.846 -11.402  14.320  0.00  0.00    -0.491 OA
BRANCH   5  25
ATOM     25  C   UNL     1      -2.057 -11.698  12.940  0.00  0.00    +0.244 C 
BRANCH  25  22
ATOM     22  C   UNL     1      -1.971 -10.406  12.143  0.00  0.00    +0.125 C 
BRANCH  22   8
ATOM      3  O   UNL     1      -4.324 -10.388   8.669  0.00  0.00    -0.377 OA
ATOM      8  N   UNL     1      -3.114 -10.279  11.242  0.00  0.00    -0.295 NA
ATOM     19  C   UNL     1      -3.406 -11.561  10.584  0.00  0.00    +0.112 C 
ATOM     20  C   UNL     1      -2.871  -9.238  10.233  0.00  0.00    +0.112 C 
ATOM     23  C   UNL     1      -4.594 -11.399   9.640  0.00  0.00    +0.175 C 
ATOM     24  C   UNL     1      -4.072  -9.132   9.299  0.00  0.00    +0.175 C 
ENDBRANCH  22   8
ENDBRANCH  25  22
ENDBRANCH   5  25
ENDBRANCH  29   5
ENDBRANCH  18  21
ENDBRANCH  11   7
BRANCH  12   1
ATOM      1  O   UNL     1      -7.930 -10.716  20.065  0.00  0.00    -0.390 OA
ATOM     39  H   UNL     1      -7.507 -11.590  20.039  0.00  0.00    +0.210 HD
ENDBRANCH  12   1
TORSDOF 9
ENDMDL
MODEL 2
REMARK VINA RESULT:      -6.3      2.189      8.788
REMARK  Name = 26742268
REMARK  9 active torsions:
REMARK  status: ('A' for Active; 'I' for Inactive)
REMARK    1  A    between atoms: O_1  and  C_12
REMARK    2  A    between atoms: O_5  and  C_25
REMARK    3  A    between atoms: O_5  and  C_29
REMARK    4  A    between atoms: N_7  and  C_11
REMARK    5  A    between atoms: N_8  and  C_22
REMARK    6  A    between atoms: N_9  and  C_26
REMARK    7  A    between atoms: C_18  and  C_21
REMARK    8  A    between atoms: C_22  and  C_25
REMARK    9  A    between atoms: C_34  and  C_37
REMARK                            x       y       z     vdW  Elec       q    Type
REMARK                         _______ _______ _______ _____ _____    ______ ____
ROOT
ATOM      2  O   UNL     1      -2.130 -10.551  13.904  0.00  0.00    -0.252 OA
ATOM      6  N   UNL     1      -3.345 -11.112  12.019  0.00  0.00    -0.284 N 
ATOM      9  N   UNL     1      -4.224 -11.520  14.175  0.00  0.00    -0.269 N 
ATOM     11  C   UNL     1      -5.619 -10.490  11.129  0.00  0.00    +0.119 C 
ATOM     12  C   UNL     1      -5.099  -9.081  10.789  0.00  0.00    +0.136 C 
ATOM     13  C   UNL     1      -3.866  -9.027   9.881  0.00  0.00    +0.035 C 
ATOM     14  C   UNL     1      -4.558 -11.579  11.333  0.00  0.00    +0.134 C 
ATOM     15  C   UNL     1      -2.548  -9.201  10.640  0.00  0.00    +0.022 C 
ATOM     16  C   UNL     1      -2.288 -10.618  11.136  0.00  0.00    +0.109 C 
ATOM     17  C   UNL     1      -3.160 -11.029  13.420  0.00  0.00    +0.307 C 
ATOM     40  H   UNL     1      -4.819 -12.224  13.753  0.00  0.00    +0.156 HD
ENDROOT
BRANCH   9  26
ATOM     26  C   UNL     1      -4.645 -11.101  15.462  0.00  0.00    +0.036 A 
ATOM     32  C   UNL     1      -4.090 -11.683  16.602  0.00  0.00    +0.042 A 
ATOM     33  C   UNL     1      -5.616 -10.108  15.590  0.00  0.00    +0.023 A 
ATOM     34  C   UNL     1      -4.505 -11.272  17.869  0.00  0.00    +0.054 A 
ATOM     35  C   UNL     1      -6.031  -9.695  16.856  0.00  0.00    +0.003 A 
ATOM     36  C   UNL     1      -5.476 -10.278  17.995  0.00  0.00    +0.019 A 
BRANCH  34  37
ATOM     10  N   UNL     1      -3.475 -12.353  19.984  0.00  0.00    -0.191 NA
ATOM     37  C   UNL     1      -3.936 -11.868  19.036  0.00  0.00    +0.099 C 
ENDBRANCH  34  37
ENDBRANCH   9  26
BRANCH  11   7
ATOM      4  O   UNL     1      -8.239 -11.632  11.382  0.00  0.00    -0.270 OA
ATOM      7  N   UNL     1      -6.492 -10.405  12.283  0.00  0.00    -0.305 N 
ATOM     18  C   UNL     1      -7.742 -10.993  12.305  0.00  0.00    +0.244 C 
ATOM     38  H   UNL     1      -6.107  -9.991  13.125  0.00  0.00    +0.149 HD
BRANCH  18  21
ATOM     21  C   UNL     1      -8.524 -10.791  13.552  0.00  0.00    +0.037 A 
ATOM     27  C   UNL     1      -8.689 -11.847  14.450  0.00  0.00    +0.016 A 
ATOM     28  C   UNL     1      -9.094  -9.547  13.825  0.00  0.00    +0.016 A 
ATOM     29  C   UNL     1      -9.992 -10.414  15.894  0.00  0.00    +0.121 A 
ATOM     30  C   UNL     1      -9.423 -11.657  15.622  0.00  0.00    +0.046 A 
ATOM     31  C   UNL     1      -9.827  -9.358  14.997  0.00  0.00    +0.046 A 
BRANCH  29   5
ATOM      5  O   UNL     1     -10.710 -10.229  17.036  0.00  0.00    -0.491 OA
BRANCH   5  25
ATOM     25  C   UNL     1      -9.999  -9.761  18.182  0.00  0.00    +0.244 C 
BRANCH  25  22
ATOM     22  C   UNL     1     -10.714 -10.245  19.433  0.00  0.00    +0.125 C 
BRANCH  22   8
ATOM      3  O   UNL     1      -8.796 -13.928  20.042  0.00  0.00    -0.377 OA
ATOM      8  N   UNL     1      -9.973 -11.337  20.061  0.00  0.00    -0.295 NA
ATOM     19  C   UNL     1      -8.725 -11.609  19.332  0.00  0.00    +0.112 C 
ATOM     20  C   UNL     1     -10.793 -12.554  20.128  0.00  0.00    +0.112 C 
ATOM     23  C   UNL     1      -7.977 -12.759  19.998  0.00  0.00    +0.175 C 
ATOM     24  C   UNL     1      -9.995 -13.681  20.776  0.00  0.00    +0.175 C 
ENDBRANCH  22   8
ENDBRANCH  25  22
ENDBRANCH   5  25
ENDBRANCH  29   5
ENDBRANCH  18  21
ENDBRANCH  11   7
BRANCH  12   1
ATOM      1  O   UNL     1      -6.150  -8.379  10.111  0.00  0.00    -0.390 OA
ATOM     39  H   UNL     1      -5.785  -7.535   9.796  0.00  0.00    +0.210 HD
ENDBRANCH  12   1
TORSDOF 9
ENDMDL
MODEL 3
REMARK VINA RESULT:      -6.3      2.664      5.638
REMARK  Name = 26742268
REMARK  9 active torsions:
REMARK  status: ('A' for Active; 'I' for Inactive)
REMARK    1  A    between atoms: O_1  and  C_12
REMARK    2  A    between atoms: O_5  and  C_25
REMARK    3  A    between atoms: O_5  and  C_29
REMARK    4  A    between atoms: N_7  and  C_11
REMARK    5  A    between atoms: N_8  and  C_22
REMARK    6  A    between atoms: N_9  and  C_26
REMARK    7  A    between atoms: C_18  and  C_21
REMARK    8  A    between atoms: C_22  and  C_25
REMARK    9  A    between atoms: C_34  and  C_37
REMARK                            x       y       z     vdW  Elec       q    Type
REMARK                         _______ _______ _______ _____ _____    ______ ____
ROOT
ATOM      2  O   UNL     1     -10.202 -13.007  20.757  0.00  0.00    -0.252 OA
ATOM      6  N   UNL     1     -11.441 -11.155  20.140  0.00  0.00    -0.284 N 
ATOM      9  N   UNL     1      -9.157 -11.316  19.554  0.00  0.00    -0.269 N 
ATOM     11  C   UNL     1     -12.003 -10.053  17.945  0.00  0.00    +0.119 C 
ATOM     12  C   UNL     1     -12.946 -11.220  17.601  0.00  0.00    +0.136 C 
ATOM     13  C   UNL     1     -14.044 -11.515  18.628  0.00  0.00    +0.035 C 
ATOM     14  C   UNL     1     -11.633  -9.886  19.424  0.00  0.00    +0.134 C 
ATOM     15  C   UNL     1     -13.569 -12.395  19.787  0.00  0.00    +0.022 C 
ATOM     16  C   UNL     1     -12.645 -11.693  20.774  0.00  0.00    +0.109 C 
ATOM     17  C   UNL     1     -10.246 -11.911  20.191  0.00  0.00    +0.307 C 
ATOM     40  H   UNL     1      -9.150 -10.305  19.471  0.00  0.00    +0.156 HD
ENDROOT
BRANCH   9  26
ATOM     26  C   UNL     1      -8.063 -11.956  18.919  0.00  0.00    +0.036 A 
ATOM     32  C   UNL     1      -6.772 -11.795  19.424  0.00  0.00    +0.042 A 
ATOM     33  C   UNL     1      -8.276 -12.745  17.790  0.00  0.00    +0.023 A 
ATOM     34  C   UNL     1      -5.695 -12.424  18.799  0.00  0.00    +0.054 A 
ATOM     35  C   UNL     1      -7.199 -13.375  17.165  0.00  0.00    +0.003 A 
ATOM     36  C   UNL     1      -5.909 -13.214  17.670  0.00  0.00    +0.019 A 
BRANCH  34  37
ATOM     10  N   UNL     1      -3.300 -12.126  19.736  0.00  0.00    -0.191 NA
ATOM     37  C   UNL     1      -4.373 -12.260  19.317  0.00  0.00    +0.099 C 
ENDBRANCH  34  37
ENDBRANCH   9  26
BRANCH  11   7
ATOM      4  O   UNL     1     -10.132  -7.952  17.378  0.00  0.00    -0.270 OA
ATOM      7  N   UNL     1     -10.810 -10.154  17.128  0.00  0.00    -0.305 N 
ATOM     18  C   UNL     1      -9.969  -9.077  16.916  0.00  0.00    +0.244 C 
ATOM     38  H   UNL     1     -10.547 -11.079  16.805  0.00  0.00    +0.149 HD
BRANCH  18  21
ATOM     21  C   UNL     1      -8.803  -9.338  16.033  0.00  0.00    +0.037 A 
ATOM     27  C   UNL     1      -8.995  -9.541  14.666  0.00  0.00    +0.016 A 
ATOM     28  C   UNL     1      -7.516  -9.380  16.571  0.00  0.00    +0.016 A 
ATOM     29  C   UNL     1      -6.614  -9.827  14.375  0.00  0.00    +0.121 A 
ATOM     30  C   UNL     1      -7.900  -9.785  13.836  0.00  0.00    +0.046 A 
ATOM     31  C   UNL     1      -6.422  -9.624  15.742  0.00  0.00    +0.046 A 
BRANCH  29   5
ATOM      5  O   UNL     1      -5.545 -10.067  13.566  0.00  0.00    -0.491 OA
BRANCH   5  25
ATOM     25  C   UNL     1      -5.461 -11.359  12.967  0.00  0.00    +0.244 C 
BRANCH  25  22
ATOM     22  C   UNL     1      -4.112 -11.971  13.311  0.00  0.00    +0.125 C 
BRANCH  22   8
ATOM      3  O   UNL     1      -1.134 -10.504  15.877  0.00  0.00    -0.377 OA
ATOM      8  N   UNL     1      -3.363 -11.096  14.209  0.00  0.00    -0.295 NA
ATOM     19  C   UNL     1      -2.044 -10.773  13.644  0.00  0.00    +0.112 C 
ATOM     20  C   UNL     1      -3.205 -11.718  15.532  0.00  0.00    +0.112 C 
ATOM     23  C   UNL     1      -1.277  -9.870  14.606  0.00  0.00    +0.175 C 
ATOM     24  C   UNL     1      -2.410 -10.792  16.448  0.00  0.00    +0.175 C 
ENDBRANCH  22   8
ENDBRANCH  25  22
ENDBRANCH   5  25
ENDBRANCH  29   5
ENDBRANCH  18  21
ENDBRANCH  11   7
BRANCH  12   1
ATOM      1  O   UNL     1     -13.601 -10.904  16.365  0.00  0.00    -0.390 OA
ATOM     39  H   UNL     1     -14.437 -11.400  16.339  0.00  0.00    +0.210 HD
ENDBRANCH  12   1
TORSDOF 9
ENDMDL
MODEL 4
REMARK VINA RESULT:      -6.2      2.358      3.926
REMARK  Name = 26742268
REMARK  9 active torsions:
REMARK  status: ('A' for Active; 'I' for Inactive)
REMARK    1  A    between atoms: O_1  and  C_12
REMARK    2  A    between atoms: O_5  and  C_25
REMARK    3  A    between atoms: O_5  and  C_29
REMARK    4  A    between atoms: N_7  and  C_11
REMARK    5  A    between atoms: N_8  and  C_22
REMARK    6  A    between atoms: N_9  and  C_26
REMARK    7  A    between atoms: C_18  and  C_21
REMARK    8  A    between atoms: C_22  and  C_25
REMARK    9  A    between atoms: C_34  and  C_37
REMARK                            x       y       z     vdW  Elec       q    Type
REMARK                         _______ _______ _______ _____ _____    ______ ____
ROOT
ATOM      2  O   UNL     1      -8.457 -14.786  17.384  0.00  0.00    -0.252 OA
ATOM      6  N   UNL     1      -7.921 -13.070  18.837  0.00  0.00    -0.284 N 
ATOM      9  N   UNL     1      -6.343 -13.831  17.250  0.00  0.00    -0.269 N 
ATOM     11  C   UNL     1      -7.166 -10.683  18.554  0.00  0.00    +0.119 C 
ATOM     12  C   UNL     1      -8.577 -10.294  18.076  0.00  0.00    +0.136 C 
ATOM     13  C   UNL     1      -9.723 -10.639  19.031  0.00  0.00    +0.035 C 
ATOM     14  C   UNL     1      -7.047 -11.998  19.333  0.00  0.00    +0.134 C 
ATOM     15  C   UNL     1     -10.206 -12.086  18.900  0.00  0.00    +0.022 C 
ATOM     16  C   UNL     1      -9.244 -13.126  19.461  0.00  0.00    +0.109 C 
ATOM     17  C   UNL     1      -7.626 -13.966  17.782  0.00  0.00    +0.307 C 
ATOM     40  H   UNL     1      -5.620 -13.448  17.848  0.00  0.00    +0.156 HD
ENDROOT
BRANCH   9  26
ATOM     26  C   UNL     1      -5.919 -14.092  15.923  0.00  0.00    +0.036 A 
ATOM     32  C   UNL     1      -4.557 -14.149  15.624  0.00  0.00    +0.042 A 
ATOM     33  C   UNL     1      -6.862 -14.292  14.915  0.00  0.00    +0.023 A 
ATOM     34  C   UNL     1      -4.139 -14.405  14.318  0.00  0.00    +0.054 A 
ATOM     35  C   UNL     1      -6.445 -14.549  13.610  0.00  0.00    +0.003 A 
ATOM     36  C   UNL     1      -5.084 -14.606  13.311  0.00  0.00    +0.019 A 
BRANCH  34  37
ATOM     10  N   UNL     1      -1.613 -14.512  13.763  0.00  0.00    -0.191 NA
ATOM     37  C   UNL     1      -2.745 -14.464  14.012  0.00  0.00    +0.099 C 
ENDBRANCH  34  37
ENDBRANCH   9  26
BRANCH  11   7
ATOM      4  O   UNL     1      -4.304 -10.876  18.637  0.00  0.00    -0.270 OA
ATOM      7  N   UNL     1      -6.265 -10.680  17.418  0.00  0.00    -0.305 N 
ATOM     18  C   UNL     1      -4.894 -10.778  17.565  0.00  0.00    +0.244 C 
ATOM     38  H   UNL     1      -6.684 -10.716  16.495  0.00  0.00    +0.149 HD
BRANCH  18  21
ATOM     21  C   UNL     1      -4.109 -10.733  16.304  0.00  0.00    +0.037 A 
ATOM     27  C   UNL     1      -4.765 -10.626  15.078  0.00  0.00    +0.016 A 
ATOM     28  C   UNL     1      -2.716 -10.797  16.347  0.00  0.00    +0.016 A 
ATOM     29  C   UNL     1      -2.635 -10.648  13.937  0.00  0.00    +0.121 A 
ATOM     30  C   UNL     1      -4.028 -10.583  13.893  0.00  0.00    +0.046 A 
ATOM     31  C   UNL     1      -1.979 -10.754  15.164  0.00  0.00    +0.046 A 
BRANCH  29   5
ATOM      5  O   UNL     1      -1.915 -10.608  12.782  0.00  0.00    -0.491 OA
BRANCH   5  25
ATOM     25  C   UNL     1      -2.637 -10.762  11.561  0.00  0.00    +0.244 C 
BRANCH  25  22
ATOM     22  C   UNL     1      -2.508  -9.482  10.752  0.00  0.00    +0.125 C 
BRANCH  22   8
ATOM      3  O   UNL     1      -6.346  -9.708   9.071  0.00  0.00    -0.377 OA
ATOM      8  N   UNL     1      -3.624  -9.346   9.819  0.00  0.00    -0.295 NA
ATOM     19  C   UNL     1      -4.697  -8.529  10.404  0.00  0.00    +0.112 C 
ATOM     20  C   UNL     1      -4.147 -10.665   9.435  0.00  0.00    +0.112 C 
ATOM     23  C   UNL     1      -5.855  -8.413   9.417  0.00  0.00    +0.175 C 
ATOM     24  C   UNL     1      -5.318 -10.497   8.472  0.00  0.00    +0.175 C 
ENDBRANCH  22   8
ENDBRANCH  25  22
ENDBRANCH   5  25
ENDBRANCH  29   5
ENDBRANCH  18  21
ENDBRANCH  11   7
BRANCH  12   1
ATOM      1  O   UNL     1      -8.598  -8.872  17.891  0.00  0.00    -0.390 OA
ATOM     39  H   UNL     1      -8.150  -8.468  18.653  0.00  0.00    +0.210 HD
ENDBRANCH  12   1
TORSDOF 9
ENDMDL
MODEL 5
REMARK VINA RESULT:      -6.2     30.355     33.983
REMARK  Name = 26742268
REMARK  9 active torsions:
REMARK  status: ('A' for Active; 'I' for Inactive)
REMARK    1  A    between atoms: O_1  and  C_12
REMARK    2  A    between atoms: O_5  and  C_25
REMARK    3  A    between atoms: O_5  and  C_29
REMARK    4  A    between atoms: N_7  and  C_11
REMARK    5  A    between atoms: N_8  and  C_22
REMARK    6  A    between atoms: N_9  and  C_26
REMARK    7  A    between atoms: C_18  and  C_21
REMARK    8  A    between atoms: C_22  and  C_25
REMARK    9  A    between atoms: C_34  and  C_37
REMARK                            x       y       z     vdW  Elec       q    Type
REMARK                         _______ _______ _______ _____ _____    ______ ____
ROOT
ATOM      2  O   UNL     1      26.273   7.724  21.623  0.00  0.00    -0.252 OA
ATOM      6  N   UNL     1      25.842   5.484  21.997  0.00  0.00    -0.284 N 
ATOM      9  N   UNL     1      24.131   7.093  22.266  0.00  0.00    -0.269 N 
ATOM     11  C   UNL     1      24.219   3.810  21.041  0.00  0.00    +0.119 C 
ATOM     12  C   UNL     1      25.021   3.785  19.727  0.00  0.00    +0.136 C 
ATOM     13  C   UNL     1      26.507   3.440  19.859  0.00  0.00    +0.035 C 
ATOM     14  C   UNL     1      24.950   4.350  22.277  0.00  0.00    +0.134 C 
ATOM     15  C   UNL     1      27.377   4.644  20.229  0.00  0.00    +0.022 C 
ATOM     16  C   UNL     1      27.220   5.118  21.668  0.00  0.00    +0.109 C 
ATOM     17  C   UNL     1      25.465   6.847  21.941  0.00  0.00    +0.307 C 
ATOM     40  H   UNL     1      23.661   6.430  22.873  0.00  0.00    +0.156 HD
ENDROOT
BRANCH   9  26
ATOM     26  C   UNL     1      23.295   8.133  21.788  0.00  0.00    +0.036 A 
ATOM     32  C   UNL     1      22.752   9.058  22.680  0.00  0.00    +0.042 A 
ATOM     33  C   UNL     1      23.015   8.232  20.425  0.00  0.00    +0.023 A 
ATOM     34  C   UNL     1      21.928  10.081  22.209  0.00  0.00    +0.054 A 
ATOM     35  C   UNL     1      22.193   9.255  19.954  0.00  0.00    +0.003 A 
ATOM     36  C   UNL     1      21.649  10.179  20.846  0.00  0.00    +0.019 A 
BRANCH  34  37
ATOM     10  N   UNL     1      20.920  11.796  23.865  0.00  0.00    -0.191 NA
ATOM     37  C   UNL     1      21.372  11.028  23.123  0.00  0.00    +0.099 C 
ENDBRANCH  34  37
ENDBRANCH   9  26
BRANCH  11   7
ATOM      4  O   UNL     1      21.827   3.616  22.615  0.00  0.00    -0.270 OA
ATOM      7  N   UNL     1      22.980   4.531  20.825  0.00  0.00    -0.305 N 
ATOM     18  C   UNL     1      21.880   4.366  21.645  0.00  0.00    +0.244 C 
ATOM     38  H   UNL     1      22.982   5.252  20.112  0.00  0.00    +0.149 HD
BRANCH  18  21
ATOM     21  C   UNL     1      20.678   5.157  21.273  0.00  0.00    +0.037 A 
ATOM     27  C   UNL     1      20.294   6.249  22.052  0.00  0.00    +0.016 A 
ATOM     28  C   UNL     1      19.934   4.808  20.146  0.00  0.00    +0.016 A 
ATOM     29  C   UNL     1      18.423   6.643  20.576  0.00  0.00    +0.121 A 
ATOM     30  C   UNL     1      19.166   6.993  21.703  0.00  0.00    +0.046 A 
ATOM     31  C   UNL     1      18.806   5.551  19.797  0.00  0.00    +0.046 A 
BRANCH  29   5
ATOM      5  O   UNL     1      17.321   7.367  20.235  0.00  0.00    -0.491 OA
BRANCH   5  25
ATOM     25  C   UNL     1      16.062   6.698  20.292  0.00  0.00    +0.244 C 
BRANCH  25  22
ATOM     22  C   UNL     1      15.289   7.003  19.019  0.00  0.00    +0.125 C 
BRANCH  22   8
ATOM      3  O   UNL     1      11.572   8.255  20.512  0.00  0.00    -0.377 OA
ATOM      8  N   UNL     1      13.855   7.073  19.290  0.00  0.00    -0.295 NA
ATOM     19  C   UNL     1      13.292   8.341  18.803  0.00  0.00    +0.112 C 
ATOM     20  C   UNL     1      13.587   6.923  20.728  0.00  0.00    +0.112 C 
ATOM     23  C   UNL     1      11.798   8.396  19.109  0.00  0.00    +0.175 C 
ATOM     24  C   UNL     1      12.087   7.011  20.987  0.00  0.00    +0.175 C 
ENDBRANCH  22   8
ENDBRANCH  25  22
ENDBRANCH   5  25
ENDBRANCH  29   5
ENDBRANCH  18  21
ENDBRANCH  11   7
BRANCH  12   1
ATOM      1  O   UNL     1      24.433   2.791  18.875  0.00  0.00    -0.390 OA
ATOM     39  H   UNL     1      24.967   1.983  18.954  0.00  0.00    +0.210 HD
ENDBRANCH  12   1
TORSDOF 9
ENDMDL
MODEL 6
REMARK VINA RESULT:      -6.2     29.131     32.342
REMARK  Name = 26742268
REMARK  9 active torsions:
REMARK  status: ('A' for Active; 'I' for Inactive)
REMARK    1  A    between atoms: O_1  and  C_12
REMARK    2  A    between atoms: O_5  and  C_25
REMARK    3  A    between atoms: O_5  and  C_29
REMARK    4  A    between atoms: N_7  and  C_11
REMARK    5  A    between atoms: N_8  and  C_22
REMARK    6  A    between atoms: N_9  and  C_26
REMARK    7  A    between atoms: C_18  and  C_21
REMARK    8  A    between atoms: C_22  and  C_25
REMARK    9  A    between atoms: C_34  and  C_37
REMARK                            x       y       z     vdW  Elec       q    Type
REMARK                         _______ _______ _______ _____ _____    ______ ____
ROOT
ATOM      2  O   UNL     1      20.472  12.249  22.981  0.00  0.00    -0.252 OA
ATOM      6  N   UNL     1      21.117  10.102  23.544  0.00  0.00    -0.284 N 
ATOM      9  N   UNL     1      18.858  10.578  23.033  0.00  0.00    -0.269 N 
ATOM     11  C   UNL     1      20.978   7.857  22.407  0.00  0.00    +0.119 C 
ATOM     12  C   UNL     1      22.075   8.292  21.417  0.00  0.00    +0.136 C 
ATOM     13  C   UNL     1      23.389   8.766  22.045  0.00  0.00    +0.035 C 
ATOM     14  C   UNL     1      20.875   8.662  23.709  0.00  0.00    +0.134 C 
ATOM     15  C   UNL     1      23.359  10.235  22.473  0.00  0.00    +0.022 C 
ATOM     16  C   UNL     1      22.511  10.516  23.708  0.00  0.00    +0.109 C 
ATOM     17  C   UNL     1      20.156  11.071  23.169  0.00  0.00    +0.307 C 
ATOM     40  H   UNL     1      18.608   9.751  23.562  0.00  0.00    +0.156 HD
ENDROOT
BRANCH   9  26
ATOM     26  C   UNL     1      17.835  11.046  22.172  0.00  0.00    +0.036 A 
ATOM     32  C   UNL     1      16.590  11.398  22.693  0.00  0.00    +0.042 A 
ATOM     33  C   UNL     1      18.072  11.154  20.801  0.00  0.00    +0.023 A 
ATOM     34  C   UNL     1      15.582  11.857  21.845  0.00  0.00    +0.054 A 
ATOM     35  C   UNL     1      17.065  11.613  19.953  0.00  0.00    +0.003 A 
ATOM     36  C   UNL     1      15.820  11.965  20.475  0.00  0.00    +0.019 A 
BRANCH  34  37
ATOM     10  N   UNL     1      13.272  12.509  22.814  0.00  0.00    -0.191 NA
ATOM     37  C   UNL     1      14.307  12.218  22.380  0.00  0.00    +0.099 C 
ENDBRANCH  34  37
ENDBRANCH   9  26
BRANCH  11   7
ATOM      4  O   UNL     1      19.793   5.612  21.068  0.00  0.00    -0.270 OA
ATOM      7  N   UNL     1      19.702   7.835  21.718  0.00  0.00    -0.305 N 
ATOM     18  C   UNL     1      19.218   6.697  21.102  0.00  0.00    +0.244 C 
ATOM     38  H   UNL     1      19.118   8.660  21.799  0.00  0.00    +0.149 HD
BRANCH  18  21
ATOM     21  C   UNL     1      17.909   6.846  20.416  0.00  0.00    +0.037 A 
ATOM     27  C   UNL     1      17.590   6.022  19.336  0.00  0.00    +0.016 A 
ATOM     28  C   UNL     1      16.998   7.809  20.852  0.00  0.00    +0.016 A 
ATOM     29  C   UNL     1      15.450   7.125  19.128  0.00  0.00    +0.121 A 
ATOM     30  C   UNL     1      16.359   6.162  18.692  0.00  0.00    +0.046 A 
ATOM     31  C   UNL     1      15.769   7.948  20.208  0.00  0.00    +0.046 A 
BRANCH  29   5
ATOM      5  O   UNL     1      14.250   7.263  18.499  0.00  0.00    -0.491 OA
BRANCH   5  25
ATOM     25  C   UNL     1      13.083   6.924  19.246  0.00  0.00    +0.244 C 
BRANCH  25  22
ATOM     22  C   UNL     1      11.972   7.897  18.885  0.00  0.00    +0.125 C 
BRANCH  22   8
ATOM      3  O   UNL     1      10.999   8.790  22.869  0.00  0.00    -0.377 OA
ATOM      8  N   UNL     1      11.220   8.286  20.076  0.00  0.00    -0.295 NA
ATOM     19  C   UNL     1      11.798   9.492  20.688  0.00  0.00    +0.112 C 
ATOM     20  C   UNL     1      11.188   7.190  21.055  0.00  0.00    +0.112 C 
ATOM     23  C   UNL     1      11.005   9.870  21.936  0.00  0.00    +0.175 C 
ATOM     24  C   UNL     1      10.410   7.624  22.293  0.00  0.00    +0.175 C 
ENDBRANCH  22   8
ENDBRANCH  25  22
ENDBRANCH   5  25
ENDBRANCH  29   5
ENDBRANCH  18  21
ENDBRANCH  11   7
BRANCH  12   1
ATOM      1  O   UNL     1      22.388   7.163  20.589  0.00  0.00    -0.390 OA
ATOM     39  H   UNL     1      23.230   6.793  20.902  0.00  0.00    +0.210 HD
ENDBRANCH  12   1
TORSDOF 9
ENDMDL
MODEL 7
REMARK VINA RESULT:      -6.2      2.373      8.645
REMARK  Name = 26742268
REMARK  9 active torsions:
REMARK  status: ('A' for Active; 'I' for Inactive)
REMARK    1  A    between atoms: O_1  and  C_12
REMARK    2  A    between atoms: O_5  and  C_25
REMARK    3  A    between atoms: O_5  and  C_29
REMARK    4  A    between atoms: N_7  and  C_11
REMARK    5  A    between atoms: N_8  and  C_22
REMARK    6  A    between atoms: N_9  and  C_26
REMARK    7  A    between atoms: C_18  and  C_21
REMARK    8  A    between atoms: C_22  and  C_25
REMARK    9  A    between atoms: C_34  and  C_37
REMARK                            x       y       z     vdW  Elec       q    Type
REMARK                         _______ _______ _______ _____ _____    ______ ____
ROOT
ATOM      2  O   UNL     1      -1.783 -10.113  14.100  0.00  0.00    -0.252 OA
ATOM      6  N   UNL     1      -2.676 -10.939  12.134  0.00  0.00    -0.284 N 
ATOM      9  N   UNL     1      -3.662 -11.475  14.214  0.00  0.00    -0.269 N 
ATOM     11  C   UNL     1      -4.931 -10.799  11.017  0.00  0.00    +0.119 C 
ATOM     12  C   UNL     1      -4.668  -9.321  10.674  0.00  0.00    +0.136 C 
ATOM     13  C   UNL     1      -3.388  -9.038   9.882  0.00  0.00    +0.035 C 
ATOM     14  C   UNL     1      -3.701 -11.651  11.357  0.00  0.00    +0.134 C 
ATOM     15  C   UNL     1      -2.141  -8.933  10.763  0.00  0.00    +0.022 C 
ATOM     16  C   UNL     1      -1.656 -10.260  11.333  0.00  0.00    +0.109 C 
ATOM     17  C   UNL     1      -2.647 -10.795  13.541  0.00  0.00    +0.307 C 
ATOM     40  H   UNL     1      -4.064 -12.291  13.766  0.00  0.00    +0.156 HD
ENDROOT
BRANCH   9  26
ATOM     26  C   UNL     1      -4.280 -11.126  15.441  0.00  0.00    +0.036 A 
ATOM     32  C   UNL     1      -3.815 -11.672  16.637  0.00  0.00    +0.042 A 
ATOM     33  C   UNL     1      -5.354 -10.236  15.453  0.00  0.00    +0.023 A 
ATOM     34  C   UNL     1      -4.424 -11.329  17.845  0.00  0.00    +0.054 A 
ATOM     35  C   UNL     1      -5.962  -9.892  16.659  0.00  0.00    +0.003 A 
ATOM     36  C   UNL     1      -5.497 -10.438  17.856  0.00  0.00    +0.019 A 
BRANCH  34  37
ATOM     10  N   UNL     1      -3.561 -12.343  20.065  0.00  0.00    -0.191 NA
ATOM     37  C   UNL     1      -3.947 -11.889  19.070  0.00  0.00    +0.099 C 
ENDBRANCH  34  37
ENDBRANCH   9  26
BRANCH  11   7
ATOM      4  O   UNL     1      -7.780 -10.961  10.716  0.00  0.00    -0.270 OA
ATOM      7  N   UNL     1      -5.911 -10.869  12.083  0.00  0.00    -0.305 N 
ATOM     18  C   UNL     1      -7.268 -10.945  11.831  0.00  0.00    +0.244 C 
ATOM     38  H   UNL     1      -5.560 -10.974  13.029  0.00  0.00    +0.149 HD
BRANCH  18  21
ATOM     21  C   UNL     1      -8.142 -10.982  13.032  0.00  0.00    +0.037 A 
ATOM     27  C   UNL     1      -8.160 -12.116  13.846  0.00  0.00    +0.016 A 
ATOM     28  C   UNL     1      -8.945  -9.885  13.346  0.00  0.00    +0.016 A 
ATOM     29  C   UNL     1      -9.783 -11.054  15.287  0.00  0.00    +0.121 A 
ATOM     30  C   UNL     1      -8.981 -12.151  14.974  0.00  0.00    +0.046 A 
ATOM     31  C   UNL     1      -9.764  -9.921  14.474  0.00  0.00    +0.046 A 
BRANCH  29   5
ATOM      5  O   UNL     1     -10.585 -11.089  16.387  0.00  0.00    -0.491 OA
BRANCH   5  25
ATOM     25  C   UNL     1     -10.634  -9.911  17.192  0.00  0.00    +0.244 C 
BRANCH  25  22
ATOM     22  C   UNL     1     -12.084  -9.480  17.339  0.00  0.00    +0.125 C 
BRANCH  22   8
ATOM      3  O   UNL     1     -11.801  -6.053  14.932  0.00  0.00    -0.377 OA
ATOM      8  N   UNL     1     -12.273  -8.124  16.827  0.00  0.00    -0.295 NA
ATOM     19  C   UNL     1     -12.885  -8.152  15.490  0.00  0.00    +0.112 C 
ATOM     20  C   UNL     1     -10.995  -7.400  16.781  0.00  0.00    +0.112 C 
ATOM     23  C   UNL     1     -13.060  -6.727  14.972  0.00  0.00    +0.175 C 
ATOM     24  C   UNL     1     -11.216  -5.994  16.233  0.00  0.00    +0.175 C 
ENDBRANCH  22   8
ENDBRANCH  25  22
ENDBRANCH   5  25
ENDBRANCH  29   5
ENDBRANCH  18  21
ENDBRANCH  11   7
BRANCH  12   1
ATOM      1  O   UNL     1      -5.766  -8.855   9.878  0.00  0.00    -0.390 OA
ATOM     39  H   UNL     1      -6.371  -8.372  10.466  0.00  0.00    +0.210 HD
ENDBRANCH  12   1
TORSDOF 9
ENDMDL
MODEL 8
REMARK VINA RESULT:      -6.1      2.501      3.984
REMARK  Name = 26742268
REMARK  9 active torsions:
REMARK  status: ('A' for Active; 'I' for Inactive)
REMARK    1  A    between atoms: O_1  and  C_12
REMARK    2  A    between atoms: O_5  and  C_25
REMARK    3  A    between atoms: O_5  and  C_29
REMARK    4  A    between atoms: N_7  and  C_11
REMARK    5  A    between atoms: N_8  and  C_22
REMARK    6  A    between atoms: N_9  and  C_26
REMARK    7  A    between atoms: C_18  and  C_21
REMARK    8  A    between atoms: C_22  and  C_25
REMARK    9  A    between atoms: C_34  and  C_37
REMARK                            x       y       z     vdW  Elec       q    Type
REMARK                         _______ _______ _______ _____ _____    ______ ____
ROOT
ATOM      2  O   UNL     1     -11.173  -9.648  12.198  0.00  0.00    -0.252 OA
ATOM      6  N   UNL     1     -12.071  -9.186  14.278  0.00  0.00    -0.284 N 
ATOM      9  N   UNL     1     -10.168 -10.574  14.078  0.00  0.00    -0.269 N 
ATOM     11  C   UNL     1     -11.185  -8.151  16.398  0.00  0.00    +0.119 C 
ATOM     12  C   UNL     1     -11.176  -6.769  15.719  0.00  0.00    +0.136 C 
ATOM     13  C   UNL     1     -12.511  -6.309  15.127  0.00  0.00    +0.035 C 
ATOM     14  C   UNL     1     -12.063  -9.227  15.747  0.00  0.00    +0.134 C 
ATOM     15  C   UNL     1     -12.776  -6.864  13.726  0.00  0.00    +0.022 C 
ATOM     16  C   UNL     1     -13.117  -8.349  13.689  0.00  0.00    +0.109 C 
ATOM     17  C   UNL     1     -11.127  -9.802  13.422  0.00  0.00    +0.307 C 
ATOM     40  H   UNL     1     -10.411 -10.966  14.980  0.00  0.00    +0.156 HD
ENDROOT
BRANCH   9  26
ATOM     26  C   UNL     1      -8.832 -10.827  13.678  0.00  0.00    +0.036 A 
ATOM     32  C   UNL     1      -8.129  -9.870  12.947  0.00  0.00    +0.042 A 
ATOM     33  C   UNL     1      -8.220 -12.035  14.013  0.00  0.00    +0.023 A 
ATOM     34  C   UNL     1      -6.814 -10.120  12.552  0.00  0.00    +0.054 A 
ATOM     35  C   UNL     1      -6.906 -12.285  13.620  0.00  0.00    +0.003 A 
ATOM     36  C   UNL     1      -6.203 -11.328  12.889  0.00  0.00    +0.019 A 
BRANCH  34  37
ATOM     10  N   UNL     1      -5.509  -8.341  11.197  0.00  0.00    -0.191 NA
ATOM     37  C   UNL     1      -6.094  -9.139  11.804  0.00  0.00    +0.099 C 
ENDBRANCH  34  37
ENDBRANCH   9  26
BRANCH  11   7
ATOM      4  O   UNL     1     -10.125  -9.748  18.534  0.00  0.00    -0.270 OA
ATOM      7  N   UNL     1      -9.820  -8.620  16.533  0.00  0.00    -0.305 N 
ATOM     18  C   UNL     1      -9.408  -9.388  17.605  0.00  0.00    +0.244 C 
ATOM     38  H   UNL     1      -9.195  -8.459  15.750  0.00  0.00    +0.149 HD
BRANCH  18  21
ATOM     21  C   UNL     1      -7.970  -9.765  17.610  0.00  0.00    +0.037 A 
ATOM     27  C   UNL     1      -7.419 -10.396  18.726  0.00  0.00    +0.016 A 
ATOM     28  C   UNL     1      -7.173  -9.489  16.499  0.00  0.00    +0.016 A 
ATOM     29  C   UNL     1      -5.272 -10.474  17.619  0.00  0.00    +0.121 A 
ATOM     30  C   UNL     1      -6.069 -10.750  18.730  0.00  0.00    +0.046 A 
ATOM     31  C   UNL     1      -5.824  -9.843  16.503  0.00  0.00    +0.046 A 
BRANCH  29   5
ATOM      5  O   UNL     1      -3.955 -10.818  17.624  0.00  0.00    -0.491 OA
BRANCH   5  25
ATOM     25  C   UNL     1      -3.462 -11.513  16.479  0.00  0.00    +0.244 C 
BRANCH  25  22
ATOM     22  C   UNL     1      -2.300 -10.727  15.893  0.00  0.00    +0.125 C 
BRANCH  22   8
ATOM      3  O   UNL     1      -2.542 -12.266  11.996  0.00  0.00    -0.377 OA
ATOM      8  N   UNL     1      -1.923 -11.261  14.586  0.00  0.00    -0.295 NA
ATOM     19  C   UNL     1      -2.383 -10.374  13.507  0.00  0.00    +0.112 C 
ATOM     20  C   UNL     1      -2.471 -12.611  14.396  0.00  0.00    +0.112 C 
ATOM     23  C   UNL     1      -1.989 -10.959  12.154  0.00  0.00    +0.175 C 
ATOM     24  C   UNL     1      -2.075 -13.142  13.021  0.00  0.00    +0.175 C 
ENDBRANCH  22   8
ENDBRANCH  25  22
ENDBRANCH   5  25
ENDBRANCH  29   5
ENDBRANCH  18  21
ENDBRANCH  11   7
BRANCH  12   1
ATOM      1  O   UNL     1     -10.797  -5.800  16.706  0.00  0.00    -0.390 OA
ATOM     39  H   UNL     1     -10.008  -6.138  17.163  0.00  0.00    +0.210 HD
ENDBRANCH  12   1
TORSDOF 9
ENDMDL
MODEL 9
REMARK VINA RESULT:      -6.1      2.558      3.641
REMARK  Name = 26742268
REMARK  9 active torsions:
REMARK  status: ('A' for Active; 'I' for Inactive)
REMARK    1  A    between atoms: O_1  and  C_12
REMARK    2  A    between atoms: O_5  and  C_25
REMARK    3  A    between atoms: O_5  and  C_29
REMARK    4  A    between atoms: N_7  and  C_11
REMARK    5  A    between atoms: N_8  and  C_22
REMARK    6  A    between atoms: N_9  and  C_26
REMARK    7  A    between atoms: C_18  and  C_21
REMARK    8  A    between atoms: C_22  and  C_25
REMARK    9  A    between atoms: C_34  and  C_37
REMARK                            x       y       z     vdW  Elec       q    Type
REMARK                         _______ _______ _______ _____ _____    ______ ____
ROOT
ATOM      2  O   UNL     1     -10.167 -15.523  17.438  0.00  0.00    -0.252 OA
ATOM      6  N   UNL     1      -9.656 -14.651  19.517  0.00  0.00    -0.284 N 
ATOM      9  N   UNL     1      -7.979 -14.869  17.865  0.00  0.00    -0.269 N 
ATOM     11  C   UNL     1      -8.675 -12.478  20.333  0.00  0.00    +0.119 C 
ATOM     12  C   UNL     1      -9.986 -11.754  19.975  0.00  0.00    +0.136 C 
ATOM     13  C   UNL     1     -11.257 -12.322  20.613  0.00  0.00    +0.035 C 
ATOM     14  C   UNL     1      -8.756 -14.003  20.481  0.00  0.00    +0.134 C 
ATOM     15  C   UNL     1     -11.842 -13.509  19.844  0.00  0.00    +0.022 C 
ATOM     16  C   UNL     1     -11.040 -14.799  19.968  0.00  0.00    +0.109 C 
ATOM     17  C   UNL     1      -9.320 -15.053  18.202  0.00  0.00    +0.307 C 
ATOM     40  H   UNL     1      -7.298 -14.864  18.616  0.00  0.00    +0.156 HD
ENDROOT
BRANCH   9  26
ATOM     26  C   UNL     1      -7.431 -14.602  16.586  0.00  0.00    +0.036 A 
ATOM     32  C   UNL     1      -7.603 -13.347  16.001  0.00  0.00    +0.042 A 
ATOM     33  C   UNL     1      -6.721 -15.594  15.910  0.00  0.00    +0.023 A 
ATOM     34  C   UNL     1      -7.065 -13.085  14.740  0.00  0.00    +0.054 A 
ATOM     35  C   UNL     1      -6.182 -15.332  14.651  0.00  0.00    +0.003 A 
ATOM     36  C   UNL     1      -6.354 -14.077  14.066  0.00  0.00    +0.019 A 
BRANCH  34  37
ATOM     10  N   UNL     1      -7.386 -10.756  13.655  0.00  0.00    -0.191 NA
ATOM     37  C   UNL     1      -7.242 -11.800  14.142  0.00  0.00    +0.099 C 
ENDBRANCH  34  37
ENDBRANCH   9  26
BRANCH  11   7
ATOM      4  O   UNL     1      -6.069 -11.426  20.914  0.00  0.00    -0.270 OA
ATOM      7  N   UNL     1      -7.656 -12.112  19.370  0.00  0.00    -0.305 N 
ATOM     18  C   UNL     1      -6.426 -11.612  19.754  0.00  0.00    +0.244 C 
ATOM     38  H   UNL     1      -7.832 -12.342  18.398  0.00  0.00    +0.149 HD
BRANCH  18  21
ATOM     21  C   UNL     1      -5.501 -11.259  18.645  0.00  0.00    +0.037 A 
ATOM     27  C   UNL     1      -4.200 -11.761  18.637  0.00  0.00    +0.016 A 
ATOM     28  C   UNL     1      -5.935 -10.426  17.614  0.00  0.00    +0.016 A 
ATOM     29  C   UNL     1      -3.766 -10.598  16.564  0.00  0.00    +0.121 A 
ATOM     30  C   UNL     1      -3.331 -11.431  17.595  0.00  0.00    +0.046 A 
ATOM     31  C   UNL     1      -5.067 -10.096  16.573  0.00  0.00    +0.046 A 
BRANCH  29   5
ATOM      5  O   UNL     1      -2.919 -10.274  15.549  0.00  0.00    -0.491 OA
BRANCH   5  25
ATOM     25  C   UNL     1      -1.712 -11.029  15.443  0.00  0.00    +0.244 C 
BRANCH  25  22
ATOM     22  C   UNL     1      -1.763 -11.855  14.168  0.00  0.00    +0.125 C 
BRANCH  22   8
ATOM      3  O   UNL     1      -3.609 -10.916  10.518  0.00  0.00    -0.377 OA
ATOM      8  N   UNL     1      -2.604 -11.205  13.165  0.00  0.00    -0.295 NA
ATOM     19  C   UNL     1      -3.575 -12.155  12.603  0.00  0.00    +0.112 C 
ATOM     20  C   UNL     1      -1.784 -10.629  12.090  0.00  0.00    +0.112 C 
ATOM     23  C   UNL     1      -4.432 -11.458  11.551  0.00  0.00    +0.175 C 
ATOM     24  C   UNL     1      -2.684  -9.968  11.050  0.00  0.00    +0.175 C 
ENDBRANCH  22   8
ENDBRANCH  25  22
ENDBRANCH   5  25
ENDBRANCH  29   5
ENDBRANCH  18  21
ENDBRANCH  11   7
BRANCH  12   1
ATOM      1  O   UNL     1      -9.867 -10.394  20.415  0.00  0.00    -0.390 OA
ATOM     39  H   UNL     1     -10.186  -9.823  19.696  0.00  0.00    +0.210 HD
ENDBRANCH  12   1
TORSDOF 9
ENDMDL
MODEL 10
REMARK VINA RESULT:      -6.0     24.888     28.702
REMARK  Name = 26742268
REMARK  9 active torsions:
REMARK  status: ('A' for Active; 'I' for Inactive)
REMARK    1  A    between atoms: O_1  and  C_12
REMARK    2  A    between atoms: O_5  and  C_25
REMARK    3  A    between atoms: O_5  and  C_29
REMARK    4  A    between atoms: N_7  and  C_11
REMARK    5  A    between atoms: N_8  and  C_22
REMARK    6  A    between atoms: N_9  and  C_26
REMARK    7  A    between atoms: C_18  and  C_21
REMARK    8  A    between atoms: C_22  and  C_25
REMARK    9  A    between atoms: C_34  and  C_37
REMARK                            x       y       z     vdW  Elec       q    Type
REMARK                         _______ _______ _______ _____ _____    ______ ____
ROOT
ATOM      2  O   UNL     1       9.736   4.778   0.604  0.00  0.00    -0.252 OA
ATOM      6  N   UNL     1      11.895   5.452   0.126  0.00  0.00    -0.284 N 
ATOM      9  N   UNL     1      10.556   6.699   1.623  0.00  0.00    -0.269 N 
ATOM     11  C   UNL     1      13.962   5.879   1.503  0.00  0.00    +0.119 C 
ATOM     12  C   UNL     1      14.123   4.365   1.729  0.00  0.00    +0.136 C 
ATOM     13  C   UNL     1      14.195   3.506   0.463  0.00  0.00    +0.035 C 
ATOM     14  C   UNL     1      13.076   6.304   0.325  0.00  0.00    +0.134 C 
ATOM     15  C   UNL     1      12.819   3.154  -0.109  0.00  0.00    +0.022 C 
ATOM     16  C   UNL     1      12.097   4.318  -0.777  0.00  0.00    +0.109 C 
ATOM     17  C   UNL     1      10.648   5.590   0.781  0.00  0.00    +0.307 C 
ATOM     40  H   UNL     1      11.149   7.496   1.423  0.00  0.00    +0.156 HD
ENDROOT
BRANCH   9  26
ATOM     26  C   UNL     1       9.778   6.836   2.800  0.00  0.00    +0.036 A 
ATOM     32  C   UNL     1      10.052   6.041   3.913  0.00  0.00    +0.042 A 
ATOM     33  C   UNL     1       8.739   7.764   2.845  0.00  0.00    +0.023 A 
ATOM     34  C   UNL     1       9.286   6.175   5.072  0.00  0.00    +0.054 A 
ATOM     35  C   UNL     1       7.973   7.899   4.003  0.00  0.00    +0.003 A 
ATOM     36  C   UNL     1       8.247   7.105   5.116  0.00  0.00    +0.019 A 
BRANCH  34  37
ATOM     10  N   UNL     1       9.794   4.701   7.139  0.00  0.00    -0.191 NA
ATOM     37  C   UNL     1       9.566   5.361   6.212  0.00  0.00    +0.099 C 
ENDBRANCH  34  37
ENDBRANCH   9  26
BRANCH  11   7
ATOM      4  O   UNL     1      14.729   8.450   2.522  0.00  0.00    -0.270 OA
ATOM      7  N   UNL     1      13.504   6.494   2.733  0.00  0.00    -0.305 N 
ATOM     18  C   UNL     1      13.936   7.743   3.137  0.00  0.00    +0.244 C 
ATOM     38  H   UNL     1      12.762   6.022   3.239  0.00  0.00    +0.149 HD
BRANCH  18  21
ATOM     21  C   UNL     1      13.393   8.221   4.435  0.00  0.00    +0.037 A 
ATOM     27  C   UNL     1      12.913   7.303   5.370  0.00  0.00    +0.016 A 
ATOM     28  C   UNL     1      13.364   9.587   4.719  0.00  0.00    +0.016 A 
ATOM     29  C   UNL     1      12.375   9.117   6.873  0.00  0.00    +0.121 A 
ATOM     30  C   UNL     1      12.404   7.751   6.590  0.00  0.00    +0.046 A 
ATOM     31  C   UNL     1      12.855  10.035   5.938  0.00  0.00    +0.046 A 
BRANCH  29   5
ATOM      5  O   UNL     1      11.877   9.555   8.062  0.00  0.00    -0.491 OA
BRANCH   5  25
ATOM     25  C   UNL     1      11.659  10.959   8.197  0.00  0.00    +0.244 C 
BRANCH  25  22
ATOM     22  C   UNL     1      10.182  11.201   8.461  0.00  0.00    +0.125 C 
BRANCH  22   8
ATOM      3  O   UNL     1       9.795  12.104  12.541  0.00  0.00    -0.377 OA
ATOM      8  N   UNL     1       9.995  11.942   9.707  0.00  0.00    -0.295 NA
ATOM     19  C   UNL     1      11.180  11.820  10.569  0.00  0.00    +0.112 C 
ATOM     20  C   UNL     1       8.801  11.470  10.421  0.00  0.00    +0.112 C 
ATOM     23  C   UNL     1      10.956  12.590  11.867  0.00  0.00    +0.175 C 
ATOM     24  C   UNL     1       8.634  12.249  11.722  0.00  0.00    +0.175 C 
ENDBRANCH  22   8
ENDBRANCH  25  22
ENDBRANCH   5  25
ENDBRANCH  29   5
ENDBRANCH  18  21
ENDBRANCH  11   7
BRANCH  12   1
ATOM      1  O   UNL     1      15.347   4.158   2.447  0.00  0.00    -0.390 OA
ATOM     39  H   UNL     1      15.181   4.372   3.380  0.00  0.00    +0.210 HD
ENDBRANCH  12   1
TORSDOF 9
ENDMDL
