MODEL 1
REMARK VINA RESULT:      -5.6      0.000      0.000
REMARK  Name = 56774399
REMARK  5 active torsions:
REMARK  status: ('A' for Active; 'I' for Inactive)
REMARK    1  A    between atoms: N_2  and  C_8
REMARK    2  A    between atoms: C_4  and  C_10
REMARK    3  A    between atoms: C_8  and  C_9
REMARK    4  A    between atoms: C_9  and  C_11
REMARK    5  A    between atoms: C_9  and  C_12
REMARK                            x       y       z     vdW  Elec       q    Type
REMARK                         _______ _______ _______ _____ _____    ______ ____
ROOT
ATOM      2  N   UNL     1      -2.378 -11.169  12.448  0.00  0.00    -0.301 NA
ATOM      4  C   UNL     1      -2.637 -10.709  14.734  0.00  0.00    +0.090 C 
ATOM      5  C   UNL     1      -3.278 -10.461  13.361  0.00  0.00    +0.097 C 
ATOM      6  C   UNL     1      -1.832 -12.008  14.558  0.00  0.00    +0.029 C 
ATOM      7  C   UNL     1      -2.082 -12.436  13.117  0.00  0.00    +0.085 C 
ENDROOT
BRANCH   4  10
ATOM      1  O   UNL     1      -3.257 -11.380  16.993  0.00  0.00    -0.439 OA
ATOM      3  N   UNL     1      -4.851 -10.211  15.885  0.00  0.00    -0.213 NA
ATOM     10  C   UNL     1      -3.645 -10.733  15.859  0.00  0.00    +0.201 A 
ATOM     13  C   UNL     1      -4.335 -11.249  17.821  0.00  0.00    +0.155 A 
ATOM     14  C   UNL     1      -5.308 -10.532  17.140  0.00  0.00    +0.110 A 
ATOM     15  C   UNL     1      -4.469 -11.731  19.117  0.00  0.00    +0.048 A 
ATOM     16  C   UNL     1      -6.525 -10.262  17.782  0.00  0.00    +0.031 A 
ATOM     17  C   UNL     1      -5.688 -11.453  19.744  0.00  0.00    +0.004 A 
ATOM     18  C   UNL     1      -6.698 -10.734  19.091  0.00  0.00    +0.002 A 
ENDBRANCH   4  10
BRANCH   2   8
ATOM      8  C   UNL     1      -2.963 -11.362  11.130  0.00  0.00    +0.087 C 
BRANCH   8   9
ATOM      9  C   UNL     1      -4.004 -10.283  10.785  0.00  0.00    -0.003 C 
ATOM     11  C   UNL     1      -3.360  -9.208   9.905  0.00  0.00    +0.008 C 
ATOM     12  C   UNL     1      -5.234 -10.857  10.079  0.00  0.00    +0.008 C 
ENDBRANCH   8   9
ENDBRANCH   2   8
TORSDOF 3
ENDMDL
MODEL 2
REMARK VINA RESULT:      -5.6     26.973     28.038
REMARK  Name = 56774399
REMARK  5 active torsions:
REMARK  status: ('A' for Active; 'I' for Inactive)
REMARK    1  A    between atoms: N_2  and  C_8
REMARK    2  A    between atoms: C_4  and  C_10
REMARK    3  A    between atoms: C_8  and  C_9
REMARK    4  A    between atoms: C_9  and  C_11
REMARK    5  A    between atoms: C_9  and  C_12
REMARK                            x       y       z     vdW  Elec       q    Type
REMARK                         _______ _______ _______ _____ _____    ______ ____
ROOT
ATOM      2  N   UNL     1      18.504   7.275  21.138  0.00  0.00    -0.301 NA
ATOM      4  C   UNL     1      16.331   7.710  20.370  0.00  0.00    +0.090 C 
ATOM      5  C   UNL     1      17.199   6.621  21.017  0.00  0.00    +0.097 C 
ATOM      6  C   UNL     1      17.016   9.033  20.753  0.00  0.00    +0.029 C 
ATOM      7  C   UNL     1      18.207   8.626  21.612  0.00  0.00    +0.085 C 
ENDROOT
BRANCH   4  10
ATOM      1  O   UNL     1      14.354   8.695  21.402  0.00  0.00    -0.439 OA
ATOM      3  N   UNL     1      14.043   6.612  20.564  0.00  0.00    -0.213 NA
ATOM     10  C   UNL     1      14.875   7.611  20.761  0.00  0.00    +0.201 A 
ATOM     13  C   UNL     1      13.056   8.339  21.630  0.00  0.00    +0.155 A 
ATOM     14  C   UNL     1      12.869   7.065  21.116  0.00  0.00    +0.110 A 
ATOM     15  C   UNL     1      12.072   9.091  22.260  0.00  0.00    +0.048 A 
ATOM     16  C   UNL     1      11.605   6.467  21.227  0.00  0.00    +0.031 A 
ATOM     17  C   UNL     1      10.817   8.481  22.363  0.00  0.00    +0.004 A 
ATOM     18  C   UNL     1      10.586   7.195  21.858  0.00  0.00    +0.002 A 
ENDBRANCH   4  10
BRANCH   2   8
ATOM      8  C   UNL     1      19.402   6.559  22.031  0.00  0.00    +0.087 C 
BRANCH   8   9
ATOM      9  C   UNL     1      20.675   6.070  21.319  0.00  0.00    -0.003 C 
ATOM     11  C   UNL     1      20.336   4.880  20.416  0.00  0.00    +0.008 C 
ATOM     12  C   UNL     1      21.344   7.170  20.490  0.00  0.00    +0.008 C 
ENDBRANCH   8   9
ENDBRANCH   2   8
TORSDOF 3
ENDMDL
MODEL 3
REMARK VINA RESULT:      -5.6      1.642      6.894
REMARK  Name = 56774399
REMARK  5 active torsions:
REMARK  status: ('A' for Active; 'I' for Inactive)
REMARK    1  A    between atoms: N_2  and  C_8
REMARK    2  A    between atoms: C_4  and  C_10
REMARK    3  A    between atoms: C_8  and  C_9
REMARK    4  A    between atoms: C_9  and  C_11
REMARK    5  A    between atoms: C_9  and  C_12
REMARK                            x       y       z     vdW  Elec       q    Type
REMARK                         _______ _______ _______ _____ _____    ______ ____
ROOT
ATOM      2  N   UNL     1      -3.891 -11.333  16.599  0.00  0.00    -0.301 NA
ATOM      4  C   UNL     1      -3.568 -11.487  14.281  0.00  0.00    +0.090 C 
ATOM      5  C   UNL     1      -4.634 -11.186  15.345  0.00  0.00    +0.097 C 
ATOM      6  C   UNL     1      -2.230 -11.161  14.966  0.00  0.00    +0.029 C 
ATOM      7  C   UNL     1      -2.609 -10.671  16.358  0.00  0.00    +0.085 C 
ENDROOT
BRANCH   4  10
ATOM      1  O   UNL     1      -5.023 -10.144  12.859  0.00  0.00    -0.439 OA
ATOM      3  N   UNL     1      -3.005 -10.634  11.950  0.00  0.00    -0.213 NA
ATOM     10  C   UNL     1      -3.812 -10.756  12.981  0.00  0.00    +0.201 A 
ATOM     13  C   UNL     1      -4.971  -9.577  11.618  0.00  0.00    +0.155 A 
ATOM     14  C   UNL     1      -3.735  -9.878  11.065  0.00  0.00    +0.110 A 
ATOM     15  C   UNL     1      -5.957  -8.826  10.990  0.00  0.00    +0.048 A 
ATOM     16  C   UNL     1      -3.433  -9.405   9.780  0.00  0.00    +0.031 A 
ATOM     17  C   UNL     1      -5.641  -8.361   9.709  0.00  0.00    +0.004 A 
ATOM     18  C   UNL     1      -4.404  -8.643   9.114  0.00  0.00    +0.002 A 
ENDBRANCH   4  10
BRANCH   2   8
ATOM      8  C   UNL     1      -4.602 -10.766  17.735  0.00  0.00    +0.087 C 
BRANCH   8   9
ATOM      9  C   UNL     1      -4.933 -11.818  18.806  0.00  0.00    -0.003 C 
ATOM     11  C   UNL     1      -3.653 -12.226  19.542  0.00  0.00    +0.008 C 
ATOM     12  C   UNL     1      -5.971 -11.323  19.816  0.00  0.00    +0.008 C 
ENDBRANCH   8   9
ENDBRANCH   2   8
TORSDOF 3
ENDMDL
MODEL 4
REMARK VINA RESULT:      -5.6     22.287     24.517
REMARK  Name = 56774399
REMARK  5 active torsions:
REMARK  status: ('A' for Active; 'I' for Inactive)
REMARK    1  A    between atoms: N_2  and  C_8
REMARK    2  A    between atoms: C_4  and  C_10
REMARK    3  A    between atoms: C_8  and  C_9
REMARK    4  A    between atoms: C_9  and  C_11
REMARK    5  A    between atoms: C_9  and  C_12
REMARK                            x       y       z     vdW  Elec       q    Type
REMARK                         _______ _______ _______ _____ _____    ______ ____
ROOT
ATOM      2  N   UNL     1      11.931   4.410   1.680  0.00  0.00    -0.301 NA
ATOM      4  C   UNL     1      10.303   5.267   3.135  0.00  0.00    +0.090 C 
ATOM      5  C   UNL     1      11.202   4.045   2.897  0.00  0.00    +0.097 C 
ATOM      6  C   UNL     1      11.030   6.428   2.435  0.00  0.00    +0.029 C 
ATOM      7  C   UNL     1      12.303   5.812   1.869  0.00  0.00    +0.085 C 
ENDROOT
BRANCH   4  10
ATOM      1  O   UNL     1      10.173   4.425   5.419  0.00  0.00    -0.439 OA
ATOM      3  N   UNL     1       9.582   6.600   5.180  0.00  0.00    -0.213 NA
ATOM     10  C   UNL     1       9.998   5.497   4.597  0.00  0.00    +0.201 A 
ATOM     13  C   UNL     1       9.832   4.907   6.650  0.00  0.00    +0.155 A 
ATOM     14  C   UNL     1       9.472   6.237   6.500  0.00  0.00    +0.110 A 
ATOM     15  C   UNL     1       9.834   4.218   7.857  0.00  0.00    +0.048 A 
ATOM     16  C   UNL     1       9.075   6.965   7.632  0.00  0.00    +0.031 A 
ATOM     17  C   UNL     1       9.437   4.958   8.977  0.00  0.00    +0.004 A 
ATOM     18  C   UNL     1       9.064   6.304   8.869  0.00  0.00    +0.002 A 
ENDBRANCH   4  10
BRANCH   2   8
ATOM      8  C   UNL     1      13.086   3.556   1.448  0.00  0.00    +0.087 C 
BRANCH   8   9
ATOM      9  C   UNL     1      13.328   3.286  -0.046  0.00  0.00    -0.003 C 
ATOM     11  C   UNL     1      12.051   3.583  -0.837  0.00  0.00    +0.008 C 
ATOM     12  C   UNL     1      14.487   4.109  -0.613  0.00  0.00    +0.008 C 
ENDBRANCH   8   9
ENDBRANCH   2   8
TORSDOF 3
ENDMDL
MODEL 5
REMARK VINA RESULT:      -5.5     26.848     28.186
REMARK  Name = 56774399
REMARK  5 active torsions:
REMARK  status: ('A' for Active; 'I' for Inactive)
REMARK    1  A    between atoms: N_2  and  C_8
REMARK    2  A    between atoms: C_4  and  C_10
REMARK    3  A    between atoms: C_8  and  C_9
REMARK    4  A    between atoms: C_9  and  C_11
REMARK    5  A    between atoms: C_9  and  C_12
REMARK                            x       y       z     vdW  Elec       q    Type
REMARK                         _______ _______ _______ _____ _____    ______ ____
ROOT
ATOM      2  N   UNL     1      11.300  10.814  21.530  0.00  0.00    -0.301 NA
ATOM      4  C   UNL     1      12.423   9.229  20.214  0.00  0.00    +0.090 C 
ATOM      5  C   UNL     1      12.589  10.610  20.863  0.00  0.00    +0.097 C 
ATOM      6  C   UNL     1      11.350   8.526  21.064  0.00  0.00    +0.029 C 
ATOM      7  C   UNL     1      10.992   9.527  22.155  0.00  0.00    +0.085 C 
ENDROOT
BRANCH   4  10
ATOM      1  O   UNL     1      14.720   8.858  20.938  0.00  0.00    -0.439 OA
ATOM      3  N   UNL     1      14.030   7.501  19.260  0.00  0.00    -0.213 NA
ATOM     10  C   UNL     1      13.727   8.477  20.088  0.00  0.00    +0.201 A 
ATOM     13  C   UNL     1      15.757   8.033  20.611  0.00  0.00    +0.155 A 
ATOM     14  C   UNL     1      15.331   7.204  19.584  0.00  0.00    +0.110 A 
ATOM     15  C   UNL     1      17.024   8.000  21.181  0.00  0.00    +0.048 A 
ATOM     16  C   UNL     1      16.223   6.254  19.064  0.00  0.00    +0.031 A 
ATOM     17  C   UNL     1      17.902   7.047  20.652  0.00  0.00    +0.004 A 
ATOM     18  C   UNL     1      17.511   6.191  19.614  0.00  0.00    +0.002 A 
ENDBRANCH   4  10
BRANCH   2   8
ATOM      8  C   UNL     1      11.341  11.902  22.494  0.00  0.00    +0.087 C 
BRANCH   8   9
ATOM      9  C   UNL     1      11.871  11.454  23.866  0.00  0.00    -0.003 C 
ATOM     11  C   UNL     1      13.259  12.054  24.105  0.00  0.00    +0.008 C 
ATOM     12  C   UNL     1      10.937  11.846  25.014  0.00  0.00    +0.008 C 
ENDBRANCH   8   9
ENDBRANCH   2   8
TORSDOF 3
ENDMDL
MODEL 6
REMARK VINA RESULT:      -5.4      3.035      5.173
REMARK  Name = 56774399
REMARK  5 active torsions:
REMARK  status: ('A' for Active; 'I' for Inactive)
REMARK    1  A    between atoms: N_2  and  C_8
REMARK    2  A    between atoms: C_4  and  C_10
REMARK    3  A    between atoms: C_8  and  C_9
REMARK    4  A    between atoms: C_9  and  C_11
REMARK    5  A    between atoms: C_9  and  C_12
REMARK                            x       y       z     vdW  Elec       q    Type
REMARK                         _______ _______ _______ _____ _____    ______ ____
ROOT
ATOM      2  N   UNL     1      -4.148 -11.520  16.971  0.00  0.00    -0.301 NA
ATOM      4  C   UNL     1      -5.925 -10.591  18.187  0.00  0.00    +0.090 C 
ATOM      5  C   UNL     1      -5.145 -10.452  16.872  0.00  0.00    +0.097 C 
ATOM      6  C   UNL     1      -5.727 -12.058  18.604  0.00  0.00    +0.029 C 
ATOM      7  C   UNL     1      -4.879 -12.672  17.497  0.00  0.00    +0.085 C 
ENDROOT
BRANCH   4  10
ATOM      1  O   UNL     1      -7.591  -9.045  17.305  0.00  0.00    -0.439 OA
ATOM      3  N   UNL     1      -8.433 -10.701  18.604  0.00  0.00    -0.213 NA
ATOM     10  C   UNL     1      -7.366 -10.152  18.067  0.00  0.00    +0.201 A 
ATOM     13  C   UNL     1      -8.945  -8.882  17.371  0.00  0.00    +0.155 A 
ATOM     14  C   UNL     1      -9.457  -9.896  18.165  0.00  0.00    +0.110 A 
ATOM     15  C   UNL     1      -9.706  -7.891  16.763  0.00  0.00    +0.048 A 
ATOM     16  C   UNL     1     -10.840  -9.950  18.390  0.00  0.00    +0.031 A 
ATOM     17  C   UNL     1     -11.084  -7.958  16.997  0.00  0.00    +0.004 A 
ATOM     18  C   UNL     1     -11.642  -8.965  17.794  0.00  0.00    +0.002 A 
ENDBRANCH   4  10
BRANCH   2   8
ATOM      8  C   UNL     1      -3.511 -11.804  15.694  0.00  0.00    +0.087 C 
BRANCH   8   9
ATOM      9  C   UNL     1      -2.660 -10.628  15.186  0.00  0.00    -0.003 C 
ATOM     11  C   UNL     1      -1.336 -10.579  15.954  0.00  0.00    +0.008 C 
ATOM     12  C   UNL     1      -2.379 -10.711  13.683  0.00  0.00    +0.008 C 
ENDBRANCH   8   9
ENDBRANCH   2   8
TORSDOF 3
ENDMDL
MODEL 7
REMARK VINA RESULT:      -5.4     22.054     24.657
REMARK  Name = 56774399
REMARK  5 active torsions:
REMARK  status: ('A' for Active; 'I' for Inactive)
REMARK    1  A    between atoms: N_2  and  C_8
REMARK    2  A    between atoms: C_4  and  C_10
REMARK    3  A    between atoms: C_8  and  C_9
REMARK    4  A    between atoms: C_9  and  C_11
REMARK    5  A    between atoms: C_9  and  C_12
REMARK                            x       y       z     vdW  Elec       q    Type
REMARK                         _______ _______ _______ _____ _____    ______ ____
ROOT
ATOM      2  N   UNL     1     -12.793  11.602  25.417  0.00  0.00    -0.301 NA
ATOM      4  C   UNL     1     -13.204  11.080  23.167  0.00  0.00    +0.090 C 
ATOM      5  C   UNL     1     -12.122  11.615  24.115  0.00  0.00    +0.097 C 
ATOM      6  C   UNL     1     -14.132  10.246  24.067  0.00  0.00    +0.029 C 
ATOM      7  C   UNL     1     -13.514  10.329  25.457  0.00  0.00    +0.085 C 
ENDROOT
BRANCH   4  10
ATOM      1  O   UNL     1     -12.828   8.991  21.969  0.00  0.00    -0.439 OA
ATOM      3  N   UNL     1     -11.971  10.827  20.955  0.00  0.00    -0.213 NA
ATOM     10  C   UNL     1     -12.634  10.339  21.980  0.00  0.00    +0.201 A 
ATOM     13  C   UNL     1     -12.224   8.590  20.813  0.00  0.00    +0.155 A 
ATOM     14  C   UNL     1     -11.702   9.716  20.194  0.00  0.00    +0.110 A 
ATOM     15  C   UNL     1     -12.131   7.297  20.312  0.00  0.00    +0.048 A 
ATOM     16  C   UNL     1     -11.023   9.568  18.976  0.00  0.00    +0.031 A 
ATOM     17  C   UNL     1     -11.452   7.166  19.096  0.00  0.00    +0.004 A 
ATOM     18  C   UNL     1     -10.908   8.277  18.439  0.00  0.00    +0.002 A 
ENDBRANCH   4  10
BRANCH   2   8
ATOM      8  C   UNL     1     -11.860  11.745  26.524  0.00  0.00    +0.087 C 
BRANCH   8   9
ATOM      9  C   UNL     1     -11.436  10.390  27.115  0.00  0.00    -0.003 C 
ATOM     11  C   UNL     1      -9.955  10.139  26.820  0.00  0.00    +0.008 C 
ATOM     12  C   UNL     1     -11.682  10.304  28.624  0.00  0.00    +0.008 C 
ENDBRANCH   8   9
ENDBRANCH   2   8
TORSDOF 3
ENDMDL
MODEL 8
REMARK VINA RESULT:      -5.2     20.645     22.051
REMARK  Name = 56774399
REMARK  5 active torsions:
REMARK  status: ('A' for Active; 'I' for Inactive)
REMARK    1  A    between atoms: N_2  and  C_8
REMARK    2  A    between atoms: C_4  and  C_10
REMARK    3  A    between atoms: C_8  and  C_9
REMARK    4  A    between atoms: C_9  and  C_11
REMARK    5  A    between atoms: C_9  and  C_12
REMARK                            x       y       z     vdW  Elec       q    Type
REMARK                         _______ _______ _______ _____ _____    ______ ____
ROOT
ATOM      2  N   UNL     1     -10.083  10.769  15.967  0.00  0.00    -0.301 NA
ATOM      4  C   UNL     1     -10.526   8.759  17.091  0.00  0.00    +0.090 C 
ATOM      5  C   UNL     1     -10.168  10.233  17.328  0.00  0.00    +0.097 C 
ATOM      6  C   UNL     1     -11.210   8.740  15.714  0.00  0.00    +0.029 C 
ATOM      7  C   UNL     1     -11.229  10.195  15.262  0.00  0.00    +0.085 C 
ENDROOT
BRANCH   4  10
ATOM      1  O   UNL     1     -12.694   8.293  18.104  0.00  0.00    -0.439 OA
ATOM      3  N   UNL     1     -10.916   7.536  19.289  0.00  0.00    -0.213 NA
ATOM     10  C   UNL     1     -11.342   8.163  18.215  0.00  0.00    +0.201 A 
ATOM     13  C   UNL     1     -13.167   7.680  19.229  0.00  0.00    +0.155 A 
ATOM     14  C   UNL     1     -12.077   7.218  19.951  0.00  0.00    +0.110 A 
ATOM     15  C   UNL     1     -14.494   7.528  19.613  0.00  0.00    +0.048 A 
ATOM     16  C   UNL     1     -12.301   6.546  21.161  0.00  0.00    +0.031 A 
ATOM     17  C   UNL     1     -14.701   6.855  20.822  0.00  0.00    +0.004 A 
ATOM     18  C   UNL     1     -13.627   6.373  21.583  0.00  0.00    +0.002 A 
ENDBRANCH   4  10
BRANCH   2   8
ATOM      8  C   UNL     1     -10.089  12.224  15.943  0.00  0.00    +0.087 C 
BRANCH   8   9
ATOM      9  C   UNL     1      -9.320  12.835  17.126  0.00  0.00    -0.003 C 
ATOM     11  C   UNL     1      -7.955  13.339  16.650  0.00  0.00    +0.008 C 
ATOM     12  C   UNL     1     -10.085  13.980  17.795  0.00  0.00    +0.008 C 
ENDBRANCH   8   9
ENDBRANCH   2   8
TORSDOF 3
ENDMDL
MODEL 9
REMARK VINA RESULT:      -5.1     23.476     25.476
REMARK  Name = 56774399
REMARK  5 active torsions:
REMARK  status: ('A' for Active; 'I' for Inactive)
REMARK    1  A    between atoms: N_2  and  C_8
REMARK    2  A    between atoms: C_4  and  C_10
REMARK    3  A    between atoms: C_8  and  C_9
REMARK    4  A    between atoms: C_9  and  C_11
REMARK    5  A    between atoms: C_9  and  C_12
REMARK                            x       y       z     vdW  Elec       q    Type
REMARK                         _______ _______ _______ _____ _____    ______ ____
ROOT
ATOM      2  N   UNL     1      12.111   3.570   0.405  0.00  0.00    -0.301 NA
ATOM      4  C   UNL     1      10.908   4.016   2.368  0.00  0.00    +0.090 C 
ATOM      5  C   UNL     1      12.320   3.711   1.848  0.00  0.00    +0.097 C 
ATOM      6  C   UNL     1      10.173   4.629   1.164  0.00  0.00    +0.029 C 
ATOM      7  C   UNL     1      11.207   4.663   0.046  0.00  0.00    +0.085 C 
ENDROOT
BRANCH   4  10
ATOM      1  O   UNL     1      10.044   4.502   4.595  0.00  0.00    -0.439 OA
ATOM      3  N   UNL     1      11.645   5.933   3.872  0.00  0.00    -0.213 NA
ATOM     10  C   UNL     1      10.912   4.873   3.613  0.00  0.00    +0.201 A 
ATOM     13  C   UNL     1      10.255   5.427   5.576  0.00  0.00    +0.155 A 
ATOM     14  C   UNL     1      11.236   6.301   5.131  0.00  0.00    +0.110 A 
ATOM     15  C   UNL     1       9.622   5.510   6.810  0.00  0.00    +0.048 A 
ATOM     16  C   UNL     1      11.636   7.354   5.966  0.00  0.00    +0.031 A 
ATOM     17  C   UNL     1      10.033   6.566   7.632  0.00  0.00    +0.004 A 
ATOM     18  C   UNL     1      11.019   7.471   7.220  0.00  0.00    +0.002 A 
ENDBRANCH   4  10
BRANCH   2   8
ATOM      8  C   UNL     1      13.359   3.614  -0.343  0.00  0.00    +0.087 C 
BRANCH   8   9
ATOM      9  C   UNL     1      13.143   3.956  -1.827  0.00  0.00    -0.003 C 
ATOM     11  C   UNL     1      14.455   4.458  -2.436  0.00  0.00    +0.008 C 
ATOM     12  C   UNL     1      12.623   2.765  -2.635  0.00  0.00    +0.008 C 
ENDBRANCH   8   9
ENDBRANCH   2   8
TORSDOF 3
ENDMDL
MODEL 10
REMARK VINA RESULT:      -5.1     20.656     21.876
REMARK  Name = 56774399
REMARK  5 active torsions:
REMARK  status: ('A' for Active; 'I' for Inactive)
REMARK    1  A    between atoms: N_2  and  C_8
REMARK    2  A    between atoms: C_4  and  C_10
REMARK    3  A    between atoms: C_8  and  C_9
REMARK    4  A    between atoms: C_9  and  C_11
REMARK    5  A    between atoms: C_9  and  C_12
REMARK                            x       y       z     vdW  Elec       q    Type
REMARK                         _______ _______ _______ _____ _____    ______ ____
ROOT
ATOM      2  N   UNL     1     -16.452   4.278  24.443  0.00  0.00    -0.301 NA
ATOM      4  C   UNL     1     -16.771   2.614  26.064  0.00  0.00    +0.090 C 
ATOM      5  C   UNL     1     -15.688   3.300  25.220  0.00  0.00    +0.097 C 
ATOM      6  C   UNL     1     -17.906   3.648  26.158  0.00  0.00    +0.029 C 
ATOM      7  C   UNL     1     -17.396   4.864  25.395  0.00  0.00    +0.085 C 
ENDROOT
BRANCH   4  10
ATOM      1  O   UNL     1     -15.512   2.998  28.116  0.00  0.00    -0.439 OA
ATOM      3  N   UNL     1     -16.426   0.932  27.943  0.00  0.00    -0.213 NA
ATOM     10  C   UNL     1     -16.254   2.114  27.393  0.00  0.00    +0.201 A 
ATOM     13  C   UNL     1     -15.184   2.298  29.240  0.00  0.00    +0.155 A 
ATOM     14  C   UNL     1     -15.746   1.035  29.132  0.00  0.00    +0.110 A 
ATOM     15  C   UNL     1     -14.428   2.738  30.320  0.00  0.00    +0.048 A 
ATOM     16  C   UNL     1     -15.550   0.114  30.172  0.00  0.00    +0.031 A 
ATOM     17  C   UNL     1     -14.243   1.809  31.349  0.00  0.00    +0.004 A 
ATOM     18  C   UNL     1     -14.792   0.522  31.278  0.00  0.00    +0.002 A 
ENDBRANCH   4  10
BRANCH   2   8
ATOM      8  C   UNL     1     -15.600   5.280  23.819  0.00  0.00    +0.087 C 
BRANCH   8   9
ATOM      9  C   UNL     1     -15.053   4.821  22.457  0.00  0.00    -0.003 C 
ATOM     11  C   UNL     1     -15.847   5.489  21.331  0.00  0.00    +0.008 C 
ATOM     12  C   UNL     1     -13.563   5.128  22.288  0.00  0.00    +0.008 C 
ENDBRANCH   8   9
ENDBRANCH   2   8
TORSDOF 3
ENDMDL
