MODEL 1
REMARK VINA RESULT:      -7.3      0.000      0.000
REMARK  Name = 40777463
REMARK  8 active torsions:
REMARK  status: ('A' for Active; 'I' for Inactive)
REMARK    1  A    between atoms: O_4  and  C_35
REMARK    2  A    between atoms: O_4  and  C_36
REMARK    3  A    between atoms: N_7  and  C_23
REMARK    4  A    between atoms: C_9  and  C_13
REMARK    5  A    between atoms: C_10  and  C_15
REMARK    6  A    between atoms: C_13  and  C_16
REMARK    7  A    between atoms: C_15  and  C_17
REMARK    8  A    between atoms: C_24  and  C_27
REMARK                            x       y       z     vdW  Elec       q    Type
REMARK                         _______ _______ _______ _____ _____    ______ ____
ROOT
ATOM      5  N   UNL     1     -14.227  -9.882  18.609  0.00  0.00    -0.316 NA
ATOM      9  C   UNL     1     -11.300  -9.560  18.801  0.00  0.00    +0.004 C 
ATOM     10  C   UNL     1     -12.133  -8.966  17.640  0.00  0.00    +0.012 C 
ATOM     11  C   UNL     1     -12.210  -9.743  20.029  0.00  0.00    +0.019 C 
ATOM     12  C   UNL     1     -13.420  -9.771  17.394  0.00  0.00    +0.085 C 
ATOM     14  C   UNL     1     -13.486 -10.515  19.698  0.00  0.00    +0.081 C 
ATOM     37  H   UNL     1     -15.065 -10.427  18.410  0.00  0.00    +0.122 HD
ENDROOT
BRANCH   9  13
ATOM     13  C   UNL     1     -10.587 -10.872  18.451  0.00  0.00    +0.100 C 
BRANCH  13  16
ATOM      2  O   UNL     1      -9.138 -11.076  20.321  0.00  0.00    -0.276 OA
ATOM      6  N   UNL     1      -8.132 -10.748  18.252  0.00  0.00    -0.298 N 
ATOM      7  N   UNL     1      -5.787 -10.638  16.558  0.00  0.00    -0.327 N 
ATOM     16  C   UNL     1      -9.227 -10.911  19.101  0.00  0.00    +0.216 C 
ATOM     18  C   UNL     1      -6.780 -10.770  18.807  0.00  0.00    +0.126 C 
ATOM     19  C   UNL     1      -8.238 -10.564  16.803  0.00  0.00    +0.126 C 
ATOM     20  C   UNL     1      -5.772 -11.368  17.830  0.00  0.00    +0.124 C 
ATOM     21  C   UNL     1      -6.999  -9.900  16.199  0.00  0.00    +0.124 C 
BRANCH   7  23
ATOM      1  F   UNL     1      -1.335 -10.573  13.292  0.00  0.00    -0.205 F 
ATOM     23  C   UNL     1      -4.664 -10.622  15.734  0.00  0.00    +0.030 A 
ATOM     25  C   UNL     1      -4.817 -10.612  14.347  0.00  0.00    +0.026 A 
ATOM     26  C   UNL     1      -3.387 -10.615  16.295  0.00  0.00    +0.026 A 
ATOM     28  C   UNL     1      -3.693 -10.596  13.522  0.00  0.00    +0.040 A 
ATOM     29  C   UNL     1      -2.263 -10.598  15.470  0.00  0.00    +0.040 A 
ATOM     30  C   UNL     1      -2.415 -10.589  14.084  0.00  0.00    +0.124 A 
ENDBRANCH   7  23
ENDBRANCH  13  16
ENDBRANCH   9  13
BRANCH  10  15
ATOM     15  C   UNL     1     -11.334  -8.821  16.345  0.00  0.00    +0.064 C 
BRANCH  15  17
ATOM      3  O   UNL     1     -11.544  -5.408  15.214  0.00  0.00    -0.354 OA
ATOM      8  N   UNL     1     -11.038  -6.399  16.047  0.00  0.00    -0.083 NA
ATOM     17  C   UNL     1     -11.643  -7.524  15.654  0.00  0.00    +0.085 A 
ATOM     22  C   UNL     1     -12.532  -7.306  14.586  0.00  0.00    +0.076 A 
ATOM     24  C   UNL     1     -12.432  -5.962  14.348  0.00  0.00    +0.167 A 
BRANCH  24  27
ATOM     27  C   UNL     1     -13.040  -5.055  13.419  0.00  0.00    +0.020 A 
ATOM     31  C   UNL     1     -12.243  -4.289  12.568  0.00  0.00    +0.015 A 
ATOM     32  C   UNL     1     -14.430  -4.937  13.367  0.00  0.00    +0.015 A 
ATOM     33  C   UNL     1     -12.836  -3.406  11.664  0.00  0.00    +0.046 A 
ATOM     34  C   UNL     1     -15.022  -4.055  12.463  0.00  0.00    +0.046 A 
ATOM     35  C   UNL     1     -14.225  -3.290  11.612  0.00  0.00    +0.120 A 
BRANCH  35   4
ATOM      4  O   UNL     1     -14.803  -2.430  10.728  0.00  0.00    -0.495 OA
ATOM     36  C   UNL     1     -14.743  -2.782   9.347  0.00  0.00    +0.277 C 
ENDBRANCH  35   4
ENDBRANCH  24  27
ENDBRANCH  15  17
ENDBRANCH  10  15
TORSDOF 7
ENDMDL
MODEL 2
REMARK VINA RESULT:      -7.3     23.015     25.110
REMARK  Name = 40777463
REMARK  8 active torsions:
REMARK  status: ('A' for Active; 'I' for Inactive)
REMARK    1  A    between atoms: O_4  and  C_35
REMARK    2  A    between atoms: O_4  and  C_36
REMARK    3  A    between atoms: N_7  and  C_23
REMARK    4  A    between atoms: C_9  and  C_13
REMARK    5  A    between atoms: C_10  and  C_15
REMARK    6  A    between atoms: C_13  and  C_16
REMARK    7  A    between atoms: C_15  and  C_17
REMARK    8  A    between atoms: C_24  and  C_27
REMARK                            x       y       z     vdW  Elec       q    Type
REMARK                         _______ _______ _______ _____ _____    ______ ____
ROOT
ATOM      5  N   UNL     1     -12.817  10.456  30.944  0.00  0.00    -0.316 NA
ATOM      9  C   UNL     1     -11.693   9.011  33.257  0.00  0.00    +0.004 C 
ATOM     10  C   UNL     1     -13.067   8.659  32.639  0.00  0.00    +0.012 C 
ATOM     11  C   UNL     1     -10.823   9.700  32.191  0.00  0.00    +0.019 C 
ATOM     12  C   UNL     1     -13.708   9.876  31.950  0.00  0.00    +0.085 C 
ATOM     14  C   UNL     1     -11.541  10.871  31.522  0.00  0.00    +0.081 C 
ATOM     37  H   UNL     1     -13.272  11.263  30.516  0.00  0.00    +0.122 HD
ENDROOT
BRANCH   9  13
ATOM     13  C   UNL     1     -11.779   9.868  34.526  0.00  0.00    +0.100 C 
BRANCH  13  16
ATOM      2  O   UNL     1     -12.012   8.343  36.331  0.00  0.00    -0.276 OA
ATOM      6  N   UNL     1      -9.914   9.295  36.034  0.00  0.00    -0.298 N 
ATOM      7  N   UNL     1      -7.093   9.469  36.659  0.00  0.00    -0.327 N 
ATOM     16  C   UNL     1     -11.256   9.095  35.710  0.00  0.00    +0.216 C 
ATOM     18  C   UNL     1      -9.333   8.586  37.171  0.00  0.00    +0.126 C 
ATOM     19  C   UNL     1      -9.014  10.179  35.290  0.00  0.00    +0.126 C 
ATOM     20  C   UNL     1      -7.861   8.253  36.946  0.00  0.00    +0.124 C 
ATOM     21  C   UNL     1      -7.806  10.626  36.116  0.00  0.00    +0.124 C 
BRANCH   7  23
ATOM      1  F   UNL     1      -1.683   9.707  37.741  0.00  0.00    -0.205 F 
ATOM     23  C   UNL     1      -5.728   9.529  36.932  0.00  0.00    +0.030 A 
ATOM     25  C   UNL     1      -5.189   8.763  37.967  0.00  0.00    +0.026 A 
ATOM     26  C   UNL     1      -4.900  10.354  36.172  0.00  0.00    +0.026 A 
ATOM     28  C   UNL     1      -3.823   8.823  38.240  0.00  0.00    +0.040 A 
ATOM     29  C   UNL     1      -3.534  10.414  36.445  0.00  0.00    +0.040 A 
ATOM     30  C   UNL     1      -2.995   9.649  37.479  0.00  0.00    +0.124 A 
ENDBRANCH   7  23
ENDBRANCH  13  16
ENDBRANCH   9  13
BRANCH  10  15
ATOM     15  C   UNL     1     -14.036   8.041  33.647  0.00  0.00    +0.064 C 
BRANCH  15  17
ATOM      3  O   UNL     1     -14.064   4.476  34.154  0.00  0.00    -0.354 OA
ATOM      8  N   UNL     1     -14.006   5.784  34.620  0.00  0.00    -0.083 NA
ATOM     17  C   UNL     1     -14.073   6.545  33.523  0.00  0.00    +0.085 A 
ATOM     22  C   UNL     1     -14.173   5.779  32.348  0.00  0.00    +0.076 A 
ATOM     24  C   UNL     1     -14.164   4.487  32.800  0.00  0.00    +0.167 A 
BRANCH  24  27
ATOM     27  C   UNL     1     -14.233   3.199  32.172  0.00  0.00    +0.020 A 
ATOM     31  C   UNL     1     -13.750   3.029  30.875  0.00  0.00    +0.015 A 
ATOM     32  C   UNL     1     -14.784   2.117  32.859  0.00  0.00    +0.015 A 
ATOM     33  C   UNL     1     -13.818   1.776  30.264  0.00  0.00    +0.046 A 
ATOM     34  C   UNL     1     -14.851   0.865  32.249  0.00  0.00    +0.046 A 
ATOM     35  C   UNL     1     -14.368   0.694  30.951  0.00  0.00    +0.120 A 
BRANCH  35   4
ATOM      4  O   UNL     1     -14.432  -0.528  30.356  0.00  0.00    -0.495 OA
ATOM     36  C   UNL     1     -13.374  -0.872  29.463  0.00  0.00    +0.277 C 
ENDBRANCH  35   4
ENDBRANCH  24  27
ENDBRANCH  15  17
ENDBRANCH  10  15
TORSDOF 7
ENDMDL
MODEL 3
REMARK VINA RESULT:      -7.2      3.589      9.508
REMARK  Name = 40777463
REMARK  8 active torsions:
REMARK  status: ('A' for Active; 'I' for Inactive)
REMARK    1  A    between atoms: O_4  and  C_35
REMARK    2  A    between atoms: O_4  and  C_36
REMARK    3  A    between atoms: N_7  and  C_23
REMARK    4  A    between atoms: C_9  and  C_13
REMARK    5  A    between atoms: C_10  and  C_15
REMARK    6  A    between atoms: C_13  and  C_16
REMARK    7  A    between atoms: C_15  and  C_17
REMARK    8  A    between atoms: C_24  and  C_27
REMARK                            x       y       z     vdW  Elec       q    Type
REMARK                         _______ _______ _______ _____ _____    ______ ____
ROOT
ATOM      5  N   UNL     1     -12.491 -13.054  18.018  0.00  0.00    -0.316 NA
ATOM      9  C   UNL     1     -10.916 -10.688  17.229  0.00  0.00    +0.004 C 
ATOM     10  C   UNL     1     -10.445 -11.680  18.318  0.00  0.00    +0.012 C 
ATOM     11  C   UNL     1     -11.886 -11.410  16.277  0.00  0.00    +0.019 C 
ATOM     12  C   UNL     1     -11.632 -12.385  18.996  0.00  0.00    +0.085 C 
ATOM     14  C   UNL     1     -13.014 -12.120  17.024  0.00  0.00    +0.081 C 
ATOM     37  H   UNL     1     -13.269 -13.502  18.503  0.00  0.00    +0.122 HD
ENDROOT
BRANCH   9  13
ATOM     13  C   UNL     1     -11.549  -9.406  17.783  0.00  0.00    +0.100 C 
BRANCH  13  16
ATOM      2  O   UNL     1      -9.618  -8.026  17.751  0.00  0.00    -0.276 OA
ATOM      6  N   UNL     1     -11.410  -7.342  16.440  0.00  0.00    -0.298 N 
ATOM      7  N   UNL     1     -12.573  -5.610  14.433  0.00  0.00    -0.327 N 
ATOM     16  C   UNL     1     -10.764  -8.201  17.329  0.00  0.00    +0.216 C 
ATOM     18  C   UNL     1     -10.717  -6.149  15.958  0.00  0.00    +0.126 C 
ATOM     19  C   UNL     1     -12.766  -7.557  15.931  0.00  0.00    +0.126 C 
ATOM     20  C   UNL     1     -11.121  -5.793  14.530  0.00  0.00    +0.124 C 
ATOM     21  C   UNL     1     -13.421  -6.269  15.428  0.00  0.00    +0.124 C 
BRANCH   7  23
ATOM      1  F   UNL     1     -14.755  -2.409  10.498  0.00  0.00    -0.205 F 
ATOM     23  C   UNL     1     -13.123  -4.802  13.440  0.00  0.00    +0.030 A 
ATOM     25  C   UNL     1     -14.479  -4.473  13.481  0.00  0.00    +0.026 A 
ATOM     26  C   UNL     1     -12.320  -4.323  12.405  0.00  0.00    +0.026 A 
ATOM     28  C   UNL     1     -15.030  -3.665  12.488  0.00  0.00    +0.040 A 
ATOM     29  C   UNL     1     -12.872  -3.515  11.412  0.00  0.00    +0.040 A 
ATOM     30  C   UNL     1     -14.226  -3.185  11.453  0.00  0.00    +0.124 A 
ENDBRANCH   7  23
ENDBRANCH  13  16
ENDBRANCH   9  13
BRANCH  10  15
ATOM     15  C   UNL     1      -9.536 -11.033  19.364  0.00  0.00    +0.064 C 
BRANCH  15  17
ATOM      3  O   UNL     1      -5.995 -10.555  18.919  0.00  0.00    -0.354 OA
ATOM      8  N   UNL     1      -7.138 -10.615  19.706  0.00  0.00    -0.083 NA
ATOM     17  C   UNL     1      -8.131 -10.893  18.855  0.00  0.00    +0.085 A 
ATOM     22  C   UNL     1      -7.677 -11.017  17.530  0.00  0.00    +0.076 A 
ATOM     24  C   UNL     1      -6.329 -10.797  17.625  0.00  0.00    +0.167 A 
BRANCH  24  27
ATOM     27  C   UNL     1      -5.244 -10.767  16.688  0.00  0.00    +0.020 A 
ATOM     31  C   UNL     1      -3.932 -10.925  17.135  0.00  0.00    +0.015 A 
ATOM     32  C   UNL     1      -5.500 -10.580  15.329  0.00  0.00    +0.015 A 
ATOM     33  C   UNL     1      -2.876 -10.896  16.223  0.00  0.00    +0.046 A 
ATOM     34  C   UNL     1      -4.444 -10.552  14.418  0.00  0.00    +0.046 A 
ATOM     35  C   UNL     1      -3.133 -10.710  14.865  0.00  0.00    +0.120 A 
BRANCH  35   4
ATOM      4  O   UNL     1      -2.103 -10.685  13.975  0.00  0.00    -0.495 OA
ATOM     36  C   UNL     1      -1.928 -11.836  13.151  0.00  0.00    +0.277 C 
ENDBRANCH  35   4
ENDBRANCH  24  27
ENDBRANCH  15  17
ENDBRANCH  10  15
TORSDOF 7
ENDMDL
MODEL 4
REMARK VINA RESULT:      -7.2     29.108     33.346
REMARK  Name = 40777463
REMARK  8 active torsions:
REMARK  status: ('A' for Active; 'I' for Inactive)
REMARK    1  A    between atoms: O_4  and  C_35
REMARK    2  A    between atoms: O_4  and  C_36
REMARK    3  A    between atoms: N_7  and  C_23
REMARK    4  A    between atoms: C_9  and  C_13
REMARK    5  A    between atoms: C_10  and  C_15
REMARK    6  A    between atoms: C_13  and  C_16
REMARK    7  A    between atoms: C_15  and  C_17
REMARK    8  A    between atoms: C_24  and  C_27
REMARK                            x       y       z     vdW  Elec       q    Type
REMARK                         _______ _______ _______ _____ _____    ______ ____
ROOT
ATOM      5  N   UNL     1      20.661   9.929  22.519  0.00  0.00    -0.316 NA
ATOM      9  C   UNL     1      21.378   7.525  20.965  0.00  0.00    +0.004 C 
ATOM     10  C   UNL     1      19.931   7.824  21.423  0.00  0.00    +0.012 C 
ATOM     11  C   UNL     1      22.162   8.847  20.882  0.00  0.00    +0.019 C 
ATOM     12  C   UNL     1      19.904   8.689  22.694  0.00  0.00    +0.085 C 
ATOM     14  C   UNL     1      22.055   9.669  22.165  0.00  0.00    +0.081 C 
ATOM     37  H   UNL     1      20.628  10.470  23.383  0.00  0.00    +0.122 HD
ENDROOT
BRANCH   9  13
ATOM     13  C   UNL     1      22.115   6.510  21.847  0.00  0.00    +0.100 C 
BRANCH  13  16
ATOM      2  O   UNL     1      22.167   5.202  19.867  0.00  0.00    -0.276 OA
ATOM      6  N   UNL     1      22.694   4.113  21.850  0.00  0.00    -0.298 N 
ATOM      7  N   UNL     1      23.669   1.803  23.297  0.00  0.00    -0.327 N 
ATOM     16  C   UNL     1      22.327   5.223  21.090  0.00  0.00    +0.216 C 
ATOM     18  C   UNL     1      22.913   2.828  21.190  0.00  0.00    +0.126 C 
ATOM     19  C   UNL     1      22.895   4.142  23.300  0.00  0.00    +0.126 C 
ATOM     20  C   UNL     1      23.998   2.007  21.883  0.00  0.00    +0.124 C 
ATOM     21  C   UNL     1      22.769   2.760  23.944  0.00  0.00    +0.124 C 
BRANCH   7  23
ATOM      1  F   UNL     1      25.665  -2.545  26.056  0.00  0.00    -0.205 F 
ATOM     23  C   UNL     1      24.172   0.706  23.993  0.00  0.00    +0.030 A 
ATOM     25  C   UNL     1      23.422   0.125  25.017  0.00  0.00    +0.026 A 
ATOM     26  C   UNL     1      25.426   0.188  23.667  0.00  0.00    +0.026 A 
ATOM     28  C   UNL     1      23.926  -0.972  25.713  0.00  0.00    +0.040 A 
ATOM     29  C   UNL     1      25.929  -0.910  24.364  0.00  0.00    +0.040 A 
ATOM     30  C   UNL     1      25.180  -1.490  25.387  0.00  0.00    +0.124 A 
ENDBRANCH   7  23
ENDBRANCH  13  16
ENDBRANCH   9  13
BRANCH  10  15
ATOM     15  C   UNL     1      19.091   6.561  21.615  0.00  0.00    +0.064 C 
BRANCH  15  17
ATOM      3  O   UNL     1      16.738   5.983  18.951  0.00  0.00    -0.354 OA
ATOM      8  N   UNL     1      17.959   5.773  19.580  0.00  0.00    -0.083 NA
ATOM     17  C   UNL     1      17.919   6.536  20.677  0.00  0.00    +0.085 A 
ATOM     22  C   UNL     1      16.709   7.242  20.790  0.00  0.00    +0.076 A 
ATOM     24  C   UNL     1      16.002   6.859  19.682  0.00  0.00    +0.167 A 
BRANCH  24  27
ATOM     27  C   UNL     1      14.708   7.175  19.153  0.00  0.00    +0.020 A 
ATOM     31  C   UNL     1      14.589   7.704  17.868  0.00  0.00    +0.015 A 
ATOM     32  C   UNL     1      13.565   6.953  19.924  0.00  0.00    +0.015 A 
ATOM     33  C   UNL     1      13.329   8.012  17.353  0.00  0.00    +0.046 A 
ATOM     34  C   UNL     1      12.306   7.260  19.409  0.00  0.00    +0.046 A 
ATOM     35  C   UNL     1      12.188   7.789  18.124  0.00  0.00    +0.120 A 
BRANCH  35   4
ATOM      4  O   UNL     1      10.959   8.087  17.621  0.00  0.00    -0.495 OA
ATOM     36  C   UNL     1      10.918   8.828  16.402  0.00  0.00    +0.277 C 
ENDBRANCH  35   4
ENDBRANCH  24  27
ENDBRANCH  15  17
ENDBRANCH  10  15
TORSDOF 7
ENDMDL
MODEL 5
REMARK VINA RESULT:      -7.1      3.181      6.668
REMARK  Name = 40777463
REMARK  8 active torsions:
REMARK  status: ('A' for Active; 'I' for Inactive)
REMARK    1  A    between atoms: O_4  and  C_35
REMARK    2  A    between atoms: O_4  and  C_36
REMARK    3  A    between atoms: N_7  and  C_23
REMARK    4  A    between atoms: C_9  and  C_13
REMARK    5  A    between atoms: C_10  and  C_15
REMARK    6  A    between atoms: C_13  and  C_16
REMARK    7  A    between atoms: C_15  and  C_17
REMARK    8  A    between atoms: C_24  and  C_27
REMARK                            x       y       z     vdW  Elec       q    Type
REMARK                         _______ _______ _______ _____ _____    ______ ____
ROOT
ATOM      5  N   UNL     1      -6.773 -14.083  16.944  0.00  0.00    -0.316 NA
ATOM      9  C   UNL     1      -4.642 -12.192  17.710  0.00  0.00    +0.004 C 
ATOM     10  C   UNL     1      -5.881 -12.459  18.598  0.00  0.00    +0.012 C 
ATOM     11  C   UNL     1      -4.400 -13.411  16.804  0.00  0.00    +0.019 C 
ATOM     12  C   UNL     1      -7.091 -12.912  17.762  0.00  0.00    +0.085 C 
ATOM     14  C   UNL     1      -5.656 -13.827  16.039  0.00  0.00    +0.081 C 
ATOM     37  H   UNL     1      -7.594 -14.348  16.400  0.00  0.00    +0.122 HD
ENDROOT
BRANCH   9  13
ATOM     13  C   UNL     1      -4.735 -10.906  16.880  0.00  0.00    +0.100 C 
BRANCH  13  16
ATOM      2  O   UNL     1      -2.397 -10.759  16.492  0.00  0.00    -0.276 OA
ATOM      6  N   UNL     1      -3.772 -10.673  14.621  0.00  0.00    -0.298 N 
ATOM      7  N   UNL     1      -4.159 -10.673  11.752  0.00  0.00    -0.327 N 
ATOM     16  C   UNL     1      -3.524 -10.775  15.990  0.00  0.00    +0.216 C 
ATOM     18  C   UNL     1      -2.651 -10.539  13.694  0.00  0.00    +0.126 C 
ATOM     19  C   UNL     1      -5.109 -10.704  14.026  0.00  0.00    +0.126 C 
ATOM     20  C   UNL     1      -2.934 -11.212  12.354  0.00  0.00    +0.124 C 
ATOM     21  C   UNL     1      -5.154 -10.064  12.637  0.00  0.00    +0.124 C 
BRANCH   7  23
ATOM      1  F   UNL     1      -4.916 -10.822   6.284  0.00  0.00    -0.205 F 
ATOM     23  C   UNL     1      -4.349 -10.711  10.373  0.00  0.00    +0.030 A 
ATOM     25  C   UNL     1      -4.675  -9.543   9.682  0.00  0.00    +0.026 A 
ATOM     26  C   UNL     1      -4.216 -11.915   9.682  0.00  0.00    +0.026 A 
ATOM     28  C   UNL     1      -4.866  -9.580   8.302  0.00  0.00    +0.040 A 
ATOM     29  C   UNL     1      -4.407 -11.952   8.302  0.00  0.00    +0.040 A 
ATOM     30  C   UNL     1      -4.732 -10.785   7.610  0.00  0.00    +0.124 A 
ENDBRANCH   7  23
ENDBRANCH  13  16
ENDBRANCH   9  13
BRANCH  10  15
ATOM     15  C   UNL     1      -6.254 -11.268  19.480  0.00  0.00    +0.064 C 
BRANCH  15  17
ATOM      3  O   UNL     1      -9.747 -10.430  19.228  0.00  0.00    -0.354 OA
ATOM      8  N   UNL     1      -8.684 -11.110  19.811  0.00  0.00    -0.083 NA
ATOM     17  C   UNL     1      -7.606 -10.724  19.122  0.00  0.00    +0.085 A 
ATOM     22  C   UNL     1      -7.925  -9.810  18.102  0.00  0.00    +0.076 A 
ATOM     24  C   UNL     1      -9.282  -9.659  18.212  0.00  0.00    +0.167 A 
BRANCH  24  27
ATOM     27  C   UNL     1     -10.271  -8.893  17.511  0.00  0.00    +0.020 A 
ATOM     31  C   UNL     1     -11.613  -9.268  17.568  0.00  0.00    +0.015 A 
ATOM     32  C   UNL     1      -9.891  -7.772  16.771  0.00  0.00    +0.015 A 
ATOM     33  C   UNL     1     -12.575  -8.523  16.886  0.00  0.00    +0.046 A 
ATOM     34  C   UNL     1     -10.853  -7.027  16.090  0.00  0.00    +0.046 A 
ATOM     35  C   UNL     1     -12.195  -7.402  16.147  0.00  0.00    +0.120 A 
BRANCH  35   4
ATOM      4  O   UNL     1     -13.134  -6.674  15.484  0.00  0.00    -0.495 OA
ATOM     36  C   UNL     1     -12.663  -5.646  14.614  0.00  0.00    +0.277 C 
ENDBRANCH  35   4
ENDBRANCH  24  27
ENDBRANCH  15  17
ENDBRANCH  10  15
TORSDOF 7
ENDMDL
MODEL 6
REMARK VINA RESULT:      -7.0     25.987     28.960
REMARK  Name = 40777463
REMARK  8 active torsions:
REMARK  status: ('A' for Active; 'I' for Inactive)
REMARK    1  A    between atoms: O_4  and  C_35
REMARK    2  A    between atoms: O_4  and  C_36
REMARK    3  A    between atoms: N_7  and  C_23
REMARK    4  A    between atoms: C_9  and  C_13
REMARK    5  A    between atoms: C_10  and  C_15
REMARK    6  A    between atoms: C_13  and  C_16
REMARK    7  A    between atoms: C_15  and  C_17
REMARK    8  A    between atoms: C_24  and  C_27
REMARK                            x       y       z     vdW  Elec       q    Type
REMARK                         _______ _______ _______ _____ _____    ______ ____
ROOT
ATOM      5  N   UNL     1       4.673   9.777  -4.469  0.00  0.00    -0.316 NA
ATOM      9  C   UNL     1       6.159   7.279  -4.976  0.00  0.00    +0.004 C 
ATOM     10  C   UNL     1       4.650   7.300  -4.636  0.00  0.00    +0.012 C 
ATOM     11  C   UNL     1       6.555   8.634  -5.588  0.00  0.00    +0.019 C 
ATOM     12  C   UNL     1       4.272   8.537  -3.804  0.00  0.00    +0.085 C 
ATOM     14  C   UNL     1       6.111   9.815  -4.727  0.00  0.00    +0.081 C 
ATOM     37  H   UNL     1       4.414  10.572  -3.885  0.00  0.00    +0.122 HD
ENDROOT
BRANCH   9  13
ATOM     13  C   UNL     1       7.063   6.935  -3.785  0.00  0.00    +0.100 C 
BRANCH  13  16
ATOM      2  O   UNL     1       7.660   5.074  -5.132  0.00  0.00    -0.276 OA
ATOM      6  N   UNL     1       8.797   5.313  -3.120  0.00  0.00    -0.298 N 
ATOM      7  N   UNL     1      10.913   4.559  -1.294  0.00  0.00    -0.327 N 
ATOM     16  C   UNL     1       7.862   5.691  -4.083  0.00  0.00    +0.216 C 
ATOM     18  C   UNL     1       9.607   4.116  -3.333  0.00  0.00    +0.126 C 
ATOM     19  C   UNL     1       9.043   6.053  -1.881  0.00  0.00    +0.126 C 
ATOM     20  C   UNL     1      11.001   4.253  -2.725  0.00  0.00    +0.124 C 
ATOM     21  C   UNL     1       9.690   5.191  -0.794  0.00  0.00    +0.124 C 
BRANCH   7  23
ATOM      1  F   UNL     1      15.035   3.227   2.130  0.00  0.00    -0.205 F 
ATOM     23  C   UNL     1      11.953   4.223  -0.430  0.00  0.00    +0.030 A 
ATOM     25  C   UNL     1      13.251   4.085  -0.922  0.00  0.00    +0.026 A 
ATOM     26  C   UNL     1      11.697   4.025   0.927  0.00  0.00    +0.026 A 
ATOM     28  C   UNL     1      14.292   3.749  -0.058  0.00  0.00    +0.040 A 
ATOM     29  C   UNL     1      12.738   3.688   1.791  0.00  0.00    +0.040 A 
ATOM     30  C   UNL     1      14.036   3.550   1.300  0.00  0.00    +0.124 A 
ENDBRANCH   7  23
ENDBRANCH  13  16
ENDBRANCH   9  13
BRANCH  10  15
ATOM     15  C   UNL     1       4.175   6.022  -3.945  0.00  0.00    +0.064 C 
BRANCH  15  17
ATOM      3  O   UNL     1       1.739   4.931  -6.363  0.00  0.00    -0.354 OA
ATOM      8  N   UNL     1       2.553   5.900  -5.788  0.00  0.00    -0.083 NA
ATOM     17  C   UNL     1       3.194   5.271  -4.799  0.00  0.00    +0.085 A 
ATOM     22  C   UNL     1       2.828   3.916  -4.703  0.00  0.00    +0.076 A 
ATOM     24  C   UNL     1       1.912   3.754  -5.708  0.00  0.00    +0.167 A 
BRANCH  24  27
ATOM     27  C   UNL     1       1.132   2.654  -6.193  0.00  0.00    +0.020 A 
ATOM     31  C   UNL     1       0.658   2.659  -7.505  0.00  0.00    +0.015 A 
ATOM     32  C   UNL     1       0.846   1.577  -5.352  0.00  0.00    +0.015 A 
ATOM     33  C   UNL     1      -0.101   1.587  -7.976  0.00  0.00    +0.046 A 
ATOM     34  C   UNL     1       0.087   0.506  -5.824  0.00  0.00    +0.046 A 
ATOM     35  C   UNL     1      -0.386   0.511  -7.136  0.00  0.00    +0.120 A 
BRANCH  35   4
ATOM      4  O   UNL     1      -1.125  -0.535  -7.597  0.00  0.00    -0.495 OA
ATOM     36  C   UNL     1      -1.762  -1.360  -6.622  0.00  0.00    +0.277 C 
ENDBRANCH  35   4
ENDBRANCH  24  27
ENDBRANCH  15  17
ENDBRANCH  10  15
TORSDOF 7
ENDMDL
MODEL 7
REMARK VINA RESULT:      -6.8     19.212     22.840
REMARK  Name = 40777463
REMARK  8 active torsions:
REMARK  status: ('A' for Active; 'I' for Inactive)
REMARK    1  A    between atoms: O_4  and  C_35
REMARK    2  A    between atoms: O_4  and  C_36
REMARK    3  A    between atoms: N_7  and  C_23
REMARK    4  A    between atoms: C_9  and  C_13
REMARK    5  A    between atoms: C_10  and  C_15
REMARK    6  A    between atoms: C_13  and  C_16
REMARK    7  A    between atoms: C_15  and  C_17
REMARK    8  A    between atoms: C_24  and  C_27
REMARK                            x       y       z     vdW  Elec       q    Type
REMARK                         _______ _______ _______ _____ _____    ______ ____
ROOT
ATOM      5  N   UNL     1      -5.274 -12.350  36.481  0.00  0.00    -0.316 NA
ATOM      9  C   UNL     1      -7.916 -11.116  36.928  0.00  0.00    +0.004 C 
ATOM     10  C   UNL     1      -6.676 -10.772  37.787  0.00  0.00    +0.012 C 
ATOM     11  C   UNL     1      -7.450 -11.632  35.556  0.00  0.00    +0.019 C 
ATOM     12  C   UNL     1      -5.672 -11.936  37.827  0.00  0.00    +0.085 C 
ATOM     14  C   UNL     1      -6.423 -12.758  35.676  0.00  0.00    +0.081 C 
ATOM     37  H   UNL     1      -4.617 -13.127  36.547  0.00  0.00    +0.122 HD
ENDROOT
BRANCH   9  13
ATOM     13  C   UNL     1      -8.876 -12.113  37.588  0.00  0.00    +0.100 C 
BRANCH  13  16
ATOM      2  O   UNL     1     -10.568 -10.706  38.478  0.00  0.00    -0.276 OA
ATOM      6  N   UNL     1     -11.159 -12.025  36.658  0.00  0.00    -0.298 N 
ATOM      7  N   UNL     1     -13.014 -12.789  34.572  0.00  0.00    -0.327 N 
ATOM     16  C   UNL     1     -10.272 -11.544  37.623  0.00  0.00    +0.216 C 
ATOM     18  C   UNL     1     -12.532 -11.526  36.629  0.00  0.00    +0.126 C 
ATOM     19  C   UNL     1     -10.803 -13.011  35.636  0.00  0.00    +0.126 C 
ATOM     20  C   UNL     1     -13.089 -11.470  35.209  0.00  0.00    +0.124 C 
ATOM     21  C   UNL     1     -12.021 -13.743  35.070  0.00  0.00    +0.124 C 
BRANCH   7  23
ATOM      1  F   UNL     1     -16.485 -14.153  30.499  0.00  0.00    -0.205 F 
ATOM     23  C   UNL     1     -13.890 -13.133  33.544  0.00  0.00    +0.030 A 
ATOM     25  C   UNL     1     -14.644 -12.145  32.911  0.00  0.00    +0.026 A 
ATOM     26  C   UNL     1     -14.012 -14.465  33.148  0.00  0.00    +0.026 A 
ATOM     28  C   UNL     1     -15.521 -12.489  31.883  0.00  0.00    +0.040 A 
ATOM     29  C   UNL     1     -14.889 -14.808  32.120  0.00  0.00    +0.040 A 
ATOM     30  C   UNL     1     -15.643 -13.821  31.487  0.00  0.00    +0.124 A 
ENDBRANCH   7  23
ENDBRANCH  13  16
ENDBRANCH   9  13
BRANCH  10  15
ATOM     15  C   UNL     1      -7.036 -10.324  39.204  0.00  0.00    +0.064 C 
BRANCH  15  17
ATOM      3  O   UNL     1      -6.998  -6.725  39.075  0.00  0.00    -0.354 OA
ATOM      8  N   UNL     1      -6.395  -7.968  38.921  0.00  0.00    -0.083 NA
ATOM     17  C   UNL     1      -7.338  -8.854  39.253  0.00  0.00    +0.085 A 
ATOM     22  C   UNL     1      -8.545  -8.235  39.622  0.00  0.00    +0.076 A 
ATOM     24  C   UNL     1      -8.279  -6.898  39.493  0.00  0.00    +0.167 A 
BRANCH  24  27
ATOM     27  C   UNL     1      -9.032  -5.695  39.696  0.00  0.00    +0.020 A 
ATOM     31  C   UNL     1      -8.379  -4.465  39.758  0.00  0.00    +0.015 A 
ATOM     32  C   UNL     1     -10.420  -5.756  39.834  0.00  0.00    +0.015 A 
ATOM     33  C   UNL     1      -9.112  -3.294  39.957  0.00  0.00    +0.046 A 
ATOM     34  C   UNL     1     -11.152  -4.586  40.032  0.00  0.00    +0.046 A 
ATOM     35  C   UNL     1     -10.499  -3.355  40.093  0.00  0.00    +0.120 A 
BRANCH  35   4
ATOM      4  O   UNL     1     -11.215  -2.213  40.285  0.00  0.00    -0.495 OA
ATOM     36  C   UNL     1     -12.228  -2.243  41.288  0.00  0.00    +0.277 C 
ENDBRANCH  35   4
ENDBRANCH  24  27
ENDBRANCH  15  17
ENDBRANCH  10  15
TORSDOF 7
ENDMDL
MODEL 8
REMARK VINA RESULT:      -6.8     29.161     33.547
REMARK  Name = 40777463
REMARK  8 active torsions:
REMARK  status: ('A' for Active; 'I' for Inactive)
REMARK    1  A    between atoms: O_4  and  C_35
REMARK    2  A    between atoms: O_4  and  C_36
REMARK    3  A    between atoms: N_7  and  C_23
REMARK    4  A    between atoms: C_9  and  C_13
REMARK    5  A    between atoms: C_10  and  C_15
REMARK    6  A    between atoms: C_13  and  C_16
REMARK    7  A    between atoms: C_15  and  C_17
REMARK    8  A    between atoms: C_24  and  C_27
REMARK                            x       y       z     vdW  Elec       q    Type
REMARK                         _______ _______ _______ _____ _____    ______ ____
ROOT
ATOM      5  N   UNL     1      21.156   9.401  21.527  0.00  0.00    -0.316 NA
ATOM      9  C   UNL     1      22.135   6.820  20.485  0.00  0.00    +0.004 C 
ATOM     10  C   UNL     1      20.630   7.150  20.620  0.00  0.00    +0.012 C 
ATOM     11  C   UNL     1      22.929   8.133  20.364  0.00  0.00    +0.019 C 
ATOM     12  C   UNL     1      20.372   8.182  21.731  0.00  0.00    +0.085 C 
ATOM     14  C   UNL     1      22.589   9.123  21.477  0.00  0.00    +0.081 C 
ATOM     37  H   UNL     1      20.965  10.056  22.285  0.00  0.00    +0.122 HD
ENDROOT
BRANCH   9  13
ATOM     13  C   UNL     1      22.689   5.952  21.621  0.00  0.00    +0.100 C 
BRANCH  13  16
ATOM      2  O   UNL     1      23.645   4.632  19.895  0.00  0.00    -0.276 OA
ATOM      6  N   UNL     1      23.297   3.583  21.939  0.00  0.00    -0.298 N 
ATOM      7  N   UNL     1      23.629   1.330  23.726  0.00  0.00    -0.327 N 
ATOM     16  C   UNL     1      23.256   4.670  21.065  0.00  0.00    +0.216 C 
ATOM     18  C   UNL     1      23.828   2.304  21.474  0.00  0.00    +0.126 C 
ATOM     19  C   UNL     1      22.846   3.633  23.331  0.00  0.00    +0.126 C 
ATOM     20  C   UNL     1      24.533   1.538  22.590  0.00  0.00    +0.124 C 
ATOM     21  C   UNL     1      22.503   2.251  23.893  0.00  0.00    +0.124 C 
BRANCH   7  23
ATOM      1  F   UNL     1      24.385  -2.903  27.191  0.00  0.00    -0.205 F 
ATOM     23  C   UNL     1      23.820   0.262  24.600  0.00  0.00    +0.030 A 
ATOM     25  C   UNL     1      25.071  -0.350  24.691  0.00  0.00    +0.026 A 
ATOM     26  C   UNL     1      22.761  -0.196  25.384  0.00  0.00    +0.026 A 
ATOM     28  C   UNL     1      25.262  -1.418  25.566  0.00  0.00    +0.040 A 
ATOM     29  C   UNL     1      22.952  -1.264  26.259  0.00  0.00    +0.040 A 
ATOM     30  C   UNL     1      24.202  -1.876  26.350  0.00  0.00    +0.124 A 
ENDBRANCH   7  23
ENDBRANCH  13  16
ENDBRANCH   9  13
BRANCH  10  15
ATOM     15  C   UNL     1      19.762   5.909  20.828  0.00  0.00    +0.064 C 
BRANCH  15  17
ATOM      3  O   UNL     1      16.571   6.312  19.207  0.00  0.00    -0.354 OA
ATOM      8  N   UNL     1      17.921   5.978  19.201  0.00  0.00    -0.083 NA
ATOM     17  C   UNL     1      18.331   6.174  20.458  0.00  0.00    +0.085 A 
ATOM     22  C   UNL     1      17.295   6.628  21.292  0.00  0.00    +0.076 A 
ATOM     24  C   UNL     1      16.211   6.697  20.458  0.00  0.00    +0.167 A 
BRANCH  24  27
ATOM     27  C   UNL     1      14.837   7.075  20.620  0.00  0.00    +0.020 A 
ATOM     31  C   UNL     1      14.442   7.802  21.742  0.00  0.00    +0.015 A 
ATOM     32  C   UNL     1      13.896   6.714  19.654  0.00  0.00    +0.015 A 
ATOM     33  C   UNL     1      13.104   8.169  21.899  0.00  0.00    +0.046 A 
ATOM     34  C   UNL     1      12.560   7.082  19.812  0.00  0.00    +0.046 A 
ATOM     35  C   UNL     1      12.164   7.810  20.934  0.00  0.00    +0.120 A 
BRANCH  35   4
ATOM      4  O   UNL     1      10.860   8.170  21.086  0.00  0.00    -0.495 OA
ATOM     36  C   UNL     1      10.525   8.915  22.256  0.00  0.00    +0.277 C 
ENDBRANCH  35   4
ENDBRANCH  24  27
ENDBRANCH  15  17
ENDBRANCH  10  15
TORSDOF 7
ENDMDL
MODEL 9
REMARK VINA RESULT:      -6.8      5.182      9.750
REMARK  Name = 40777463
REMARK  8 active torsions:
REMARK  status: ('A' for Active; 'I' for Inactive)
REMARK    1  A    between atoms: O_4  and  C_35
REMARK    2  A    between atoms: O_4  and  C_36
REMARK    3  A    between atoms: N_7  and  C_23
REMARK    4  A    between atoms: C_9  and  C_13
REMARK    5  A    between atoms: C_10  and  C_15
REMARK    6  A    between atoms: C_13  and  C_16
REMARK    7  A    between atoms: C_15  and  C_17
REMARK    8  A    between atoms: C_24  and  C_27
REMARK                            x       y       z     vdW  Elec       q    Type
REMARK                         _______ _______ _______ _____ _____    ______ ____
ROOT
ATOM      5  N   UNL     1      -3.758 -14.150  14.468  0.00  0.00    -0.316 NA
ATOM      9  C   UNL     1      -2.498 -11.650  13.538  0.00  0.00    +0.004 C 
ATOM     10  C   UNL     1      -2.653 -12.001  15.036  0.00  0.00    +0.012 C 
ATOM     11  C   UNL     1      -2.498 -12.950  12.714  0.00  0.00    +0.019 C 
ATOM     12  C   UNL     1      -3.849 -12.937  15.280  0.00  0.00    +0.085 C 
ATOM     14  C   UNL     1      -3.693 -13.846  13.041  0.00  0.00    +0.081 C 
ATOM     37  H   UNL     1      -4.570 -14.740  14.650  0.00  0.00    +0.122 HD
ENDROOT
BRANCH   9  13
ATOM     13  C   UNL     1      -3.557 -10.673  13.012  0.00  0.00    +0.100 C 
BRANCH  13  16
ATOM      2  O   UNL     1      -1.897 -10.034  11.440  0.00  0.00    -0.276 OA
ATOM      6  N   UNL     1      -4.101  -9.559  10.880  0.00  0.00    -0.298 N 
ATOM      7  N   UNL     1      -6.107  -8.677   8.989  0.00  0.00    -0.327 N 
ATOM     16  C   UNL     1      -3.100 -10.064  11.710  0.00  0.00    +0.216 C 
ATOM     18  C   UNL     1      -3.739  -8.949   9.603  0.00  0.00    +0.126 C 
ATOM     19  C   UNL     1      -5.530  -9.606  11.197  0.00  0.00    +0.126 C 
ATOM     20  C   UNL     1      -4.806  -9.180   8.536  0.00  0.00    +0.124 C 
ATOM     21  C   UNL     1      -6.341  -8.560  10.429  0.00  0.00    +0.124 C 
BRANCH   7  23
ATOM      1  F   UNL     1      -9.955  -7.136   5.340  0.00  0.00    -0.205 F 
ATOM     23  C   UNL     1      -7.078  -8.288   8.068  0.00  0.00    +0.030 A 
ATOM     25  C   UNL     1      -7.119  -8.881   6.806  0.00  0.00    +0.026 A 
ATOM     26  C   UNL     1      -8.008  -7.307   8.408  0.00  0.00    +0.026 A 
ATOM     28  C   UNL     1      -8.090  -8.492   5.884  0.00  0.00    +0.040 A 
ATOM     29  C   UNL     1      -8.980  -6.918   7.487  0.00  0.00    +0.040 A 
ATOM     30  C   UNL     1      -9.022  -7.510   6.225  0.00  0.00    +0.124 A 
ENDBRANCH   7  23
ENDBRANCH  13  16
ENDBRANCH   9  13
BRANCH  10  15
ATOM     15  C   UNL     1      -2.745 -10.767  15.933  0.00  0.00    +0.064 C 
BRANCH  15  17
ATOM      3  O   UNL     1      -5.403 -11.140  18.335  0.00  0.00    -0.354 OA
ATOM      8  N   UNL     1      -4.096 -11.340  17.905  0.00  0.00    -0.083 NA
ATOM     17  C   UNL     1      -4.031 -10.749  16.708  0.00  0.00    +0.085 A 
ATOM     22  C   UNL     1      -5.254 -10.164  16.335  0.00  0.00    +0.076 A 
ATOM     24  C   UNL     1      -6.082 -10.438  17.391  0.00  0.00    +0.167 A 
BRANCH  24  27
ATOM     27  C   UNL     1      -7.453 -10.153  17.697  0.00  0.00    +0.020 A 
ATOM     31  C   UNL     1      -8.129 -10.917  18.649  0.00  0.00    +0.015 A 
ATOM     32  C   UNL     1      -8.113  -9.112  17.042  0.00  0.00    +0.015 A 
ATOM     33  C   UNL     1      -9.464 -10.639  18.946  0.00  0.00    +0.046 A 
ATOM     34  C   UNL     1      -9.447  -8.835  17.340  0.00  0.00    +0.046 A 
ATOM     35  C   UNL     1     -10.122  -9.599  18.292  0.00  0.00    +0.120 A 
BRANCH  35   4
ATOM      4  O   UNL     1     -11.424  -9.327  18.583  0.00  0.00    -0.495 OA
ATOM     36  C   UNL     1     -12.345 -10.415  18.518  0.00  0.00    +0.277 C 
ENDBRANCH  35   4
ENDBRANCH  24  27
ENDBRANCH  15  17
ENDBRANCH  10  15
TORSDOF 7
ENDMDL
MODEL 10
REMARK VINA RESULT:      -6.7     23.342     27.616
REMARK  Name = 40777463
REMARK  8 active torsions:
REMARK  status: ('A' for Active; 'I' for Inactive)
REMARK    1  A    between atoms: O_4  and  C_35
REMARK    2  A    between atoms: O_4  and  C_36
REMARK    3  A    between atoms: N_7  and  C_23
REMARK    4  A    between atoms: C_9  and  C_13
REMARK    5  A    between atoms: C_10  and  C_15
REMARK    6  A    between atoms: C_13  and  C_16
REMARK    7  A    between atoms: C_15  and  C_17
REMARK    8  A    between atoms: C_24  and  C_27
REMARK                            x       y       z     vdW  Elec       q    Type
REMARK                         _______ _______ _______ _____ _____    ______ ____
ROOT
ATOM      5  N   UNL     1       6.748   9.857  -0.565  0.00  0.00    -0.316 NA
ATOM      9  C   UNL     1       3.832   9.526  -0.870  0.00  0.00    +0.004 C 
ATOM     10  C   UNL     1       4.817   9.392  -2.055  0.00  0.00    +0.012 C 
ATOM     11  C   UNL     1       4.581   9.231   0.442  0.00  0.00    +0.019 C 
ATOM     12  C   UNL     1       6.097  10.214  -1.826  0.00  0.00    +0.085 C 
ATOM     14  C   UNL     1       5.861  10.054   0.580  0.00  0.00    +0.081 C 
ATOM     37  H   UNL     1       7.585  10.427  -0.444  0.00  0.00    +0.122 HD
ENDROOT
BRANCH   9  13
ATOM     13  C   UNL     1       3.122  10.883  -0.797  0.00  0.00    +0.100 C 
BRANCH  13  16
ATOM      2  O   UNL     1       1.049  10.608  -1.920  0.00  0.00    -0.276 OA
ATOM      6  N   UNL     1       0.984  10.618   0.403  0.00  0.00    -0.298 N 
ATOM      7  N   UNL     1      -0.420  10.241   2.906  0.00  0.00    -0.327 N 
ATOM     16  C   UNL     1       1.627  10.689  -0.833  0.00  0.00    +0.216 C 
ATOM     18  C   UNL     1      -0.465  10.435   0.452  0.00  0.00    +0.126 C 
ATOM     19  C   UNL     1       1.674  10.704   1.692  0.00  0.00    +0.126 C 
ATOM     20  C   UNL     1      -0.896   9.618   1.666  0.00  0.00    +0.124 C 
ATOM     21  C   UNL     1       0.745  11.124   2.833  0.00  0.00    +0.124 C 
BRANCH   7  23
ATOM      1  F   UNL     1      -3.051   9.380   7.684  0.00  0.00    -0.205 F 
ATOM     23  C   UNL     1      -1.084  10.023   4.111  0.00  0.00    +0.030 A 
ATOM     25  C   UNL     1      -2.161   9.139   4.164  0.00  0.00    +0.026 A 
ATOM     26  C   UNL     1      -0.672  10.690   5.265  0.00  0.00    +0.026 A 
ATOM     28  C   UNL     1      -2.826   8.921   5.371  0.00  0.00    +0.040 A 
ATOM     29  C   UNL     1      -1.336  10.473   6.471  0.00  0.00    +0.040 A 
ATOM     30  C   UNL     1      -2.413   9.589   6.525  0.00  0.00    +0.124 A 
ENDBRANCH   7  23
ENDBRANCH  13  16
ENDBRANCH   9  13
BRANCH  10  15
ATOM     15  C   UNL     1       4.185   9.747  -3.401  0.00  0.00    +0.064 C 
BRANCH  15  17
ATOM      3  O   UNL     1       1.859   7.542  -5.044  0.00  0.00    -0.354 OA
ATOM      8  N   UNL     1       2.309   8.806  -4.680  0.00  0.00    -0.083 NA
ATOM     17  C   UNL     1       3.418   8.587  -3.968  0.00  0.00    +0.085 A 
ATOM     22  C   UNL     1       3.714   7.218  -3.850  0.00  0.00    +0.076 A 
ATOM     24  C   UNL     1       2.705   6.605  -4.544  0.00  0.00    +0.167 A 
BRANCH  24  27
ATOM     27  C   UNL     1       2.368   5.244  -4.840  0.00  0.00    +0.020 A 
ATOM     31  C   UNL     1       1.177   4.700  -4.359  0.00  0.00    +0.015 A 
ATOM     32  C   UNL     1       3.231   4.462  -5.609  0.00  0.00    +0.015 A 
ATOM     33  C   UNL     1       0.849   3.374  -4.647  0.00  0.00    +0.046 A 
ATOM     34  C   UNL     1       2.902   3.138  -5.897  0.00  0.00    +0.046 A 
ATOM     35  C   UNL     1       1.711   2.594  -5.416  0.00  0.00    +0.120 A 
BRANCH  35   4
ATOM      4  O   UNL     1       1.389   1.302  -5.699  0.00  0.00    -0.495 OA
ATOM     36  C   UNL     1       0.068   1.051  -6.174  0.00  0.00    +0.277 C 
ENDBRANCH  35   4
ENDBRANCH  24  27
ENDBRANCH  15  17
ENDBRANCH  10  15
TORSDOF 7
ENDMDL
