MODEL 1
REMARK VINA RESULT:      -7.4      0.000      0.000
REMARK  Name = 26741971
REMARK  8 active torsions:
REMARK  status: ('A' for Active; 'I' for Inactive)
REMARK    1  A    between atoms: O_1  and  C_11
REMARK    2  A    between atoms: O_4  and  C_25
REMARK    3  A    between atoms: O_4  and  C_26
REMARK    4  A    between atoms: N_7  and  C_10
REMARK    5  A    between atoms: N_8  and  C_19
REMARK    6  A    between atoms: C_17  and  C_18
REMARK    7  A    between atoms: C_19  and  C_22
REMARK    8  A    between atoms: C_26  and  C_27
REMARK                            x       y       z     vdW  Elec       q    Type
REMARK                         _______ _______ _______ _____ _____    ______ ____
ROOT
ATOM      3  O   UNL     1      14.929   7.166  18.456  0.00  0.00    -0.270 OA
ATOM      7  N   UNL     1      14.329   7.292  20.692  0.00  0.00    -0.305 N 
ATOM     17  C   UNL     1      15.217   7.104  19.648  0.00  0.00    +0.244 C 
ATOM     28  H   UNL     1      14.636   7.216  21.655  0.00  0.00    +0.149 HD
ENDROOT
BRANCH   7  10
ATOM      2  O   UNL     1      14.791  10.142  21.841  0.00  0.00    -0.253 OA
ATOM      6  N   UNL     1      12.517   9.844  21.489  0.00  0.00    -0.284 N 
ATOM      8  N   UNL     1      13.326  10.908  23.437  0.00  0.00    -0.300 N 
ATOM     10  C   UNL     1      12.925   7.590  20.469  0.00  0.00    +0.119 C 
ATOM     11  C   UNL     1      12.094   6.944  21.593  0.00  0.00    +0.136 C 
ATOM     12  C   UNL     1      10.663   7.472  21.751  0.00  0.00    +0.035 C 
ATOM     13  C   UNL     1      12.737   9.098  20.250  0.00  0.00    +0.134 C 
ATOM     14  C   UNL     1      10.576   8.751  22.592  0.00  0.00    +0.022 C 
ATOM     15  C   UNL     1      11.113   9.991  21.889  0.00  0.00    +0.109 C 
ATOM     16  C   UNL     1      13.627  10.292  22.227  0.00  0.00    +0.302 C 
ATOM     30  H   UNL     1      12.379  10.922  23.792  0.00  0.00    +0.150 HD
BRANCH  11   1
ATOM      1  O   UNL     1      12.020   5.544  21.297  0.00  0.00    -0.390 OA
ATOM     29  H   UNL     1      11.079   5.302  21.250  0.00  0.00    +0.210 HD
ENDBRANCH  11   1
BRANCH   8  19
ATOM     19  C   UNL     1      14.352  11.412  24.321  0.00  0.00    +0.102 C 
ATOM     22  C   UNL     1      13.822  12.515  25.214  0.00  0.00    +0.024 C 
ENDBRANCH   8  19
ENDBRANCH   7  10
BRANCH  17  18
ATOM     18  C   UNL     1      16.613   6.780  20.042  0.00  0.00    +0.037 A 
ATOM     20  C   UNL     1      17.346   5.847  19.308  0.00  0.00    +0.016 A 
ATOM     21  C   UNL     1      17.190   7.407  21.148  0.00  0.00    +0.016 A 
ATOM     23  C   UNL     1      18.655   5.541  19.679  0.00  0.00    +0.046 A 
ATOM     24  C   UNL     1      18.498   7.101  21.518  0.00  0.00    +0.046 A 
ATOM     25  C   UNL     1      19.231   6.168  20.784  0.00  0.00    +0.121 A 
BRANCH  25   4
ATOM      4  O   UNL     1      20.509   5.870  21.147  0.00  0.00    -0.483 OA
BRANCH   4  26
ATOM     26  C   UNL     1      21.172   4.844  20.409  0.00  0.00    +0.324 C 
BRANCH  26  27
ATOM      5  O   UNL     1      21.713   3.945  22.586  0.00  0.00    -0.272 OA
ATOM      9  N   UNL     1      22.351   2.775  20.710  0.00  0.00    -0.327 N 
ATOM     27  C   UNL     1      21.759   3.833  21.364  0.00  0.00    +0.248 C 
ATOM     31  H   UNL     1      22.374   2.707  19.697  0.00  0.00    +0.145 HD
ATOM     32  H   UNL     1      22.787   2.020  21.228  0.00  0.00    +0.145 HD
ENDBRANCH  26  27
ENDBRANCH   4  26
ENDBRANCH  25   4
ENDBRANCH  17  18
TORSDOF 7
ENDMDL
MODEL 2
REMARK VINA RESULT:      -6.4     17.257     20.030
REMARK  Name = 26741971
REMARK  8 active torsions:
REMARK  status: ('A' for Active; 'I' for Inactive)
REMARK    1  A    between atoms: O_1  and  C_11
REMARK    2  A    between atoms: O_4  and  C_25
REMARK    3  A    between atoms: O_4  and  C_26
REMARK    4  A    between atoms: N_7  and  C_10
REMARK    5  A    between atoms: N_8  and  C_19
REMARK    6  A    between atoms: C_17  and  C_18
REMARK    7  A    between atoms: C_19  and  C_22
REMARK    8  A    between atoms: C_26  and  C_27
REMARK                            x       y       z     vdW  Elec       q    Type
REMARK                         _______ _______ _______ _____ _____    ______ ____
ROOT
ATOM      3  O   UNL     1      13.800   7.706   3.693  0.00  0.00    -0.270 OA
ATOM      7  N   UNL     1      13.370   5.610   2.801  0.00  0.00    -0.305 N 
ATOM     17  C   UNL     1      13.160   6.658   3.679  0.00  0.00    +0.244 C 
ATOM     28  H   UNL     1      12.809   4.768   2.853  0.00  0.00    +0.149 HD
ENDROOT
BRANCH   7  10
ATOM      2  O   UNL     1      11.228   6.484   0.726  0.00  0.00    -0.253 OA
ATOM      6  N   UNL     1      13.223   6.087  -0.391  0.00  0.00    -0.284 N 
ATOM      8  N   UNL     1      11.156   5.367  -1.281  0.00  0.00    -0.300 N 
ATOM     10  C   UNL     1      14.402   5.651   1.779  0.00  0.00    +0.119 C 
ATOM     11  C   UNL     1      14.701   4.214   1.314  0.00  0.00    +0.136 C 
ATOM     12  C   UNL     1      15.457   4.087  -0.014  0.00  0.00    +0.035 C 
ATOM     13  C   UNL     1      14.021   6.664   0.690  0.00  0.00    +0.134 C 
ATOM     14  C   UNL     1      14.543   4.161  -1.242  0.00  0.00    +0.022 C 
ATOM     15  C   UNL     1      13.991   5.553  -1.521  0.00  0.00    +0.109 C 
ATOM     16  C   UNL     1      11.825   6.017  -0.248  0.00  0.00    +0.302 C 
ATOM     30  H   UNL     1      11.665   4.891  -2.013  0.00  0.00    +0.150 HD
BRANCH  11   1
ATOM      1  O   UNL     1      15.500   3.608   2.339  0.00  0.00    -0.390 OA
ATOM     29  H   UNL     1      15.001   2.850   2.690  0.00  0.00    +0.210 HD
ENDBRANCH  11   1
BRANCH   8  19
ATOM     19  C   UNL     1       9.721   5.198  -1.280  0.00  0.00    +0.102 C 
ATOM     22  C   UNL     1       9.114   5.606  -2.607  0.00  0.00    +0.024 C 
ENDBRANCH   8  19
ENDBRANCH   7  10
BRANCH  17  18
ATOM     18  C   UNL     1      12.084   6.450   4.682  0.00  0.00    +0.037 A 
ATOM     20  C   UNL     1      10.949   5.713   4.343  0.00  0.00    +0.016 A 
ATOM     21  C   UNL     1      12.207   6.994   5.961  0.00  0.00    +0.016 A 
ATOM     23  C   UNL     1       9.937   5.519   5.284  0.00  0.00    +0.046 A 
ATOM     24  C   UNL     1      11.196   6.801   6.901  0.00  0.00    +0.046 A 
ATOM     25  C   UNL     1      10.060   6.063   6.562  0.00  0.00    +0.121 A 
BRANCH  25   4
ATOM      4  O   UNL     1       9.073   5.875   7.481  0.00  0.00    -0.483 OA
BRANCH   4  26
ATOM     26  C   UNL     1       9.443   5.951   8.857  0.00  0.00    +0.324 C 
BRANCH  26  27
ATOM      5  O   UNL     1       9.327   3.538   8.782  0.00  0.00    -0.272 OA
ATOM      9  N   UNL     1       9.900   4.563  10.762  0.00  0.00    -0.327 N 
ATOM     27  C   UNL     1       9.542   4.558   9.431  0.00  0.00    +0.248 C 
ATOM     31  H   UNL     1      10.073   5.423  11.274  0.00  0.00    +0.145 HD
ATOM     32  H   UNL     1      10.003   3.696  11.277  0.00  0.00    +0.145 HD
ENDBRANCH  26  27
ENDBRANCH   4  26
ENDBRANCH  25   4
ENDBRANCH  17  18
TORSDOF 7
ENDMDL
MODEL 3
REMARK VINA RESULT:      -6.4      3.356      9.326
REMARK  Name = 26741971
REMARK  8 active torsions:
REMARK  status: ('A' for Active; 'I' for Inactive)
REMARK    1  A    between atoms: O_1  and  C_11
REMARK    2  A    between atoms: O_4  and  C_25
REMARK    3  A    between atoms: O_4  and  C_26
REMARK    4  A    between atoms: N_7  and  C_10
REMARK    5  A    between atoms: N_8  and  C_19
REMARK    6  A    between atoms: C_17  and  C_18
REMARK    7  A    between atoms: C_19  and  C_22
REMARK    8  A    between atoms: C_26  and  C_27
REMARK                            x       y       z     vdW  Elec       q    Type
REMARK                         _______ _______ _______ _____ _____    ______ ____
ROOT
ATOM      3  O   UNL     1      19.777   6.210  22.800  0.00  0.00    -0.270 OA
ATOM      7  N   UNL     1      20.967   5.886  20.836  0.00  0.00    -0.305 N 
ATOM     17  C   UNL     1      19.825   6.143  21.574  0.00  0.00    +0.244 C 
ATOM     28  H   UNL     1      20.930   5.836  19.825  0.00  0.00    +0.149 HD
ENDROOT
BRANCH   7  10
ATOM      2  O   UNL     1      21.754   8.816  20.164  0.00  0.00    -0.253 OA
ATOM      6  N   UNL     1      23.614   7.727  21.021  0.00  0.00    -0.284 N 
ATOM      8  N   UNL     1      23.792   9.180  19.167  0.00  0.00    -0.300 N 
ATOM     10  C   UNL     1      22.258   5.663  21.461  0.00  0.00    +0.119 C 
ATOM     11  C   UNL     1      23.156   4.880  20.485  0.00  0.00    +0.136 C 
ATOM     12  C   UNL     1      24.657   4.899  20.799  0.00  0.00    +0.035 C 
ATOM     13  C   UNL     1      22.816   6.989  22.000  0.00  0.00    +0.134 C 
ATOM     14  C   UNL     1      25.374   6.143  20.264  0.00  0.00    +0.022 C 
ATOM     15  C   UNL     1      25.049   7.421  21.026  0.00  0.00    +0.109 C 
ATOM     16  C   UNL     1      22.968   8.594  20.123  0.00  0.00    +0.302 C 
ATOM     30  H   UNL     1      24.760   8.902  19.074  0.00  0.00    +0.150 HD
BRANCH  11   1
ATOM      1  O   UNL     1      22.712   3.518  20.522  0.00  0.00    -0.390 OA
ATOM     29  H   UNL     1      22.880   3.178  21.418  0.00  0.00    +0.210 HD
ENDBRANCH  11   1
BRANCH   8  19
ATOM     19  C   UNL     1      23.282  10.085  18.162  0.00  0.00    +0.102 C 
ATOM     22  C   UNL     1      23.510  11.531  18.552  0.00  0.00    +0.024 C 
ENDBRANCH   8  19
ENDBRANCH   7  10
BRANCH  17  18
ATOM     18  C   UNL     1      18.578   6.321  20.788  0.00  0.00    +0.037 A 
ATOM     20  C   UNL     1      17.574   7.171  21.256  0.00  0.00    +0.016 A 
ATOM     21  C   UNL     1      18.408   5.639  19.583  0.00  0.00    +0.016 A 
ATOM     23  C   UNL     1      16.401   7.337  20.519  0.00  0.00    +0.046 A 
ATOM     24  C   UNL     1      17.236   5.805  18.846  0.00  0.00    +0.046 A 
ATOM     25  C   UNL     1      16.232   6.655  19.315  0.00  0.00    +0.121 A 
BRANCH  25   4
ATOM      4  O   UNL     1      15.088   6.816  18.595  0.00  0.00    -0.483 OA
BRANCH   4  26
ATOM     26  C   UNL     1      14.062   7.618  19.177  0.00  0.00    +0.324 C 
BRANCH  26  27
ATOM      5  O   UNL     1      12.127   7.234  17.780  0.00  0.00    -0.272 OA
ATOM      9  N   UNL     1      12.211   6.248  19.858  0.00  0.00    -0.327 N 
ATOM     27  C   UNL     1      12.711   7.032  18.841  0.00  0.00    +0.248 C 
ATOM     31  H   UNL     1      12.717   6.098  20.726  0.00  0.00    +0.145 HD
ATOM     32  H   UNL     1      11.311   5.791  19.769  0.00  0.00    +0.145 HD
ENDBRANCH  26  27
ENDBRANCH   4  26
ENDBRANCH  25   4
ENDBRANCH  17  18
TORSDOF 7
ENDMDL
MODEL 4
REMARK VINA RESULT:      -6.3     27.966     29.350
REMARK  Name = 26741971
REMARK  8 active torsions:
REMARK  status: ('A' for Active; 'I' for Inactive)
REMARK    1  A    between atoms: O_1  and  C_11
REMARK    2  A    between atoms: O_4  and  C_25
REMARK    3  A    between atoms: O_4  and  C_26
REMARK    4  A    between atoms: N_7  and  C_10
REMARK    5  A    between atoms: N_8  and  C_19
REMARK    6  A    between atoms: C_17  and  C_18
REMARK    7  A    between atoms: C_19  and  C_22
REMARK    8  A    between atoms: C_26  and  C_27
REMARK                            x       y       z     vdW  Elec       q    Type
REMARK                         _______ _______ _______ _____ _____    ______ ____
ROOT
ATOM      3  O   UNL     1      -3.151 -12.657  14.710  0.00  0.00    -0.270 OA
ATOM      7  N   UNL     1      -5.028 -11.545  15.493  0.00  0.00    -0.305 N 
ATOM     17  C   UNL     1      -4.044 -11.827  14.563  0.00  0.00    +0.244 C 
ATOM     28  H   UNL     1      -5.730 -10.838  15.307  0.00  0.00    +0.149 HD
ENDROOT
BRANCH   7  10
ATOM      2  O   UNL     1      -7.944 -10.523  15.825  0.00  0.00    -0.253 OA
ATOM      6  N   UNL     1      -7.292 -11.558  17.797  0.00  0.00    -0.284 N 
ATOM      8  N   UNL     1      -8.517  -9.538  17.821  0.00  0.00    -0.300 N 
ATOM     10  C   UNL     1      -5.101 -12.224  16.774  0.00  0.00    +0.119 C 
ATOM     11  C   UNL     1      -4.365 -11.379  17.830  0.00  0.00    +0.136 C 
ATOM     12  C   UNL     1      -4.671 -11.725  19.292  0.00  0.00    +0.035 C 
ATOM     13  C   UNL     1      -6.557 -12.603  17.084  0.00  0.00    +0.134 C 
ATOM     14  C   UNL     1      -5.942 -11.054  19.822  0.00  0.00    +0.022 C 
ATOM     15  C   UNL     1      -7.232 -11.638  19.261  0.00  0.00    +0.109 C 
ATOM     16  C   UNL     1      -7.924 -10.541  17.060  0.00  0.00    +0.302 C 
ATOM     30  H   UNL     1      -8.395  -9.506  18.824  0.00  0.00    +0.150 HD
BRANCH  11   1
ATOM      1  O   UNL     1      -2.962 -11.579  17.610  0.00  0.00    -0.390 OA
ATOM     29  H   UNL     1      -2.523 -11.553  18.478  0.00  0.00    +0.210 HD
ENDBRANCH  11   1
BRANCH   8  19
ATOM     19  C   UNL     1      -9.196  -8.414  17.218  0.00  0.00    +0.102 C 
ATOM     22  C   UNL     1     -10.690  -8.471  17.464  0.00  0.00    +0.024 C 
ENDBRANCH   8  19
ENDBRANCH   7  10
BRANCH  17  18
ATOM     18  C   UNL     1      -4.092 -11.026  13.312  0.00  0.00    +0.037 A 
ATOM     20  C   UNL     1      -2.966 -10.947  12.492  0.00  0.00    +0.016 A 
ATOM     21  C   UNL     1      -5.261 -10.352  12.959  0.00  0.00    +0.016 A 
ATOM     23  C   UNL     1      -3.009 -10.193  11.319  0.00  0.00    +0.046 A 
ATOM     24  C   UNL     1      -5.305  -9.598  11.787  0.00  0.00    +0.046 A 
ATOM     25  C   UNL     1      -4.179  -9.519  10.967  0.00  0.00    +0.121 A 
BRANCH  25   4
ATOM      4  O   UNL     1      -4.222  -8.783   9.822  0.00  0.00    -0.483 OA
BRANCH   4  26
ATOM     26  C   UNL     1      -5.466  -8.739   9.125  0.00  0.00    +0.324 C 
BRANCH  26  27
ATOM      5  O   UNL     1      -4.696 -10.631   7.833  0.00  0.00    -0.272 OA
ATOM      9  N   UNL     1      -6.188  -9.165   6.875  0.00  0.00    -0.327 N 
ATOM     27  C   UNL     1      -5.391  -9.621   7.902  0.00  0.00    +0.248 C 
ATOM     31  H   UNL     1      -6.754  -8.326   6.960  0.00  0.00    +0.145 HD
ATOM     32  H   UNL     1      -6.236  -9.661   5.992  0.00  0.00    +0.145 HD
ENDBRANCH  26  27
ENDBRANCH   4  26
ENDBRANCH  25   4
ENDBRANCH  17  18
TORSDOF 7
ENDMDL
MODEL 5
REMARK VINA RESULT:      -6.3     27.207     29.297
REMARK  Name = 26741971
REMARK  8 active torsions:
REMARK  status: ('A' for Active; 'I' for Inactive)
REMARK    1  A    between atoms: O_1  and  C_11
REMARK    2  A    between atoms: O_4  and  C_25
REMARK    3  A    between atoms: O_4  and  C_26
REMARK    4  A    between atoms: N_7  and  C_10
REMARK    5  A    between atoms: N_8  and  C_19
REMARK    6  A    between atoms: C_17  and  C_18
REMARK    7  A    between atoms: C_19  and  C_22
REMARK    8  A    between atoms: C_26  and  C_27
REMARK                            x       y       z     vdW  Elec       q    Type
REMARK                         _______ _______ _______ _____ _____    ______ ____
ROOT
ATOM      3  O   UNL     1      -1.703 -11.127  12.468  0.00  0.00    -0.270 OA
ATOM      7  N   UNL     1      -3.850 -10.756  11.676  0.00  0.00    -0.305 N 
ATOM     17  C   UNL     1      -2.891 -10.888  12.665  0.00  0.00    +0.244 C 
ATOM     28  H   UNL     1      -4.817 -10.567  11.913  0.00  0.00    +0.149 HD
ENDROOT
BRANCH   7  10
ATOM      2  O   UNL     1      -6.020  -8.631  11.019  0.00  0.00    -0.253 OA
ATOM      6  N   UNL     1      -5.227  -9.522   9.028  0.00  0.00    -0.284 N 
ATOM      8  N   UNL     1      -7.532  -9.117   9.357  0.00  0.00    -0.300 N 
ATOM     10  C   UNL     1      -3.532 -10.894  10.266  0.00  0.00    +0.119 C 
ATOM     11  C   UNL     1      -4.195 -12.176   9.728  0.00  0.00    +0.136 C 
ATOM     12  C   UNL     1      -4.306 -12.279   8.202  0.00  0.00    +0.035 C 
ATOM     13  C   UNL     1      -3.854  -9.588   9.526  0.00  0.00    +0.134 C 
ATOM     14  C   UNL     1      -5.531 -11.556   7.632  0.00  0.00    +0.022 C 
ATOM     15  C   UNL     1      -5.426 -10.037   7.668  0.00  0.00    +0.109 C 
ATOM     16  C   UNL     1      -6.244  -9.055   9.880  0.00  0.00    +0.302 C 
ATOM     30  H   UNL     1      -7.712  -9.570   8.472  0.00  0.00    +0.150 HD
BRANCH  11   1
ATOM      1  O   UNL     1      -3.399 -13.275  10.190  0.00  0.00    -0.390 OA
ATOM     29  H   UNL     1      -3.610 -14.045   9.634  0.00  0.00    +0.210 HD
ENDBRANCH  11   1
BRANCH   8  19
ATOM     19  C   UNL     1      -8.689  -8.689  10.109  0.00  0.00    +0.102 C 
ATOM     22  C   UNL     1      -9.368  -9.858  10.795  0.00  0.00    +0.024 C 
ENDBRANCH   8  19
ENDBRANCH   7  10
BRANCH  17  18
ATOM     18  C   UNL     1      -3.382 -10.745  14.059  0.00  0.00    +0.037 A 
ATOM     20  C   UNL     1      -2.477 -10.760  15.122  0.00  0.00    +0.016 A 
ATOM     21  C   UNL     1      -4.747 -10.598  14.308  0.00  0.00    +0.016 A 
ATOM     23  C   UNL     1      -2.938 -10.628  16.432  0.00  0.00    +0.046 A 
ATOM     24  C   UNL     1      -5.207 -10.466  15.617  0.00  0.00    +0.046 A 
ATOM     25  C   UNL     1      -4.303 -10.481  16.680  0.00  0.00    +0.121 A 
BRANCH  25   4
ATOM      4  O   UNL     1      -4.753 -10.353  17.958  0.00  0.00    -0.483 OA
BRANCH   4  26
ATOM     26  C   UNL     1      -5.341 -11.505  18.559  0.00  0.00    +0.324 C 
BRANCH  26  27
ATOM      5  O   UNL     1      -3.419 -12.150  19.875  0.00  0.00    -0.272 OA
ATOM      9  N   UNL     1      -4.303 -13.663  18.383  0.00  0.00    -0.327 N 
ATOM     27  C   UNL     1      -4.253 -12.444  19.023  0.00  0.00    +0.248 C 
ATOM     31  H   UNL     1      -5.004 -13.879  17.682  0.00  0.00    +0.145 HD
ATOM     32  H   UNL     1      -3.631 -14.392  18.597  0.00  0.00    +0.145 HD
ENDBRANCH  26  27
ENDBRANCH   4  26
ENDBRANCH  25   4
ENDBRANCH  17  18
TORSDOF 7
ENDMDL
MODEL 6
REMARK VINA RESULT:      -6.1     27.068     30.346
REMARK  Name = 26741971
REMARK  8 active torsions:
REMARK  status: ('A' for Active; 'I' for Inactive)
REMARK    1  A    between atoms: O_1  and  C_11
REMARK    2  A    between atoms: O_4  and  C_25
REMARK    3  A    between atoms: O_4  and  C_26
REMARK    4  A    between atoms: N_7  and  C_10
REMARK    5  A    between atoms: N_8  and  C_19
REMARK    6  A    between atoms: C_17  and  C_18
REMARK    7  A    between atoms: C_19  and  C_22
REMARK    8  A    between atoms: C_26  and  C_27
REMARK                            x       y       z     vdW  Elec       q    Type
REMARK                         _______ _______ _______ _____ _____    ______ ____
ROOT
ATOM      3  O   UNL     1      -7.814 -12.036  20.088  0.00  0.00    -0.270 OA
ATOM      7  N   UNL     1      -9.010 -11.189  18.292  0.00  0.00    -0.305 N 
ATOM     17  C   UNL     1      -7.853 -11.519  18.975  0.00  0.00    +0.244 C 
ATOM     28  H   UNL     1      -8.967 -10.754  17.378  0.00  0.00    +0.149 HD
ENDROOT
BRANCH   7  10
ATOM      2  O   UNL     1     -10.234 -10.716  15.475  0.00  0.00    -0.253 OA
ATOM      6  N   UNL     1     -11.963 -10.923  17.009  0.00  0.00    -0.284 N 
ATOM      8  N   UNL     1     -12.025  -9.286  15.307  0.00  0.00    -0.300 N 
ATOM     10  C   UNL     1     -10.331 -11.428  18.845  0.00  0.00    +0.119 C 
ATOM     11  C   UNL     1     -10.798 -10.164  19.591  0.00  0.00    +0.136 C 
ATOM     12  C   UNL     1     -12.299 -10.083  19.892  0.00  0.00    +0.035 C 
ATOM     13  C   UNL     1     -11.266 -11.971  17.755  0.00  0.00    +0.134 C 
ATOM     14  C   UNL     1     -13.126  -9.546  18.719  0.00  0.00    +0.022 C 
ATOM     15  C   UNL     1     -13.262 -10.522  17.559  0.00  0.00    +0.109 C 
ATOM     16  C   UNL     1     -11.331 -10.338  15.896  0.00  0.00    +0.302 C 
ATOM     30  H   UNL     1     -12.864  -8.914  15.730  0.00  0.00    +0.150 HD
BRANCH  11   1
ATOM      1  O   UNL     1     -10.092 -10.139  20.838  0.00  0.00    -0.390 OA
ATOM     29  H   UNL     1     -10.164 -11.025  21.234  0.00  0.00    +0.210 HD
ENDBRANCH  11   1
BRANCH   8  19
ATOM     19  C   UNL     1     -11.508  -8.568  14.164  0.00  0.00    +0.102 C 
ATOM     22  C   UNL     1     -12.068  -7.162  14.092  0.00  0.00    +0.024 C 
ENDBRANCH   8  19
ENDBRANCH   7  10
BRANCH  17  18
ATOM     18  C   UNL     1      -6.581 -11.185  18.284  0.00  0.00    +0.037 A 
ATOM     20  C   UNL     1      -5.380 -11.738  18.730  0.00  0.00    +0.016 A 
ATOM     21  C   UNL     1      -6.587 -10.317  17.191  0.00  0.00    +0.016 A 
ATOM     23  C   UNL     1      -4.185 -11.422  18.083  0.00  0.00    +0.046 A 
ATOM     24  C   UNL     1      -5.393 -10.002  16.545  0.00  0.00    +0.046 A 
ATOM     25  C   UNL     1      -4.191 -10.555  16.991  0.00  0.00    +0.121 A 
BRANCH  25   4
ATOM      4  O   UNL     1      -3.026 -10.247  16.359  0.00  0.00    -0.483 OA
BRANCH   4  26
ATOM     26  C   UNL     1      -2.845 -10.763  15.041  0.00  0.00    +0.324 C 
BRANCH  26  27
ATOM      5  O   UNL     1      -1.266 -12.446  14.324  0.00  0.00    -0.272 OA
ATOM      9  N   UNL     1      -0.508 -10.679  15.587  0.00  0.00    -0.327 N 
ATOM     27  C   UNL     1      -1.481 -11.401  14.931  0.00  0.00    +0.248 C 
ATOM     31  H   UNL     1      -0.715  -9.816  16.082  0.00  0.00    +0.145 HD
ATOM     32  H   UNL     1       0.456 -10.991  15.597  0.00  0.00    +0.145 HD
ENDBRANCH  26  27
ENDBRANCH   4  26
ENDBRANCH  25   4
ENDBRANCH  17  18
TORSDOF 7
ENDMDL
MODEL 7
REMARK VINA RESULT:      -5.9     27.167     29.337
REMARK  Name = 26741971
REMARK  8 active torsions:
REMARK  status: ('A' for Active; 'I' for Inactive)
REMARK    1  A    between atoms: O_1  and  C_11
REMARK    2  A    between atoms: O_4  and  C_25
REMARK    3  A    between atoms: O_4  and  C_26
REMARK    4  A    between atoms: N_7  and  C_10
REMARK    5  A    between atoms: N_8  and  C_19
REMARK    6  A    between atoms: C_17  and  C_18
REMARK    7  A    between atoms: C_19  and  C_22
REMARK    8  A    between atoms: C_26  and  C_27
REMARK                            x       y       z     vdW  Elec       q    Type
REMARK                         _______ _______ _______ _____ _____    ______ ____
ROOT
ATOM      3  O   UNL     1      -9.875   9.501  18.241  0.00  0.00    -0.270 OA
ATOM      7  N   UNL     1     -11.420   8.628  16.749  0.00  0.00    -0.305 N 
ATOM     17  C   UNL     1     -10.921   8.900  18.010  0.00  0.00    +0.244 C 
ATOM     28  H   UNL     1     -12.287   8.117  16.633  0.00  0.00    +0.149 HD
ENDROOT
BRANCH   7  10
ATOM      2  O   UNL     1     -13.715  10.644  16.177  0.00  0.00    -0.253 OA
ATOM      6  N   UNL     1     -12.284  10.611  14.351  0.00  0.00    -0.284 N 
ATOM      8  N   UNL     1     -14.629  10.662  14.069  0.00  0.00    -0.300 N 
ATOM     10  C   UNL     1     -10.732   9.040  15.539  0.00  0.00    +0.119 C 
ATOM     11  C   UNL     1     -10.977   7.988  14.442  0.00  0.00    +0.136 C 
ATOM     12  C   UNL     1     -10.672   8.436  13.007  0.00  0.00    +0.035 C 
ATOM     13  C   UNL     1     -11.097  10.492  15.197  0.00  0.00    +0.134 C 
ATOM     14  C   UNL     1     -11.825   9.205  12.354  0.00  0.00    +0.022 C 
ATOM     15  C   UNL     1     -12.026  10.610  12.906  0.00  0.00    +0.109 C 
ATOM     16  C   UNL     1     -13.555  10.644  14.953  0.00  0.00    +0.302 C 
ATOM     30  H   UNL     1     -14.487  10.547  13.074  0.00  0.00    +0.150 HD
BRANCH  11   1
ATOM      1  O   UNL     1     -10.131   6.871  14.747  0.00  0.00    -0.390 OA
ATOM     29  H   UNL     1     -10.500   6.091  14.298  0.00  0.00    +0.210 HD
ENDBRANCH  11   1
BRANCH   8  19
ATOM     19  C   UNL     1     -16.000  10.682  14.525  0.00  0.00    +0.102 C 
ATOM     22  C   UNL     1     -16.563  12.089  14.526  0.00  0.00    +0.024 C 
ENDBRANCH   8  19
ENDBRANCH   7  10
BRANCH  17  18
ATOM     18  C   UNL     1     -11.730   8.387  19.146  0.00  0.00    +0.037 A 
ATOM     20  C   UNL     1     -12.849   9.098  19.582  0.00  0.00    +0.016 A 
ATOM     21  C   UNL     1     -11.370   7.197  19.779  0.00  0.00    +0.016 A 
ATOM     23  C   UNL     1     -13.608   8.619  20.649  0.00  0.00    +0.046 A 
ATOM     24  C   UNL     1     -12.129   6.718  20.846  0.00  0.00    +0.046 A 
ATOM     25  C   UNL     1     -13.248   7.429  21.282  0.00  0.00    +0.121 A 
BRANCH  25   4
ATOM      4  O   UNL     1     -13.987   6.961  22.324  0.00  0.00    -0.483 OA
BRANCH   4  26
ATOM     26  C   UNL     1     -14.591   5.678  22.167  0.00  0.00    +0.324 C 
BRANCH  26  27
ATOM      5  O   UNL     1     -14.948   4.449  24.218  0.00  0.00    -0.272 OA
ATOM      9  N   UNL     1     -12.869   4.389  23.233  0.00  0.00    -0.327 N 
ATOM     27  C   UNL     1     -14.186   4.784  23.315  0.00  0.00    +0.248 C 
ATOM     31  H   UNL     1     -12.261   4.681  22.473  0.00  0.00    +0.145 HD
ATOM     32  H   UNL     1     -12.460   3.786  23.939  0.00  0.00    +0.145 HD
ENDBRANCH  26  27
ENDBRANCH   4  26
ENDBRANCH  25   4
ENDBRANCH  17  18
TORSDOF 7
ENDMDL
MODEL 8
REMARK VINA RESULT:      -5.9     27.918     29.776
REMARK  Name = 26741971
REMARK  8 active torsions:
REMARK  status: ('A' for Active; 'I' for Inactive)
REMARK    1  A    between atoms: O_1  and  C_11
REMARK    2  A    between atoms: O_4  and  C_25
REMARK    3  A    between atoms: O_4  and  C_26
REMARK    4  A    between atoms: N_7  and  C_10
REMARK    5  A    between atoms: N_8  and  C_19
REMARK    6  A    between atoms: C_17  and  C_18
REMARK    7  A    between atoms: C_19  and  C_22
REMARK    8  A    between atoms: C_26  and  C_27
REMARK                            x       y       z     vdW  Elec       q    Type
REMARK                         _______ _______ _______ _____ _____    ______ ____
ROOT
ATOM      3  O   UNL     1      -3.237 -11.748  13.677  0.00  0.00    -0.270 OA
ATOM      7  N   UNL     1      -5.170 -11.196  14.831  0.00  0.00    -0.305 N 
ATOM     17  C   UNL     1      -4.313 -11.160  13.747  0.00  0.00    +0.244 C 
ATOM     28  H   UNL     1      -6.040 -10.676  14.823  0.00  0.00    +0.149 HD
ENDROOT
BRANCH   7  10
ATOM      2  O   UNL     1      -8.191 -11.160  15.563  0.00  0.00    -0.253 OA
ATOM      6  N   UNL     1      -7.009 -12.084  17.334  0.00  0.00    -0.284 N 
ATOM      8  N   UNL     1      -8.771 -10.553  17.703  0.00  0.00    -0.300 N 
ATOM     10  C   UNL     1      -4.870 -11.958  16.031  0.00  0.00    +0.119 C 
ATOM     11  C   UNL     1      -4.292 -11.007  17.095  0.00  0.00    +0.136 C 
ATOM     12  C   UNL     1      -4.290 -11.538  18.533  0.00  0.00    +0.035 C 
ATOM     13  C   UNL     1      -6.092 -12.792  16.441  0.00  0.00    +0.134 C 
ATOM     14  C   UNL     1      -5.625 -11.337  19.258  0.00  0.00    +0.022 C 
ATOM     15  C   UNL     1      -6.740 -12.250  18.767  0.00  0.00    +0.109 C 
ATOM     16  C   UNL     1      -8.007 -11.262  16.781  0.00  0.00    +0.302 C 
ATOM     30  H   UNL     1      -8.536 -10.559  18.686  0.00  0.00    +0.150 HD
BRANCH  11   1
ATOM      1  O   UNL     1      -2.935 -10.743  16.716  0.00  0.00    -0.390 OA
ATOM     29  H   UNL     1      -2.953 -10.096  15.990  0.00  0.00    +0.210 HD
ENDBRANCH  11   1
BRANCH   8  19
ATOM     19  C   UNL     1      -9.827  -9.654  17.298  0.00  0.00    +0.102 C 
ATOM     22  C   UNL     1      -9.348  -8.217  17.260  0.00  0.00    +0.024 C 
ENDBRANCH   8  19
ENDBRANCH   7  10
BRANCH  17  18
ATOM     18  C   UNL     1      -4.752 -10.313  12.608  0.00  0.00    +0.037 A 
ATOM     20  C   UNL     1      -6.060  -9.829  12.563  0.00  0.00    +0.016 A 
ATOM     21  C   UNL     1      -3.858 -10.003  11.582  0.00  0.00    +0.016 A 
ATOM     23  C   UNL     1      -6.474  -9.036  11.493  0.00  0.00    +0.046 A 
ATOM     24  C   UNL     1      -4.272  -9.211  10.512  0.00  0.00    +0.046 A 
ATOM     25  C   UNL     1      -5.580  -8.727  10.467  0.00  0.00    +0.121 A 
BRANCH  25   4
ATOM      4  O   UNL     1      -5.983  -7.953   9.422  0.00  0.00    -0.483 OA
BRANCH   4  26
ATOM     26  C   UNL     1      -7.004  -8.482   8.578  0.00  0.00    +0.324 C 
BRANCH  26  27
ATOM      5  O   UNL     1      -8.787  -6.862   8.778  0.00  0.00    -0.272 OA
ATOM      9  N   UNL     1      -7.591  -6.961   6.815  0.00  0.00    -0.327 N 
ATOM     27  C   UNL     1      -7.894  -7.360   8.098  0.00  0.00    +0.248 C 
ATOM     31  H   UNL     1      -6.845  -7.391   6.275  0.00  0.00    +0.145 HD
ATOM     32  H   UNL     1      -8.109  -6.216   6.364  0.00  0.00    +0.145 HD
ENDBRANCH  26  27
ENDBRANCH   4  26
ENDBRANCH  25   4
ENDBRANCH  17  18
TORSDOF 7
ENDMDL
MODEL 9
REMARK VINA RESULT:      -5.8     27.788     30.656
REMARK  Name = 26741971
REMARK  8 active torsions:
REMARK  status: ('A' for Active; 'I' for Inactive)
REMARK    1  A    between atoms: O_1  and  C_11
REMARK    2  A    between atoms: O_4  and  C_25
REMARK    3  A    between atoms: O_4  and  C_26
REMARK    4  A    between atoms: N_7  and  C_10
REMARK    5  A    between atoms: N_8  and  C_19
REMARK    6  A    between atoms: C_17  and  C_18
REMARK    7  A    between atoms: C_19  and  C_22
REMARK    8  A    between atoms: C_26  and  C_27
REMARK                            x       y       z     vdW  Elec       q    Type
REMARK                         _______ _______ _______ _____ _____    ______ ____
ROOT
ATOM      3  O   UNL     1      -4.946 -11.096   6.211  0.00  0.00    -0.270 OA
ATOM      7  N   UNL     1      -6.413  -9.427   6.872  0.00  0.00    -0.305 N 
ATOM     17  C   UNL     1      -5.350 -10.295   7.050  0.00  0.00    +0.244 C 
ATOM     28  H   UNL     1      -6.698  -8.798   7.614  0.00  0.00    +0.149 HD
ENDROOT
BRANCH   7  10
ATOM      2  O   UNL     1      -7.522  -6.648   7.711  0.00  0.00    -0.253 OA
ATOM      6  N   UNL     1      -8.621  -7.335   5.786  0.00  0.00    -0.284 N 
ATOM      8  N   UNL     1      -9.790  -6.306   7.563  0.00  0.00    -0.300 N 
ATOM     10  C   UNL     1      -7.176  -9.379   5.638  0.00  0.00    +0.119 C 
ATOM     11  C   UNL     1      -8.429 -10.261   5.791  0.00  0.00    +0.136 C 
ATOM     12  C   UNL     1      -9.540 -10.025   4.761  0.00  0.00    +0.035 C 
ATOM     13  C   UNL     1      -7.405  -7.919   5.220  0.00  0.00    +0.134 C 
ATOM     14  C   UNL     1     -10.468  -8.860   5.125  0.00  0.00    +0.022 C 
ATOM     15  C   UNL     1      -9.829  -7.487   4.967  0.00  0.00    +0.109 C 
ATOM     16  C   UNL     1      -8.569  -6.751   7.065  0.00  0.00    +0.302 C 
ATOM     30  H   UNL     1     -10.653  -6.500   7.074  0.00  0.00    +0.150 HD
BRANCH  11   1
ATOM      1  O   UNL     1      -7.991 -11.621   5.669  0.00  0.00    -0.390 OA
ATOM     29  H   UNL     1      -7.279 -11.641   5.006  0.00  0.00    +0.210 HD
ENDBRANCH  11   1
BRANCH   8  19
ATOM     19  C   UNL     1      -9.912  -5.696   8.867  0.00  0.00    +0.102 C 
ATOM     22  C   UNL     1     -10.927  -4.571   8.860  0.00  0.00    +0.024 C 
ENDBRANCH   8  19
ENDBRANCH   7  10
BRANCH  17  18
ATOM     18  C   UNL     1      -4.690 -10.240   8.379  0.00  0.00    +0.037 A 
ATOM     20  C   UNL     1      -4.425 -11.420   9.076  0.00  0.00    +0.016 A 
ATOM     21  C   UNL     1      -4.337  -9.009   8.933  0.00  0.00    +0.016 A 
ATOM     23  C   UNL     1      -3.807 -11.368  10.325  0.00  0.00    +0.046 A 
ATOM     24  C   UNL     1      -3.720  -8.957  10.182  0.00  0.00    +0.046 A 
ATOM     25  C   UNL     1      -3.455 -10.137  10.878  0.00  0.00    +0.121 A 
BRANCH  25   4
ATOM      4  O   UNL     1      -2.851 -10.086  12.098  0.00  0.00    -0.483 OA
BRANCH   4  26
ATOM     26  C   UNL     1      -2.034 -11.196  12.465  0.00  0.00    +0.324 C 
BRANCH  26  27
ATOM      5  O   UNL     1      -1.836 -12.281  14.616  0.00  0.00    -0.272 OA
ATOM      9  N   UNL     1      -1.818  -9.982  14.526  0.00  0.00    -0.327 N 
ATOM     27  C   UNL     1      -1.888 -11.240  13.968  0.00  0.00    +0.248 C 
ATOM     31  H   UNL     1      -1.862  -9.136  13.965  0.00  0.00    +0.145 HD
ATOM     32  H   UNL     1      -1.719  -9.860  15.527  0.00  0.00    +0.145 HD
ENDBRANCH  26  27
ENDBRANCH   4  26
ENDBRANCH  25   4
ENDBRANCH  17  18
TORSDOF 7
ENDMDL
MODEL 10
REMARK VINA RESULT:      -5.8     27.819     30.381
REMARK  Name = 26741971
REMARK  8 active torsions:
REMARK  status: ('A' for Active; 'I' for Inactive)
REMARK    1  A    between atoms: O_1  and  C_11
REMARK    2  A    between atoms: O_4  and  C_25
REMARK    3  A    between atoms: O_4  and  C_26
REMARK    4  A    between atoms: N_7  and  C_10
REMARK    5  A    between atoms: N_8  and  C_19
REMARK    6  A    between atoms: C_17  and  C_18
REMARK    7  A    between atoms: C_19  and  C_22
REMARK    8  A    between atoms: C_26  and  C_27
REMARK                            x       y       z     vdW  Elec       q    Type
REMARK                         _______ _______ _______ _____ _____    ______ ____
ROOT
ATOM      3  O   UNL     1     -11.386   9.280  19.431  0.00  0.00    -0.270 OA
ATOM      7  N   UNL     1     -12.769   8.362  17.812  0.00  0.00    -0.305 N 
ATOM     17  C   UNL     1     -12.236   8.465  19.085  0.00  0.00    +0.244 C 
ATOM     28  H   UNL     1     -13.463   7.656  17.596  0.00  0.00    +0.149 HD
ENDROOT
BRANCH   7  10
ATOM      2  O   UNL     1     -15.403   7.675  16.313  0.00  0.00    -0.253 OA
ATOM      6  N   UNL     1     -14.058   8.942  14.908  0.00  0.00    -0.284 N 
ATOM      8  N   UNL     1     -15.254   7.071  14.100  0.00  0.00    -0.300 N 
ATOM     10  C   UNL     1     -12.359   9.237  16.729  0.00  0.00    +0.119 C 
ATOM     11  C   UNL     1     -11.319   8.504  15.861  0.00  0.00    +0.136 C 
ATOM     12  C   UNL     1     -11.072   9.101  14.470  0.00  0.00    +0.035 C 
ATOM     13  C   UNL     1     -13.595   9.791  16.006  0.00  0.00    +0.134 C 
ATOM     14  C   UNL     1     -12.090   8.639  13.421  0.00  0.00    +0.022 C 
ATOM     15  C   UNL     1     -13.477   9.244  13.596  0.00  0.00    +0.109 C 
ATOM     16  C   UNL     1     -14.942   7.884  15.186  0.00  0.00    +0.302 C 
ATOM     30  H   UNL     1     -14.782   7.185  13.213  0.00  0.00    +0.150 HD
BRANCH  11   1
ATOM      1  O   UNL     1     -10.082   8.538  16.585  0.00  0.00    -0.390 OA
ATOM     29  H   UNL     1     -10.121   9.295  17.196  0.00  0.00    +0.210 HD
ENDBRANCH  11   1
BRANCH   8  19
ATOM     19  C   UNL     1     -16.136   5.933  14.219  0.00  0.00    +0.102 C 
ATOM     22  C   UNL     1     -17.243   5.980  13.186  0.00  0.00    +0.024 C 
ENDBRANCH   8  19
ENDBRANCH   7  10
BRANCH  17  18
ATOM     18  C   UNL     1     -12.741   7.478  20.074  0.00  0.00    +0.037 A 
ATOM     20  C   UNL     1     -14.114   7.342  20.285  0.00  0.00    +0.016 A 
ATOM     21  C   UNL     1     -11.844   6.689  20.795  0.00  0.00    +0.016 A 
ATOM     23  C   UNL     1     -14.589   6.418  21.216  0.00  0.00    +0.046 A 
ATOM     24  C   UNL     1     -12.318   5.765  21.725  0.00  0.00    +0.046 A 
ATOM     25  C   UNL     1     -13.691   5.630  21.936  0.00  0.00    +0.121 A 
BRANCH  25   4
ATOM      4  O   UNL     1     -14.153   4.727  22.844  0.00  0.00    -0.483 OA
BRANCH   4  26
ATOM     26  C   UNL     1     -15.568   4.628  23.000  0.00  0.00    +0.324 C 
BRANCH  26  27
ATOM      5  O   UNL     1     -16.258   2.496  23.906  0.00  0.00    -0.272 OA
ATOM      9  N   UNL     1     -15.715   4.197  25.358  0.00  0.00    -0.327 N 
ATOM     27  C   UNL     1     -15.887   3.650  24.105  0.00  0.00    +0.248 C 
ATOM     31  H   UNL     1     -15.407   5.156  25.493  0.00  0.00    +0.145 HD
ATOM     32  H   UNL     1     -15.894   3.653  26.194  0.00  0.00    +0.145 HD
ENDBRANCH  26  27
ENDBRANCH   4  26
ENDBRANCH  25   4
ENDBRANCH  17  18
TORSDOF 7
ENDMDL
