MODEL 1
REMARK VINA RESULT:      -6.7      0.000      0.000
REMARK  Name = 38030412
REMARK  13 active torsions:
REMARK  status: ('A' for Active; 'I' for Inactive)
REMARK    1  A    between atoms: O_2  and  C_23
REMARK    2  A    between atoms: O_2  and  C_31
REMARK    3  A    between atoms: N_3  and  C_14
REMARK    4  A    between atoms: N_3  and  C_20
REMARK    5  A    between atoms: C_7  and  C_11
REMARK    6  A    between atoms: C_8  and  C_14
REMARK    7  A    between atoms: C_10  and  C_15
REMARK    8  A    between atoms: C_11  and  C_16
REMARK    9  A    between atoms: C_11  and  C_17
REMARK   10  A    between atoms: C_12  and  C_18
REMARK   11  A    between atoms: C_15  and  C_19
REMARK   12  A    between atoms: C_20  and  C_21
REMARK   13  A    between atoms: C_22  and  C_25
REMARK                            x       y       z     vdW  Elec       q    Type
REMARK                         _______ _______ _______ _____ _____    ______ ____
ROOT
ATOM      7  C   UNL     1      -5.509 -10.708  17.745  0.00  0.00    +0.000 C 
ATOM      8  C   UNL     1      -4.780 -11.045  16.421  0.00  0.00    +0.029 C 
ATOM      9  C   UNL     1      -7.005 -11.036  17.633  0.00  0.00    +0.012 C 
ATOM     10  C   UNL     1      -7.687 -10.262  16.489  0.00  0.00    +0.024 C 
ATOM     12  C   UNL     1      -6.881 -10.325  15.208  0.00  0.00    -0.073 C 
ATOM     13  C   UNL     1      -5.587 -10.690  15.195  0.00  0.00    -0.023 C 
ATOM     18  C   UNL     1      -7.610 -10.003  13.932  0.00  0.00    +0.039 C 
ENDROOT
BRANCH   7  11
ATOM     11  C   UNL     1      -4.901 -11.457  18.936  0.00  0.00    -0.013 C 
ATOM     16  C   UNL     1      -4.649 -12.917  18.572  0.00  0.00    +0.007 C 
ATOM     17  C   UNL     1      -5.816 -11.354  20.153  0.00  0.00    +0.007 C 
ENDBRANCH   7  11
BRANCH   8  14
ATOM     14  C   UNL     1      -3.413 -10.355  16.350  0.00  0.00    +0.089 C 
BRANCH  14   3
ATOM      3  N   UNL     1      -2.344 -11.337  16.303  0.00  0.00    -0.311 NA
ATOM     34  H   UNL     1      -1.842 -11.353  17.191  0.00  0.00    +0.122 HD
BRANCH   3  20
ATOM     20  C   UNL     1      -1.403 -11.037  15.231  0.00  0.00    +0.120 C 
BRANCH  20  21
ATOM     21  C   UNL     1      -1.999 -11.296  13.872  0.00  0.00    +0.008 A 
ATOM     23  C   UNL     1      -2.599 -12.520  13.579  0.00  0.00    +0.124 A 
ATOM     24  C   UNL     1      -1.945 -10.296  12.903  0.00  0.00    +0.008 A 
ATOM     26  C   UNL     1      -3.146 -12.743  12.316  0.00  0.00    +0.046 A 
ATOM     27  C   UNL     1      -2.492 -10.518  11.639  0.00  0.00    +0.001 A 
ATOM     28  C   UNL     1      -3.093 -11.743  11.346  0.00  0.00    +0.004 A 
BRANCH  23   2
ATOM      2  O   UNL     1      -2.660 -13.509  14.515  0.00  0.00    -0.495 OA
ATOM     31  C   UNL     1      -3.849 -14.295  14.550  0.00  0.00    +0.277 C 
ENDBRANCH  23   2
ENDBRANCH  20  21
ENDBRANCH   3  20
ENDBRANCH  14   3
ENDBRANCH   8  14
BRANCH  10  15
ATOM     15  C   UNL     1      -7.961  -8.809  16.893  0.00  0.00    +0.105 C 
BRANCH  15  19
ATOM      1  O   UNL     1      -9.964  -7.734  16.002  0.00  0.00    -0.420 OA
ATOM      4  N   UNL     1     -10.318  -8.943  17.850  0.00  0.00    -0.112 NA
ATOM      5  N   UNL     1     -11.526  -8.397  17.460  0.00  0.00    -0.107 NA
ATOM     19  C   UNL     1      -9.436  -8.531  16.971  0.00  0.00    +0.218 A 
ATOM     22  C   UNL     1     -11.272  -7.699  16.378  0.00  0.00    +0.250 A 
BRANCH  22  25
ATOM      6  N   UNL     1     -12.426  -5.071  14.016  0.00  0.00    -0.263 NA
ATOM     25  C   UNL     1     -12.143  -6.921  15.545  0.00  0.00    +0.057 A 
ATOM     29  C   UNL     1     -13.498  -7.222  15.444  0.00  0.00    +0.016 A 
ATOM     30  C   UNL     1     -11.661  -5.844  14.817  0.00  0.00    +0.124 A 
ATOM     32  C   UNL     1     -14.315  -6.447  14.628  0.00  0.00    +0.020 A 
ATOM     33  C   UNL     1     -13.737  -5.393  13.942  0.00  0.00    +0.111 A 
ENDBRANCH  22  25
ENDBRANCH  15  19
ENDBRANCH  10  15
TORSDOF 9
ENDMDL
MODEL 2
REMARK VINA RESULT:      -6.6     24.127     27.902
REMARK  Name = 38030412
REMARK  13 active torsions:
REMARK  status: ('A' for Active; 'I' for Inactive)
REMARK    1  A    between atoms: O_2  and  C_23
REMARK    2  A    between atoms: O_2  and  C_31
REMARK    3  A    between atoms: N_3  and  C_14
REMARK    4  A    between atoms: N_3  and  C_20
REMARK    5  A    between atoms: C_7  and  C_11
REMARK    6  A    between atoms: C_8  and  C_14
REMARK    7  A    between atoms: C_10  and  C_15
REMARK    8  A    between atoms: C_11  and  C_16
REMARK    9  A    between atoms: C_11  and  C_17
REMARK   10  A    between atoms: C_12  and  C_18
REMARK   11  A    between atoms: C_15  and  C_19
REMARK   12  A    between atoms: C_20  and  C_21
REMARK   13  A    between atoms: C_22  and  C_25
REMARK                            x       y       z     vdW  Elec       q    Type
REMARK                         _______ _______ _______ _____ _____    ______ ____
ROOT
ATOM      7  C   UNL     1       8.788   8.623   3.429  0.00  0.00    +0.000 C 
ATOM      8  C   UNL     1       8.001   8.156   4.678  0.00  0.00    +0.029 C 
ATOM      9  C   UNL     1       9.027   7.445   2.474  0.00  0.00    +0.012 C 
ATOM     10  C   UNL     1       9.812   6.302   3.144  0.00  0.00    +0.024 C 
ATOM     12  C   UNL     1       9.254   5.963   4.512  0.00  0.00    -0.073 C 
ATOM     13  C   UNL     1       8.436   6.798   5.176  0.00  0.00    -0.023 C 
ATOM     18  C   UNL     1       9.623   4.620   5.080  0.00  0.00    +0.039 C 
ENDROOT
BRANCH   7  11
ATOM     11  C   UNL     1       8.061   9.751   2.688  0.00  0.00    -0.013 C 
ATOM     16  C   UNL     1       7.630   9.285   1.301  0.00  0.00    +0.007 C 
ATOM     17  C   UNL     1       8.953  10.985   2.591  0.00  0.00    +0.007 C 
ENDBRANCH   7  11
BRANCH   8  14
ATOM     14  C   UNL     1       8.113   9.177   5.816  0.00  0.00    +0.089 C 
BRANCH  14   3
ATOM      3  N   UNL     1       8.254   8.505   7.097  0.00  0.00    -0.311 NA
ATOM     34  H   UNL     1       7.421   8.654   7.665  0.00  0.00    +0.122 HD
BRANCH   3  20
ATOM     20  C   UNL     1       9.419   8.996   7.822  0.00  0.00    +0.120 C 
BRANCH  20  21
ATOM     21  C   UNL     1      10.659   8.209   7.491  0.00  0.00    +0.008 A 
ATOM     23  C   UNL     1      10.766   6.864   7.845  0.00  0.00    +0.124 A 
ATOM     24  C   UNL     1      11.709   8.839   6.824  0.00  0.00    +0.008 A 
ATOM     26  C   UNL     1      11.922   6.150   7.532  0.00  0.00    +0.046 A 
ATOM     27  C   UNL     1      12.865   8.126   6.510  0.00  0.00    +0.001 A 
ATOM     28  C   UNL     1      12.972   6.780   6.864  0.00  0.00    +0.004 A 
BRANCH  23   2
ATOM      2  O   UNL     1       9.750   6.233   8.498  0.00  0.00    -0.495 OA
ATOM     31  C   UNL     1       9.846   4.816   8.629  0.00  0.00    +0.277 C 
ENDBRANCH  23   2
ENDBRANCH  20  21
ENDBRANCH   3  20
ENDBRANCH  14   3
ENDBRANCH   8  14
BRANCH  10  15
ATOM     15  C   UNL     1      11.306   6.632   3.229  0.00  0.00    +0.105 C 
BRANCH  15  19
ATOM      1  O   UNL     1      11.364   5.281   1.196  0.00  0.00    -0.420 OA
ATOM      4  N   UNL     1      13.382   5.849   1.977  0.00  0.00    -0.112 NA
ATOM      5  N   UNL     1      13.564   5.093   0.834  0.00  0.00    -0.107 NA
ATOM     19  C   UNL     1      12.084   5.933   2.150  0.00  0.00    +0.218 A 
ATOM     22  C   UNL     1      12.360   4.783   0.413  0.00  0.00    +0.250 A 
BRANCH  22  25
ATOM      6  N   UNL     1      10.309   3.634  -2.467  0.00  0.00    -0.263 NA
ATOM     25  C   UNL     1      11.939   4.015  -0.723  0.00  0.00    +0.057 A 
ATOM     29  C   UNL     1      12.698   2.946  -1.189  0.00  0.00    +0.016 A 
ATOM     30  C   UNL     1      10.763   4.315  -1.392  0.00  0.00    +0.124 A 
ATOM     32  C   UNL     1      12.263   2.222  -2.293  0.00  0.00    +0.020 A 
ATOM     33  C   UNL     1      11.073   2.602  -2.891  0.00  0.00    +0.111 A 
ENDBRANCH  22  25
ENDBRANCH  15  19
ENDBRANCH  10  15
TORSDOF 9
ENDMDL
MODEL 3
REMARK VINA RESULT:      -6.5     27.597     31.174
REMARK  Name = 38030412
REMARK  13 active torsions:
REMARK  status: ('A' for Active; 'I' for Inactive)
REMARK    1  A    between atoms: O_2  and  C_23
REMARK    2  A    between atoms: O_2  and  C_31
REMARK    3  A    between atoms: N_3  and  C_14
REMARK    4  A    between atoms: N_3  and  C_20
REMARK    5  A    between atoms: C_7  and  C_11
REMARK    6  A    between atoms: C_8  and  C_14
REMARK    7  A    between atoms: C_10  and  C_15
REMARK    8  A    between atoms: C_11  and  C_16
REMARK    9  A    between atoms: C_11  and  C_17
REMARK   10  A    between atoms: C_12  and  C_18
REMARK   11  A    between atoms: C_15  and  C_19
REMARK   12  A    between atoms: C_20  and  C_21
REMARK   13  A    between atoms: C_22  and  C_25
REMARK                            x       y       z     vdW  Elec       q    Type
REMARK                         _______ _______ _______ _____ _____    ______ ____
ROOT
ATOM      7  C   UNL     1      13.739  10.416  20.529  0.00  0.00    +0.000 C 
ATOM      8  C   UNL     1      12.271  10.584  20.994  0.00  0.00    +0.029 C 
ATOM      9  C   UNL     1      13.865   9.221  19.573  0.00  0.00    +0.012 C 
ATOM     10  C   UNL     1      13.406   7.903  20.224  0.00  0.00    +0.024 C 
ATOM     12  C   UNL     1      12.080   8.061  20.940  0.00  0.00    -0.073 C 
ATOM     13  C   UNL     1      11.583   9.267  21.264  0.00  0.00    -0.023 C 
ATOM     18  C   UNL     1      11.315   6.800  21.235  0.00  0.00    +0.039 C 
ENDROOT
BRANCH   7  11
ATOM     11  C   UNL     1      14.268  11.684  19.849  0.00  0.00    -0.013 C 
ATOM     16  C   UNL     1      13.123  12.456  19.200  0.00  0.00    +0.007 C 
ATOM     17  C   UNL     1      15.334  11.328  18.816  0.00  0.00    +0.007 C 
ENDBRANCH   7  11
BRANCH   8  14
ATOM     14  C   UNL     1      12.184  11.471  22.242  0.00  0.00    +0.089 C 
BRANCH  14   3
ATOM      3  N   UNL     1      12.268  10.667  23.449  0.00  0.00    -0.311 NA
ATOM     34  H   UNL     1      12.193   9.676  23.217  0.00  0.00    +0.122 HD
BRANCH   3  20
ATOM     20  C   UNL     1      11.209  11.017  24.388  0.00  0.00    +0.120 C 
BRANCH  20  21
ATOM     21  C   UNL     1      11.451  12.355  25.033  0.00  0.00    +0.008 A 
ATOM     23  C   UNL     1      12.621  12.599  25.752  0.00  0.00    +0.124 A 
ATOM     24  C   UNL     1      10.490  13.357  24.906  0.00  0.00    +0.008 A 
ATOM     26  C   UNL     1      12.829  13.844  26.344  0.00  0.00    +0.046 A 
ATOM     27  C   UNL     1      10.697  14.603  25.497  0.00  0.00    +0.001 A 
ATOM     28  C   UNL     1      11.868  14.847  26.217  0.00  0.00    +0.004 A 
BRANCH  23   2
ATOM      2  O   UNL     1      13.570  11.631  25.887  0.00  0.00    -0.495 OA
ATOM     31  C   UNL     1      14.913  12.065  26.089  0.00  0.00    +0.277 C 
ENDBRANCH  23   2
ENDBRANCH  20  21
ENDBRANCH   3  20
ENDBRANCH  14   3
ENDBRANCH   8  14
BRANCH  10  15
ATOM     15  C   UNL     1      14.478   7.352  21.172  0.00  0.00    +0.105 C 
BRANCH  15  19
ATOM      1  O   UNL     1      16.855   6.825  20.991  0.00  0.00    -0.420 OA
ATOM      4  N   UNL     1      15.631   6.150  19.245  0.00  0.00    -0.112 NA
ATOM      5  N   UNL     1      16.945   5.789  19.011  0.00  0.00    -0.107 NA
ATOM     19  C   UNL     1      15.626   6.750  20.411  0.00  0.00    +0.218 A 
ATOM     22  C   UNL     1      17.623   6.203  20.055  0.00  0.00    +0.250 A 
BRANCH  22  25
ATOM      6  N   UNL     1      21.064   7.190  21.059  0.00  0.00    -0.263 NA
ATOM     25  C   UNL     1      19.022   6.104  20.358  0.00  0.00    +0.057 A 
ATOM     29  C   UNL     1      19.694   4.890  20.256  0.00  0.00    +0.016 A 
ATOM     30  C   UNL     1      19.746   7.214  20.759  0.00  0.00    +0.124 A 
ATOM     32  C   UNL     1      21.050   4.826  20.556  0.00  0.00    +0.020 A 
ATOM     33  C   UNL     1      21.683   5.993  20.949  0.00  0.00    +0.111 A 
ENDBRANCH  22  25
ENDBRANCH  15  19
ENDBRANCH  10  15
TORSDOF 9
ENDMDL
MODEL 4
REMARK VINA RESULT:      -6.4      3.923      6.370
REMARK  Name = 38030412
REMARK  13 active torsions:
REMARK  status: ('A' for Active; 'I' for Inactive)
REMARK    1  A    between atoms: O_2  and  C_23
REMARK    2  A    between atoms: O_2  and  C_31
REMARK    3  A    between atoms: N_3  and  C_14
REMARK    4  A    between atoms: N_3  and  C_20
REMARK    5  A    between atoms: C_7  and  C_11
REMARK    6  A    between atoms: C_8  and  C_14
REMARK    7  A    between atoms: C_10  and  C_15
REMARK    8  A    between atoms: C_11  and  C_16
REMARK    9  A    between atoms: C_11  and  C_17
REMARK   10  A    between atoms: C_12  and  C_18
REMARK   11  A    between atoms: C_15  and  C_19
REMARK   12  A    between atoms: C_20  and  C_21
REMARK   13  A    between atoms: C_22  and  C_25
REMARK                            x       y       z     vdW  Elec       q    Type
REMARK                         _______ _______ _______ _____ _____    ______ ____
ROOT
ATOM      7  C   UNL     1      -3.522 -12.437  13.229  0.00  0.00    +0.000 C 
ATOM      8  C   UNL     1      -2.097 -11.860  13.413  0.00  0.00    +0.029 C 
ATOM      9  C   UNL     1      -3.896 -12.480  11.741  0.00  0.00    +0.012 C 
ATOM     10  C   UNL     1      -3.846 -11.087  11.087  0.00  0.00    +0.024 C 
ATOM     12  C   UNL     1      -2.576 -10.342  11.445  0.00  0.00    -0.073 C 
ATOM     13  C   UNL     1      -1.800 -10.709  12.480  0.00  0.00    -0.023 C 
ATOM     18  C   UNL     1      -2.193  -9.189  10.558  0.00  0.00    +0.039 C 
ENDROOT
BRANCH   7  11
ATOM     11  C   UNL     1      -3.651 -13.838  13.838  0.00  0.00    -0.013 C 
ATOM     16  C   UNL     1      -4.087 -14.841  12.774  0.00  0.00    +0.007 C 
ATOM     17  C   UNL     1      -4.635 -13.823  15.003  0.00  0.00    +0.007 C 
ENDBRANCH   7  11
BRANCH   8  14
ATOM     14  C   UNL     1      -1.862 -11.415  14.861  0.00  0.00    +0.089 C 
BRANCH  14   3
ATOM      3  N   UNL     1      -2.723 -10.295  15.200  0.00  0.00    -0.311 NA
ATOM     34  H   UNL     1      -2.174  -9.438  15.266  0.00  0.00    +0.122 HD
BRANCH   3  20
ATOM     20  C   UNL     1      -3.405 -10.521  16.469  0.00  0.00    +0.120 C 
BRANCH  20  21
ATOM     21  C   UNL     1      -4.895 -10.346  16.344  0.00  0.00    +0.008 A 
ATOM     23  C   UNL     1      -5.712 -10.367  17.474  0.00  0.00    +0.124 A 
ATOM     24  C   UNL     1      -5.456 -10.163  15.081  0.00  0.00    +0.008 A 
ATOM     26  C   UNL     1      -7.091 -10.204  17.340  0.00  0.00    +0.046 A 
ATOM     27  C   UNL     1      -6.835  -9.999  14.947  0.00  0.00    +0.001 A 
ATOM     28  C   UNL     1      -7.653 -10.020  16.078  0.00  0.00    +0.004 A 
BRANCH  23   2
ATOM      2  O   UNL     1      -5.180 -10.546  18.715  0.00  0.00    -0.495 OA
ATOM     31  C   UNL     1      -5.413 -11.805  19.344  0.00  0.00    +0.277 C 
ENDBRANCH  23   2
ENDBRANCH  20  21
ENDBRANCH   3  20
ENDBRANCH  14   3
ENDBRANCH   8  14
BRANCH  10  15
ATOM     15  C   UNL     1      -5.086 -10.262  11.449  0.00  0.00    +0.105 C 
BRANCH  15  19
ATOM      1  O   UNL     1      -6.849  -8.924  10.419  0.00  0.00    -0.420 OA
ATOM      4  N   UNL     1      -5.458  -9.888   8.957  0.00  0.00    -0.112 NA
ATOM      5  N   UNL     1      -6.397  -9.169   8.242  0.00  0.00    -0.107 NA
ATOM     19  C   UNL     1      -5.760  -9.716  10.222  0.00  0.00    +0.218 A 
ATOM     22  C   UNL     1      -7.188  -8.623   9.135  0.00  0.00    +0.250 A 
BRANCH  22  25
ATOM      6  N   UNL     1     -10.682  -7.377   9.382  0.00  0.00    -0.263 NA
ATOM     25  C   UNL     1      -8.333  -7.775   8.972  0.00  0.00    +0.057 A 
ATOM     29  C   UNL     1      -8.243  -6.572   8.278  0.00  0.00    +0.016 A 
ATOM     30  C   UNL     1      -9.565  -8.128   9.499  0.00  0.00    +0.124 A 
ATOM     32  C   UNL     1      -9.371  -5.773   8.136  0.00  0.00    +0.020 A 
ATOM     33  C   UNL     1     -10.556  -6.215   8.701  0.00  0.00    +0.111 A 
ENDBRANCH  22  25
ENDBRANCH  15  19
ENDBRANCH  10  15
TORSDOF 9
ENDMDL
MODEL 5
REMARK VINA RESULT:      -6.3     24.908     28.650
REMARK  Name = 38030412
REMARK  13 active torsions:
REMARK  status: ('A' for Active; 'I' for Inactive)
REMARK    1  A    between atoms: O_2  and  C_23
REMARK    2  A    between atoms: O_2  and  C_31
REMARK    3  A    between atoms: N_3  and  C_14
REMARK    4  A    between atoms: N_3  and  C_20
REMARK    5  A    between atoms: C_7  and  C_11
REMARK    6  A    between atoms: C_8  and  C_14
REMARK    7  A    between atoms: C_10  and  C_15
REMARK    8  A    between atoms: C_11  and  C_16
REMARK    9  A    between atoms: C_11  and  C_17
REMARK   10  A    between atoms: C_12  and  C_18
REMARK   11  A    between atoms: C_15  and  C_19
REMARK   12  A    between atoms: C_20  and  C_21
REMARK   13  A    between atoms: C_22  and  C_25
REMARK                            x       y       z     vdW  Elec       q    Type
REMARK                         _______ _______ _______ _____ _____    ______ ____
ROOT
ATOM      7  C   UNL     1       8.909   8.723   5.394  0.00  0.00    +0.000 C 
ATOM      8  C   UNL     1       8.625   8.426   6.887  0.00  0.00    +0.029 C 
ATOM      9  C   UNL     1       8.654   7.473   4.540  0.00  0.00    +0.012 C 
ATOM     10  C   UNL     1       9.528   6.281   4.975  0.00  0.00    +0.024 C 
ATOM     12  C   UNL     1       9.511   6.091   6.478  0.00  0.00    -0.073 C 
ATOM     13  C   UNL     1       9.091   7.055   7.316  0.00  0.00    -0.023 C 
ATOM     18  C   UNL     1       9.945   4.747   6.995  0.00  0.00    +0.039 C 
ENDROOT
BRANCH   7  11
ATOM     11  C   UNL     1       8.060   9.888   4.874  0.00  0.00    -0.013 C 
ATOM     16  C   UNL     1       7.104   9.406   3.788  0.00  0.00    +0.007 C 
ATOM     17  C   UNL     1       8.955  11.007   4.349  0.00  0.00    +0.007 C 
ENDBRANCH   7  11
BRANCH   8  14
ATOM     14  C   UNL     1       9.258   9.488   7.793  0.00  0.00    +0.089 C 
BRANCH  14   3
ATOM      3  N   UNL     1      10.625   9.126   8.128  0.00  0.00    -0.311 NA
ATOM     34  H   UNL     1      10.775   9.214   9.133  0.00  0.00    +0.122 HD
BRANCH   3  20
ATOM     20  C   UNL     1      11.580   9.977   7.429  0.00  0.00    +0.120 C 
BRANCH  20  21
ATOM     21  C   UNL     1      12.800   9.210   6.992  0.00  0.00    +0.008 A 
ATOM     23  C   UNL     1      13.916   9.875   6.484  0.00  0.00    +0.124 A 
ATOM     24  C   UNL     1      12.805   7.820   7.098  0.00  0.00    +0.008 A 
ATOM     26  C   UNL     1      15.037   9.149   6.083  0.00  0.00    +0.046 A 
ATOM     27  C   UNL     1      13.926   7.094   6.698  0.00  0.00    +0.001 A 
ATOM     28  C   UNL     1      15.043   7.759   6.190  0.00  0.00    +0.004 A 
BRANCH  23   2
ATOM      2  O   UNL     1      13.927  11.233   6.373  0.00  0.00    -0.495 OA
ATOM     31  C   UNL     1      15.170  11.844   6.030  0.00  0.00    +0.277 C 
ENDBRANCH  23   2
ENDBRANCH  20  21
ENDBRANCH   3  20
ENDBRANCH  14   3
ENDBRANCH   8  14
BRANCH  10  15
ATOM     15  C   UNL     1      10.963   6.431   4.458  0.00  0.00    +0.105 C 
BRANCH  15  19
ATOM      1  O   UNL     1      12.384   5.545   2.682  0.00  0.00    -0.420 OA
ATOM      4  N   UNL     1      10.752   4.158   3.327  0.00  0.00    -0.112 NA
ATOM      5  N   UNL     1      11.472   3.534   2.326  0.00  0.00    -0.107 NA
ATOM     19  C   UNL     1      11.320   5.328   3.502  0.00  0.00    +0.218 A 
ATOM     22  C   UNL     1      12.413   4.380   1.979  0.00  0.00    +0.250 A 
BRANCH  22  25
ATOM      6  N   UNL     1      14.078   4.192  -1.340  0.00  0.00    -0.263 NA
ATOM     25  C   UNL     1      13.449   4.268   0.993  0.00  0.00    +0.057 A 
ATOM     29  C   UNL     1      14.783   4.133   1.365  0.00  0.00    +0.016 A 
ATOM     30  C   UNL     1      13.153   4.292  -0.360  0.00  0.00    +0.124 A 
ATOM     32  C   UNL     1      15.763   4.027   0.385  0.00  0.00    +0.020 A 
ATOM     33  C   UNL     1      15.363   4.061  -0.940  0.00  0.00    +0.111 A 
ENDBRANCH  22  25
ENDBRANCH  15  19
ENDBRANCH  10  15
TORSDOF 9
ENDMDL
MODEL 6
REMARK VINA RESULT:      -6.2      5.343     10.313
REMARK  Name = 38030412
REMARK  13 active torsions:
REMARK  status: ('A' for Active; 'I' for Inactive)
REMARK    1  A    between atoms: O_2  and  C_23
REMARK    2  A    between atoms: O_2  and  C_31
REMARK    3  A    between atoms: N_3  and  C_14
REMARK    4  A    between atoms: N_3  and  C_20
REMARK    5  A    between atoms: C_7  and  C_11
REMARK    6  A    between atoms: C_8  and  C_14
REMARK    7  A    between atoms: C_10  and  C_15
REMARK    8  A    between atoms: C_11  and  C_16
REMARK    9  A    between atoms: C_11  and  C_17
REMARK   10  A    between atoms: C_12  and  C_18
REMARK   11  A    between atoms: C_15  and  C_19
REMARK   12  A    between atoms: C_20  and  C_21
REMARK   13  A    between atoms: C_22  and  C_25
REMARK                            x       y       z     vdW  Elec       q    Type
REMARK                         _______ _______ _______ _____ _____    ______ ____
ROOT
ATOM      7  C   UNL     1      -3.739 -10.522  11.584  0.00  0.00    +0.000 C 
ATOM      8  C   UNL     1      -4.858  -9.757  12.332  0.00  0.00    +0.029 C 
ATOM      9  C   UNL     1      -3.544  -9.946  10.175  0.00  0.00    +0.012 C 
ATOM     10  C   UNL     1      -4.831 -10.019   9.332  0.00  0.00    +0.024 C 
ATOM     12  C   UNL     1      -6.039  -9.527  10.105  0.00  0.00    -0.073 C 
ATOM     13  C   UNL     1      -6.028  -9.404  11.444  0.00  0.00    -0.023 C 
ATOM     18  C   UNL     1      -7.246  -9.136   9.298  0.00  0.00    +0.039 C 
ENDROOT
BRANCH   7  11
ATOM     11  C   UNL     1      -2.412 -10.480  12.350  0.00  0.00    -0.013 C 
ATOM     16  C   UNL     1      -1.357  -9.728  11.544  0.00  0.00    +0.007 C 
ATOM     17  C   UNL     1      -1.938 -11.894  12.673  0.00  0.00    +0.007 C 
ENDBRANCH   7  11
BRANCH   8  14
ATOM     14  C   UNL     1      -5.359 -10.553  13.543  0.00  0.00    +0.089 C 
BRANCH  14   3
ATOM      3  N   UNL     1      -4.807 -10.015  14.775  0.00  0.00    -0.311 NA
ATOM     34  H   UNL     1      -4.127 -10.666  15.168  0.00  0.00    +0.122 HD
BRANCH   3  20
ATOM     20  C   UNL     1      -5.856  -9.771  15.757  0.00  0.00    +0.120 C 
BRANCH  20  21
ATOM     21  C   UNL     1      -5.542 -10.412  17.083  0.00  0.00    +0.008 A 
ATOM     23  C   UNL     1      -6.431 -10.309  18.153  0.00  0.00    +0.124 A 
ATOM     24  C   UNL     1      -4.347 -11.113  17.235  0.00  0.00    +0.008 A 
ATOM     26  C   UNL     1      -6.124 -10.908  19.375  0.00  0.00    +0.046 A 
ATOM     27  C   UNL     1      -4.040 -11.713  18.456  0.00  0.00    +0.001 A 
ATOM     28  C   UNL     1      -4.929 -11.610  19.527  0.00  0.00    +0.004 A 
BRANCH  23   2
ATOM      2  O   UNL     1      -7.603  -9.627  18.022  0.00  0.00    -0.495 OA
ATOM     31  C   UNL     1      -8.803 -10.398  18.003  0.00  0.00    +0.277 C 
ENDBRANCH  23   2
ENDBRANCH  20  21
ENDBRANCH   3  20
ENDBRANCH  14   3
ENDBRANCH   8  14
BRANCH  10  15
ATOM     15  C   UNL     1      -5.063 -11.438   8.800  0.00  0.00    +0.105 C 
BRANCH  15  19
ATOM      1  O   UNL     1      -3.895 -12.240   6.812  0.00  0.00    -0.420 OA
ATOM      4  N   UNL     1      -5.646 -10.918   6.375  0.00  0.00    -0.112 NA
ATOM      5  N   UNL     1      -5.084 -11.295   5.170  0.00  0.00    -0.107 NA
ATOM     19  C   UNL     1      -4.921 -11.492   7.305  0.00  0.00    +0.218 A 
ATOM     22  C   UNL     1      -4.066 -12.065   5.473  0.00  0.00    +0.250 A 
BRANCH  22  25
ATOM      6  N   UNL     1      -1.262 -14.267   4.419  0.00  0.00    -0.263 NA
ATOM     25  C   UNL     1      -3.123 -12.738   4.627  0.00  0.00    +0.057 A 
ATOM     29  C   UNL     1      -3.127 -12.544   3.249  0.00  0.00    +0.016 A 
ATOM     30  C   UNL     1      -2.178 -13.602   5.157  0.00  0.00    +0.124 A 
ATOM     32  C   UNL     1      -2.200 -13.212   2.458  0.00  0.00    +0.020 A 
ATOM     33  C   UNL     1      -1.297 -14.054   3.085  0.00  0.00    +0.111 A 
ENDBRANCH  22  25
ENDBRANCH  15  19
ENDBRANCH  10  15
TORSDOF 9
ENDMDL
MODEL 7
REMARK VINA RESULT:      -6.2      4.368      7.265
REMARK  Name = 38030412
REMARK  13 active torsions:
REMARK  status: ('A' for Active; 'I' for Inactive)
REMARK    1  A    between atoms: O_2  and  C_23
REMARK    2  A    between atoms: O_2  and  C_31
REMARK    3  A    between atoms: N_3  and  C_14
REMARK    4  A    between atoms: N_3  and  C_20
REMARK    5  A    between atoms: C_7  and  C_11
REMARK    6  A    between atoms: C_8  and  C_14
REMARK    7  A    between atoms: C_10  and  C_15
REMARK    8  A    between atoms: C_11  and  C_16
REMARK    9  A    between atoms: C_11  and  C_17
REMARK   10  A    between atoms: C_12  and  C_18
REMARK   11  A    between atoms: C_15  and  C_19
REMARK   12  A    between atoms: C_20  and  C_21
REMARK   13  A    between atoms: C_22  and  C_25
REMARK                            x       y       z     vdW  Elec       q    Type
REMARK                         _______ _______ _______ _____ _____    ______ ____
ROOT
ATOM      7  C   UNL     1      -3.707 -12.757  12.269  0.00  0.00    +0.000 C 
ATOM      8  C   UNL     1      -2.380 -12.408  12.986  0.00  0.00    +0.029 C 
ATOM      9  C   UNL     1      -3.623 -12.395  10.779  0.00  0.00    +0.012 C 
ATOM     10  C   UNL     1      -3.328 -10.900  10.558  0.00  0.00    +0.024 C 
ATOM     12  C   UNL     1      -2.194 -10.415  11.438  0.00  0.00    -0.073 C 
ATOM     13  C   UNL     1      -1.775 -11.108  12.510  0.00  0.00    -0.023 C 
ATOM     18  C   UNL     1      -1.520  -9.134  11.029  0.00  0.00    +0.039 C 
ENDROOT
BRANCH   7  11
ATOM     11  C   UNL     1      -4.065 -14.239  12.424  0.00  0.00    -0.013 C 
ATOM     16  C   UNL     1      -3.089 -15.107  11.636  0.00  0.00    +0.007 C 
ATOM     17  C   UNL     1      -5.500 -14.490  11.970  0.00  0.00    +0.007 C 
ENDBRANCH   7  11
BRANCH   8  14
ATOM     14  C   UNL     1      -2.568 -12.358  14.506  0.00  0.00    +0.089 C 
BRANCH  14   3
ATOM      3  N   UNL     1      -3.426 -11.246  14.880  0.00  0.00    -0.311 NA
ATOM     34  H   UNL     1      -3.376 -10.511  14.174  0.00  0.00    +0.122 HD
BRANCH   3  20
ATOM     20  C   UNL     1      -3.036 -10.693  16.171  0.00  0.00    +0.120 C 
BRANCH  20  21
ATOM     21  C   UNL     1      -4.111 -10.879  17.209  0.00  0.00    +0.008 A 
ATOM     23  C   UNL     1      -5.367 -10.296  17.047  0.00  0.00    +0.124 A 
ATOM     24  C   UNL     1      -3.838 -11.644  18.342  0.00  0.00    +0.008 A 
ATOM     26  C   UNL     1      -6.351 -10.477  18.018  0.00  0.00    +0.046 A 
ATOM     27  C   UNL     1      -4.822 -11.826  19.314  0.00  0.00    +0.001 A 
ATOM     28  C   UNL     1      -6.079 -11.243  19.152  0.00  0.00    +0.004 A 
BRANCH  23   2
ATOM      2  O   UNL     1      -5.650  -9.544  15.946  0.00  0.00    -0.495 OA
ATOM     31  C   UNL     1      -6.805  -9.909  15.193  0.00  0.00    +0.277 C 
ENDBRANCH  23   2
ENDBRANCH  20  21
ENDBRANCH   3  20
ENDBRANCH  14   3
ENDBRANCH   8  14
BRANCH  10  15
ATOM     15  C   UNL     1      -4.586 -10.051  10.768  0.00  0.00    +0.105 C 
BRANCH  15  19
ATOM      1  O   UNL     1      -6.361  -8.936   9.516  0.00  0.00    -0.420 OA
ATOM      4  N   UNL     1      -4.928 -10.090   8.244  0.00  0.00    -0.112 NA
ATOM      5  N   UNL     1      -5.871  -9.516   7.412  0.00  0.00    -0.107 NA
ATOM     19  C   UNL     1      -5.253  -9.725   9.461  0.00  0.00    +0.218 A 
ATOM     22  C   UNL     1      -6.687  -8.853   8.197  0.00  0.00    +0.250 A 
BRANCH  22  25
ATOM      6  N   UNL     1      -9.794  -6.867   8.664  0.00  0.00    -0.263 NA
ATOM     25  C   UNL     1      -7.847  -8.069   7.886  0.00  0.00    +0.057 A 
ATOM     29  C   UNL     1      -8.166  -7.748   6.570  0.00  0.00    +0.016 A 
ATOM     30  C   UNL     1      -8.687  -7.608   8.888  0.00  0.00    +0.124 A 
ATOM     32  C   UNL     1      -9.297  -6.987   6.302  0.00  0.00    +0.020 A 
ATOM     33  C   UNL     1     -10.072  -6.575   7.374  0.00  0.00    +0.111 A 
ENDBRANCH  22  25
ENDBRANCH  15  19
ENDBRANCH  10  15
TORSDOF 9
ENDMDL
MODEL 8
REMARK VINA RESULT:      -6.2     18.324     21.992
REMARK  Name = 38030412
REMARK  13 active torsions:
REMARK  status: ('A' for Active; 'I' for Inactive)
REMARK    1  A    between atoms: O_2  and  C_23
REMARK    2  A    between atoms: O_2  and  C_31
REMARK    3  A    between atoms: N_3  and  C_14
REMARK    4  A    between atoms: N_3  and  C_20
REMARK    5  A    between atoms: C_7  and  C_11
REMARK    6  A    between atoms: C_8  and  C_14
REMARK    7  A    between atoms: C_10  and  C_15
REMARK    8  A    between atoms: C_11  and  C_16
REMARK    9  A    between atoms: C_11  and  C_17
REMARK   10  A    between atoms: C_12  and  C_18
REMARK   11  A    between atoms: C_15  and  C_19
REMARK   12  A    between atoms: C_20  and  C_21
REMARK   13  A    between atoms: C_22  and  C_25
REMARK                            x       y       z     vdW  Elec       q    Type
REMARK                         _______ _______ _______ _____ _____    ______ ____
ROOT
ATOM      7  C   UNL     1     -13.185   8.176  21.218  0.00  0.00    +0.000 C 
ATOM      8  C   UNL     1     -13.895   9.502  21.587  0.00  0.00    +0.029 C 
ATOM      9  C   UNL     1     -14.218   7.083  20.907  0.00  0.00    +0.012 C 
ATOM     10  C   UNL     1     -15.160   6.817  22.096  0.00  0.00    +0.024 C 
ATOM     12  C   UNL     1     -15.694   8.105  22.690  0.00  0.00    -0.073 C 
ATOM     13  C   UNL     1     -15.124   9.296  22.441  0.00  0.00    -0.023 C 
ATOM     18  C   UNL     1     -16.929   7.997  23.542  0.00  0.00    +0.039 C 
ENDROOT
BRANCH   7  11
ATOM     11  C   UNL     1     -12.239   8.350  20.025  0.00  0.00    -0.013 C 
ATOM     16  C   UNL     1     -13.017   8.798  18.791  0.00  0.00    +0.007 C 
ATOM     17  C   UNL     1     -11.487   7.052  19.748  0.00  0.00    +0.007 C 
ENDBRANCH   7  11
BRANCH   8  14
ATOM     14  C   UNL     1     -12.936  10.464  22.297  0.00  0.00    +0.089 C 
BRANCH  14   3
ATOM      3  N   UNL     1     -12.945  10.233  23.732  0.00  0.00    -0.311 NA
ATOM     34  H   UNL     1     -13.890  10.009  24.045  0.00  0.00    +0.122 HD
BRANCH   3  20
ATOM     20  C   UNL     1     -12.469  11.405  24.456  0.00  0.00    +0.120 C 
BRANCH  20  21
ATOM     21  C   UNL     1     -12.102  11.075  25.878  0.00  0.00    +0.008 A 
ATOM     23  C   UNL     1     -12.945  11.428  26.932  0.00  0.00    +0.124 A 
ATOM     24  C   UNL     1     -10.905  10.409  26.136  0.00  0.00    +0.008 A 
ATOM     26  C   UNL     1     -12.590  11.116  28.244  0.00  0.00    +0.046 A 
ATOM     27  C   UNL     1     -10.549  10.095  27.448  0.00  0.00    +0.001 A 
ATOM     28  C   UNL     1     -11.393  10.449  28.503  0.00  0.00    +0.004 A 
BRANCH  23   2
ATOM      2  O   UNL     1     -14.118  12.080  26.698  0.00  0.00    -0.495 OA
ATOM     31  C   UNL     1     -15.320  11.389  27.030  0.00  0.00    +0.277 C 
ENDBRANCH  23   2
ENDBRANCH  20  21
ENDBRANCH   3  20
ENDBRANCH  14   3
ENDBRANCH   8  14
BRANCH  10  15
ATOM     15  C   UNL     1     -14.472   5.964  23.168  0.00  0.00    +0.105 C 
BRANCH  15  19
ATOM      1  O   UNL     1     -15.378   4.273  24.678  0.00  0.00    -0.420 OA
ATOM      4  N   UNL     1     -15.698   3.831  22.509  0.00  0.00    -0.112 NA
ATOM      5  N   UNL     1     -16.257   2.801  23.241  0.00  0.00    -0.107 NA
ATOM     19  C   UNL     1     -15.198   4.667  23.387  0.00  0.00    +0.218 A 
ATOM     22  C   UNL     1     -16.046   3.100  24.501  0.00  0.00    +0.250 A 
BRANCH  22  25
ATOM      6  N   UNL     1     -17.267   0.390  26.734  0.00  0.00    -0.263 NA
ATOM     25  C   UNL     1     -16.404   2.397  25.699  0.00  0.00    +0.057 A 
ATOM     29  C   UNL     1     -16.253   2.986  26.950  0.00  0.00    +0.016 A 
ATOM     30  C   UNL     1     -16.911   1.108  25.646  0.00  0.00    +0.124 A 
ATOM     32  C   UNL     1     -16.610   2.278  28.092  0.00  0.00    +0.020 A 
ATOM     33  C   UNL     1     -17.107   0.996  27.932  0.00  0.00    +0.111 A 
ENDBRANCH  22  25
ENDBRANCH  15  19
ENDBRANCH  10  15
TORSDOF 9
ENDMDL
MODEL 9
REMARK VINA RESULT:      -6.2      4.378      8.088
REMARK  Name = 38030412
REMARK  13 active torsions:
REMARK  status: ('A' for Active; 'I' for Inactive)
REMARK    1  A    between atoms: O_2  and  C_23
REMARK    2  A    between atoms: O_2  and  C_31
REMARK    3  A    between atoms: N_3  and  C_14
REMARK    4  A    between atoms: N_3  and  C_20
REMARK    5  A    between atoms: C_7  and  C_11
REMARK    6  A    between atoms: C_8  and  C_14
REMARK    7  A    between atoms: C_10  and  C_15
REMARK    8  A    between atoms: C_11  and  C_16
REMARK    9  A    between atoms: C_11  and  C_17
REMARK   10  A    between atoms: C_12  and  C_18
REMARK   11  A    between atoms: C_15  and  C_19
REMARK   12  A    between atoms: C_20  and  C_21
REMARK   13  A    between atoms: C_22  and  C_25
REMARK                            x       y       z     vdW  Elec       q    Type
REMARK                         _______ _______ _______ _____ _____    ______ ____
ROOT
ATOM      7  C   UNL     1      -3.712 -12.005  13.247  0.00  0.00    +0.000 C 
ATOM      8  C   UNL     1      -2.274 -11.767  13.772  0.00  0.00    +0.029 C 
ATOM      9  C   UNL     1      -3.735 -11.975  11.712  0.00  0.00    +0.012 C 
ATOM     10  C   UNL     1      -3.226 -10.636  11.148  0.00  0.00    +0.024 C 
ATOM     12  C   UNL     1      -1.938 -10.197  11.815  0.00  0.00    -0.073 C 
ATOM     13  C   UNL     1      -1.522 -10.724  12.980  0.00  0.00    -0.023 C 
ATOM     18  C   UNL     1      -1.113  -9.171  11.087  0.00  0.00    +0.039 C 
ENDROOT
BRANCH   7  11
ATOM     11  C   UNL     1      -4.288 -13.333  13.749  0.00  0.00    -0.013 C 
ATOM     16  C   UNL     1      -3.328 -14.479  13.441  0.00  0.00    +0.007 C 
ATOM     17  C   UNL     1      -5.656 -13.591  13.124  0.00  0.00    +0.007 C 
ENDBRANCH   7  11
BRANCH   8  14
ATOM     14  C   UNL     1      -2.283 -11.375  15.253  0.00  0.00    +0.089 C 
BRANCH  14   3
ATOM      3  N   UNL     1      -3.227 -10.296  15.493  0.00  0.00    -0.311 NA
ATOM     34  H   UNL     1      -2.751  -9.396  15.439  0.00  0.00    +0.122 HD
BRANCH   3  20
ATOM     20  C   UNL     1      -3.851 -10.427  16.804  0.00  0.00    +0.120 C 
BRANCH  20  21
ATOM     21  C   UNL     1      -5.031 -11.363  16.773  0.00  0.00    +0.008 A 
ATOM     23  C   UNL     1      -6.184 -11.032  16.063  0.00  0.00    +0.124 A 
ATOM     24  C   UNL     1      -4.960 -12.571  17.465  0.00  0.00    +0.008 A 
ATOM     26  C   UNL     1      -7.268 -11.910  16.045  0.00  0.00    +0.046 A 
ATOM     27  C   UNL     1      -6.043 -13.449  17.448  0.00  0.00    +0.001 A 
ATOM     28  C   UNL     1      -7.198 -13.119  16.737  0.00  0.00    +0.004 A 
BRANCH  23   2
ATOM      2  O   UNL     1      -6.270  -9.855  15.381  0.00  0.00    -0.495 OA
ATOM     31  C   UNL     1      -6.679  -9.926  14.017  0.00  0.00    +0.277 C 
ENDBRANCH  23   2
ENDBRANCH  20  21
ENDBRANCH   3  20
ENDBRANCH  14   3
ENDBRANCH   8  14
BRANCH  10  15
ATOM     15  C   UNL     1      -4.298  -9.546  11.258  0.00  0.00    +0.105 C 
BRANCH  15  19
ATOM      1  O   UNL     1      -4.722 -10.233   8.954  0.00  0.00    -0.420 OA
ATOM      4  N   UNL     1      -6.063  -8.599   9.685  0.00  0.00    -0.112 NA
ATOM      5  N   UNL     1      -6.412  -8.885   8.379  0.00  0.00    -0.107 NA
ATOM     19  C   UNL     1      -5.075  -9.409   9.979  0.00  0.00    +0.218 A 
ATOM     22  C   UNL     1      -5.604  -9.844   7.993  0.00  0.00    +0.250 A 
BRANCH  22  25
ATOM      6  N   UNL     1      -6.329 -10.845   4.487  0.00  0.00    -0.263 NA
ATOM     25  C   UNL     1      -5.507 -10.532   6.738  0.00  0.00    +0.057 A 
ATOM     29  C   UNL     1      -4.548 -11.519   6.533  0.00  0.00    +0.016 A 
ATOM     30  C   UNL     1      -6.366 -10.236   5.692  0.00  0.00    +0.124 A 
ATOM     32  C   UNL     1      -4.479 -12.168   5.305  0.00  0.00    +0.020 A 
ATOM     33  C   UNL     1      -5.384 -11.799   4.324  0.00  0.00    +0.111 A 
ENDBRANCH  22  25
ENDBRANCH  15  19
ENDBRANCH  10  15
TORSDOF 9
ENDMDL
MODEL 10
REMARK VINA RESULT:      -6.1     24.461     28.643
REMARK  Name = 38030412
REMARK  13 active torsions:
REMARK  status: ('A' for Active; 'I' for Inactive)
REMARK    1  A    between atoms: O_2  and  C_23
REMARK    2  A    between atoms: O_2  and  C_31
REMARK    3  A    between atoms: N_3  and  C_14
REMARK    4  A    between atoms: N_3  and  C_20
REMARK    5  A    between atoms: C_7  and  C_11
REMARK    6  A    between atoms: C_8  and  C_14
REMARK    7  A    between atoms: C_10  and  C_15
REMARK    8  A    between atoms: C_11  and  C_16
REMARK    9  A    between atoms: C_11  and  C_17
REMARK   10  A    between atoms: C_12  and  C_18
REMARK   11  A    between atoms: C_15  and  C_19
REMARK   12  A    between atoms: C_20  and  C_21
REMARK   13  A    between atoms: C_22  and  C_25
REMARK                            x       y       z     vdW  Elec       q    Type
REMARK                         _______ _______ _______ _____ _____    ______ ____
ROOT
ATOM      7  C   UNL     1       9.219   8.120   3.434  0.00  0.00    +0.000 C 
ATOM      8  C   UNL     1       8.165   7.539   4.407  0.00  0.00    +0.029 C 
ATOM      9  C   UNL     1       9.807   7.008   2.552  0.00  0.00    +0.012 C 
ATOM     10  C   UNL     1      10.472   5.895   3.384  0.00  0.00    +0.024 C 
ATOM     12  C   UNL     1       9.593   5.453   4.537  0.00  0.00    -0.073 C 
ATOM     13  C   UNL     1       8.559   6.194   4.972  0.00  0.00    -0.023 C 
ATOM     18  C   UNL     1       9.903   4.115   5.150  0.00  0.00    +0.039 C 
ENDROOT
BRANCH   7  11
ATOM     11  C   UNL     1       8.630   9.226   2.551  0.00  0.00    -0.013 C 
ATOM     16  C   UNL     1       8.712   8.830   1.080  0.00  0.00    +0.007 C 
ATOM     17  C   UNL     1       9.354  10.546   2.798  0.00  0.00    +0.007 C 
ENDBRANCH   7  11
BRANCH   8  14
ATOM     14  C   UNL     1       7.878   8.510   5.558  0.00  0.00    +0.089 C 
BRANCH  14   3
ATOM      3  N   UNL     1       7.958   7.828   6.838  0.00  0.00    -0.311 NA
ATOM     34  H   UNL     1       7.045   7.824   7.292  0.00  0.00    +0.122 HD
BRANCH   3  20
ATOM     20  C   UNL     1       8.924   8.475   7.718  0.00  0.00    +0.120 C 
BRANCH  20  21
ATOM     21  C   UNL     1      10.309   7.909   7.544  0.00  0.00    +0.008 A 
ATOM     23  C   UNL     1      10.572   6.570   7.826  0.00  0.00    +0.124 A 
ATOM     24  C   UNL     1      11.333   8.742   7.095  0.00  0.00    +0.008 A 
ATOM     26  C   UNL     1      11.860   6.062   7.660  0.00  0.00    +0.046 A 
ATOM     27  C   UNL     1      12.622   8.234   6.928  0.00  0.00    +0.001 A 
ATOM     28  C   UNL     1      12.885   6.893   7.211  0.00  0.00    +0.004 A 
BRANCH  23   2
ATOM      2  O   UNL     1       9.582   5.743   8.267  0.00  0.00    -0.495 OA
ATOM     31  C   UNL     1       9.771   5.127   9.539  0.00  0.00    +0.277 C 
ENDBRANCH  23   2
ENDBRANCH  20  21
ENDBRANCH   3  20
ENDBRANCH  14   3
ENDBRANCH   8  14
BRANCH  10  15
ATOM     15  C   UNL     1      11.854   6.330   3.884  0.00  0.00    +0.105 C 
BRANCH  15  19
ATOM      1  O   UNL     1      13.180   5.849   1.891  0.00  0.00    -0.420 OA
ATOM      4  N   UNL     1      13.125   8.013   2.456  0.00  0.00    -0.112 NA
ATOM      5  N   UNL     1      13.903   7.887   1.321  0.00  0.00    -0.107 NA
ATOM     19  C   UNL     1      12.724   6.800   2.752  0.00  0.00    +0.218 A 
ATOM     22  C   UNL     1      13.908   6.608   1.028  0.00  0.00    +0.250 A 
BRANCH  22  25
ATOM      6  N   UNL     1      14.645   5.363  -2.397  0.00  0.00    -0.263 NA
ATOM     25  C   UNL     1      14.550   5.900  -0.042  0.00  0.00    +0.057 A 
ATOM     29  C   UNL     1      15.654   5.087   0.196  0.00  0.00    +0.016 A 
ATOM     30  C   UNL     1      14.089   6.002  -1.345  0.00  0.00    +0.124 A 
ATOM     32  C   UNL     1      16.253   4.413  -0.863  0.00  0.00    +0.020 A 
ATOM     33  C   UNL     1      15.716   4.582  -2.128  0.00  0.00    +0.111 A 
ENDBRANCH  22  25
ENDBRANCH  15  19
ENDBRANCH  10  15
TORSDOF 9
ENDMDL
