MODEL 1
REMARK VINA RESULT:      -6.4      0.000      0.000
REMARK  Name = 40781602
REMARK  9 active torsions:
REMARK  status: ('A' for Active; 'I' for Inactive)
REMARK    1  A    between atoms: O_2  and  C_9
REMARK    2  A    between atoms: O_3  and  C_10
REMARK    3  A    between atoms: N_7  and  C_13
REMARK    4  A    between atoms: N_8  and  C_18
REMARK    5  A    between atoms: C_11  and  C_13
REMARK    6  A    between atoms: C_12  and  C_14
REMARK    7  A    between atoms: C_14  and  C_15
REMARK    8  A    between atoms: C_16  and  C_17
REMARK    9  A    between atoms: C_18  and  C_21
REMARK                            x       y       z     vdW  Elec       q    Type
REMARK                         _______ _______ _______ _____ _____    ______ ____
ROOT
ATOM      1  O   UNL     1      12.754   8.188  22.172  0.00  0.00    -0.366 OA
ATOM      9  C   UNL     1      12.145   7.129  20.155  0.00  0.00    +0.176 C 
ATOM     10  C   UNL     1      11.113   6.764  21.201  0.00  0.00    +0.175 C 
ATOM     11  C   UNL     1      13.324   7.542  21.020  0.00  0.00    +0.167 C 
ATOM     12  C   UNL     1      11.358   7.823  22.270  0.00  0.00    +0.158 C 
ENDROOT
BRANCH   9   2
ATOM      2  O   UNL     1      12.470   6.060  19.292  0.00  0.00    -0.387 OA
ATOM     24  H   UNL     1      13.352   6.238  18.924  0.00  0.00    +0.210 HD
ENDBRANCH   9   2
BRANCH  10   3
ATOM      3  O   UNL     1      11.411   5.487  21.767  0.00  0.00    -0.387 OA
ATOM     25  H   UNL     1      12.344   5.295  21.571  0.00  0.00    +0.210 HD
ENDBRANCH  10   3
BRANCH  11  13
ATOM     13  C   UNL     1      14.279   8.493  20.321  0.00  0.00    +0.138 C 
BRANCH  13   7
ATOM      5  O   UNL     1      15.630   6.254  19.135  0.00  0.00    -0.267 OA
ATOM      7  N   UNL     1      15.643   8.106  20.534  0.00  0.00    -0.306 N 
ATOM     16  C   UNL     1      16.220   7.000  19.915  0.00  0.00    +0.279 C 
ATOM     26  H   UNL     1      16.198   8.674  21.165  0.00  0.00    +0.149 HD
BRANCH  16  17
ATOM      6  O   UNL     1      18.216   5.618  19.710  0.00  0.00    -0.458 OA
ATOM     17  C   UNL     1      17.635   6.717  20.259  0.00  0.00    +0.189 A 
ATOM     19  C   UNL     1      18.529   7.382  21.068  0.00  0.00    +0.054 A 
ATOM     20  C   UNL     1      19.735   6.644  21.012  0.00  0.00    +0.042 A 
ATOM     22  C   UNL     1      19.494   5.580  20.173  0.00  0.00    +0.196 A 
ENDBRANCH  16  17
ENDBRANCH  13   7
ENDBRANCH  11  13
BRANCH  12  14
ATOM     14  C   UNL     1      10.531   9.085  22.059  0.00  0.00    +0.130 C 
BRANCH  14  15
ATOM      4  O   UNL     1      11.678  11.190  21.745  0.00  0.00    -0.276 OA
ATOM      8  N   UNL     1      11.359  10.385  23.901  0.00  0.00    -0.304 N 
ATOM     15  C   UNL     1      11.252  10.338  22.520  0.00  0.00    +0.216 C 
ATOM     27  H   UNL     1      10.984   9.619  24.454  0.00  0.00    +0.150 HD
BRANCH   8  18
ATOM     18  C   UNL     1      12.003  11.470  24.606  0.00  0.00    +0.193 C 
BRANCH  18  21
ATOM     21  C   UNL     1      11.086  12.595  24.791  0.00  0.00    -0.087 C 
ATOM     23  C   UNL     1      10.334  13.518  24.947  0.00  0.00    +0.005 C 
ENDBRANCH  18  21
ENDBRANCH   8  18
ENDBRANCH  14  15
ENDBRANCH  12  14
TORSDOF 9
ENDMDL
MODEL 2
REMARK VINA RESULT:      -6.2      1.891      2.458
REMARK  Name = 40781602
REMARK  9 active torsions:
REMARK  status: ('A' for Active; 'I' for Inactive)
REMARK    1  A    between atoms: O_2  and  C_9
REMARK    2  A    between atoms: O_3  and  C_10
REMARK    3  A    between atoms: N_7  and  C_13
REMARK    4  A    between atoms: N_8  and  C_18
REMARK    5  A    between atoms: C_11  and  C_13
REMARK    6  A    between atoms: C_12  and  C_14
REMARK    7  A    between atoms: C_14  and  C_15
REMARK    8  A    between atoms: C_16  and  C_17
REMARK    9  A    between atoms: C_18  and  C_21
REMARK                            x       y       z     vdW  Elec       q    Type
REMARK                         _______ _______ _______ _____ _____    ______ ____
ROOT
ATOM      1  O   UNL     1      11.536   8.761  21.049  0.00  0.00    -0.366 OA
ATOM      9  C   UNL     1      12.390   7.644  19.157  0.00  0.00    +0.176 C 
ATOM     10  C   UNL     1      11.737   8.926  18.684  0.00  0.00    +0.175 C 
ATOM     11  C   UNL     1      11.724   7.442  20.507  0.00  0.00    +0.167 C 
ATOM     12  C   UNL     1      11.640   9.727  19.978  0.00  0.00    +0.158 C 
ENDROOT
BRANCH   9   2
ATOM      2  O   UNL     1      12.170   6.552  18.289  0.00  0.00    -0.387 OA
ATOM     24  H   UNL     1      12.965   6.454  17.736  0.00  0.00    +0.210 HD
ENDBRANCH   9   2
BRANCH  10   3
ATOM      3  O   UNL     1      10.411   8.667  18.224  0.00  0.00    -0.387 OA
ATOM     25  H   UNL     1      10.402   7.764  17.863  0.00  0.00    +0.210 HD
ENDBRANCH  10   3
BRANCH  11  13
ATOM     13  C   UNL     1      12.553   6.607  21.468  0.00  0.00    +0.138 C 
BRANCH  13   7
ATOM      5  O   UNL     1      15.031   7.905  22.114  0.00  0.00    -0.267 OA
ATOM      7  N   UNL     1      13.843   6.312  20.917  0.00  0.00    -0.306 N 
ATOM     16  C   UNL     1      14.998   6.995  21.289  0.00  0.00    +0.279 C 
ATOM     26  H   UNL     1      13.898   5.569  20.228  0.00  0.00    +0.149 HD
BRANCH  16  17
ATOM      6  O   UNL     1      16.147   5.969  19.401  0.00  0.00    -0.458 OA
ATOM     17  C   UNL     1      16.252   6.587  20.607  0.00  0.00    +0.189 A 
ATOM     19  C   UNL     1      17.573   6.718  20.970  0.00  0.00    +0.054 A 
ATOM     20  C   UNL     1      18.328   6.143  19.919  0.00  0.00    +0.042 A 
ATOM     22  C   UNL     1      17.415   5.702  18.989  0.00  0.00    +0.196 A 
ENDBRANCH  16  17
ENDBRANCH  13   7
ENDBRANCH  11  13
BRANCH  12  14
ATOM     14  C   UNL     1      12.870  10.585  20.243  0.00  0.00    +0.130 C 
BRANCH  14  15
ATOM      4  O   UNL     1      13.274  12.823  21.065  0.00  0.00    -0.276 OA
ATOM      8  N   UNL     1      11.361  11.693  21.747  0.00  0.00    -0.304 N 
ATOM     15  C   UNL     1      12.551  11.830  21.049  0.00  0.00    +0.216 C 
ATOM     27  H   UNL     1      10.842  10.822  21.677  0.00  0.00    +0.150 HD
BRANCH   8  18
ATOM     18  C   UNL     1      10.820  12.730  22.596  0.00  0.00    +0.193 C 
BRANCH  18  21
ATOM     21  C   UNL     1      10.926  12.363  24.008  0.00  0.00    -0.087 C 
ATOM     23  C   UNL     1      11.012  12.066  25.168  0.00  0.00    +0.005 C 
ENDBRANCH  18  21
ENDBRANCH   8  18
ENDBRANCH  14  15
ENDBRANCH  12  14
TORSDOF 9
ENDMDL
MODEL 3
REMARK VINA RESULT:      -6.0     15.540     17.143
REMARK  Name = 40781602
REMARK  9 active torsions:
REMARK  status: ('A' for Active; 'I' for Inactive)
REMARK    1  A    between atoms: O_2  and  C_9
REMARK    2  A    between atoms: O_3  and  C_10
REMARK    3  A    between atoms: N_7  and  C_13
REMARK    4  A    between atoms: N_8  and  C_18
REMARK    5  A    between atoms: C_11  and  C_13
REMARK    6  A    between atoms: C_12  and  C_14
REMARK    7  A    between atoms: C_14  and  C_15
REMARK    8  A    between atoms: C_16  and  C_17
REMARK    9  A    between atoms: C_18  and  C_21
REMARK                            x       y       z     vdW  Elec       q    Type
REMARK                         _______ _______ _______ _____ _____    ______ ____
ROOT
ATOM      1  O   UNL     1      10.956   6.887   7.296  0.00  0.00    -0.366 OA
ATOM      9  C   UNL     1       9.897   5.028   6.304  0.00  0.00    +0.176 C 
ATOM     10  C   UNL     1       9.740   4.906   7.806  0.00  0.00    +0.175 C 
ATOM     11  C   UNL     1      11.086   5.968   6.198  0.00  0.00    +0.167 C 
ATOM     12  C   UNL     1      10.050   6.324   8.272  0.00  0.00    +0.158 C 
ENDROOT
BRANCH   9   2
ATOM      2  O   UNL     1      10.138   3.793   5.665  0.00  0.00    -0.387 OA
ATOM     24  H   UNL     1      10.722   3.965   4.907  0.00  0.00    +0.210 HD
ENDBRANCH   9   2
BRANCH  10   3
ATOM      3  O   UNL     1      10.738   4.037   8.340  0.00  0.00    -0.387 OA
ATOM     25  H   UNL     1      11.364   3.839   7.622  0.00  0.00    +0.210 HD
ENDBRANCH  10   3
BRANCH  11  13
ATOM     13  C   UNL     1      11.130   6.737   4.889  0.00  0.00    +0.138 C 
BRANCH  13   7
ATOM      5  O   UNL     1      10.402   4.924   2.786  0.00  0.00    -0.267 OA
ATOM      7  N   UNL     1      12.017   6.115   3.952  0.00  0.00    -0.306 N 
ATOM     16  C   UNL     1      11.577   5.243   2.958  0.00  0.00    +0.279 C 
ATOM     26  H   UNL     1      13.006   6.330   4.028  0.00  0.00    +0.149 HD
BRANCH  16  17
ATOM      6  O   UNL     1      13.627   5.476   1.661  0.00  0.00    -0.458 OA
ATOM     17  C   UNL     1      12.624   4.661   2.083  0.00  0.00    +0.189 A 
ATOM     19  C   UNL     1      12.794   3.389   1.585  0.00  0.00    +0.054 A 
ATOM     20  C   UNL     1      13.977   3.426   0.808  0.00  0.00    +0.042 A 
ATOM     22  C   UNL     1      14.445   4.717   0.886  0.00  0.00    +0.196 A 
ENDBRANCH  16  17
ENDBRANCH  13   7
ENDBRANCH  11  13
BRANCH  12  14
ATOM     14  C   UNL     1       8.816   7.216   8.330  0.00  0.00    +0.130 C 
BRANCH  14  15
ATOM      4  O   UNL     1       9.589   9.506   8.254  0.00  0.00    -0.276 OA
ATOM      8  N   UNL     1       8.558   8.596   6.381  0.00  0.00    -0.304 N 
ATOM     15  C   UNL     1       9.043   8.568   7.680  0.00  0.00    +0.216 C 
ATOM     27  H   UNL     1       8.108   7.767   6.002  0.00  0.00    +0.150 HD
BRANCH   8  18
ATOM     18  C   UNL     1       8.643   9.762   5.532  0.00  0.00    +0.193 C 
BRANCH  18  21
ATOM     21  C   UNL     1       7.481   9.856   4.649  0.00  0.00    -0.087 C 
ATOM     23  C   UNL     1       6.529   9.934   3.920  0.00  0.00    +0.005 C 
ENDBRANCH  18  21
ENDBRANCH   8  18
ENDBRANCH  14  15
ENDBRANCH  12  14
TORSDOF 9
ENDMDL
MODEL 4
REMARK VINA RESULT:      -5.9     16.458     18.201
REMARK  Name = 40781602
REMARK  9 active torsions:
REMARK  status: ('A' for Active; 'I' for Inactive)
REMARK    1  A    between atoms: O_2  and  C_9
REMARK    2  A    between atoms: O_3  and  C_10
REMARK    3  A    between atoms: N_7  and  C_13
REMARK    4  A    between atoms: N_8  and  C_18
REMARK    5  A    between atoms: C_11  and  C_13
REMARK    6  A    between atoms: C_12  and  C_14
REMARK    7  A    between atoms: C_14  and  C_15
REMARK    8  A    between atoms: C_16  and  C_17
REMARK    9  A    between atoms: C_18  and  C_21
REMARK                            x       y       z     vdW  Elec       q    Type
REMARK                         _______ _______ _______ _____ _____    ______ ____
ROOT
ATOM      1  O   UNL     1      10.487   6.843   5.907  0.00  0.00    -0.366 OA
ATOM      9  C   UNL     1       9.738   4.739   6.664  0.00  0.00    +0.176 C 
ATOM     10  C   UNL     1       9.944   5.624   7.877  0.00  0.00    +0.175 C 
ATOM     11  C   UNL     1      10.603   5.437   5.627  0.00  0.00    +0.167 C 
ATOM     12  C   UNL     1       9.982   7.014   7.251  0.00  0.00    +0.158 C 
ENDROOT
BRANCH   9   2
ATOM      2  O   UNL     1      10.137   3.401   6.874  0.00  0.00    -0.387 OA
ATOM     24  H   UNL     1       9.359   2.909   7.185  0.00  0.00    +0.210 HD
ENDBRANCH   9   2
BRANCH  10   3
ATOM      3  O   UNL     1      11.219   5.368   8.465  0.00  0.00    -0.387 OA
ATOM     25  H   UNL     1      11.378   4.411   8.407  0.00  0.00    +0.210 HD
ENDBRANCH  10   3
BRANCH  11  13
ATOM     13  C   UNL     1      10.169   5.161   4.199  0.00  0.00    +0.138 C 
BRANCH  13   7
ATOM      5  O   UNL     1      10.090   4.175   1.503  0.00  0.00    -0.267 OA
ATOM      7  N   UNL     1      11.295   4.856   3.366  0.00  0.00    -0.306 N 
ATOM     16  C   UNL     1      11.165   4.379   2.064  0.00  0.00    +0.279 C 
ATOM     26  H   UNL     1      12.220   5.000   3.757  0.00  0.00    +0.149 HD
BRANCH  16  17
ATOM      6  O   UNL     1      12.366   3.922  -0.007  0.00  0.00    -0.458 OA
ATOM     17  C   UNL     1      12.427   4.086   1.341  0.00  0.00    +0.189 A 
ATOM     19  C   UNL     1      13.722   3.940   1.786  0.00  0.00    +0.054 A 
ATOM     20  C   UNL     1      14.504   3.669   0.639  0.00  0.00    +0.042 A 
ATOM     22  C   UNL     1      13.633   3.668  -0.427  0.00  0.00    +0.196 A 
ENDBRANCH  16  17
ENDBRANCH  13   7
ENDBRANCH  11  13
BRANCH  12  14
ATOM     14  C   UNL     1       8.607   7.662   7.153  0.00  0.00    +0.130 C 
BRANCH  14  15
ATOM      4  O   UNL     1       8.891   9.733   5.938  0.00  0.00    -0.276 OA
ATOM      8  N   UNL     1       7.843   7.941   4.893  0.00  0.00    -0.304 N 
ATOM     15  C   UNL     1       8.478   8.576   5.950  0.00  0.00    +0.216 C 
ATOM     27  H   UNL     1       7.525   6.983   5.010  0.00  0.00    +0.150 HD
BRANCH   8  18
ATOM     18  C   UNL     1       7.588   8.583   3.624  0.00  0.00    +0.193 C 
BRANCH  18  21
ATOM     21  C   UNL     1       8.577   8.183   2.623  0.00  0.00    -0.087 C 
ATOM     23  C   UNL     1       9.391   7.856   1.803  0.00  0.00    +0.005 C 
ENDBRANCH  18  21
ENDBRANCH   8  18
ENDBRANCH  14  15
ENDBRANCH  12  14
TORSDOF 9
ENDMDL
MODEL 5
REMARK VINA RESULT:      -5.8      2.860      6.950
REMARK  Name = 40781602
REMARK  9 active torsions:
REMARK  status: ('A' for Active; 'I' for Inactive)
REMARK    1  A    between atoms: O_2  and  C_9
REMARK    2  A    between atoms: O_3  and  C_10
REMARK    3  A    between atoms: N_7  and  C_13
REMARK    4  A    between atoms: N_8  and  C_18
REMARK    5  A    between atoms: C_11  and  C_13
REMARK    6  A    between atoms: C_12  and  C_14
REMARK    7  A    between atoms: C_14  and  C_15
REMARK    8  A    between atoms: C_16  and  C_17
REMARK    9  A    between atoms: C_18  and  C_21
REMARK                            x       y       z     vdW  Elec       q    Type
REMARK                         _______ _______ _______ _____ _____    ______ ____
ROOT
ATOM      1  O   UNL     1      11.470   6.893  20.530  0.00  0.00    -0.366 OA
ATOM      9  C   UNL     1      13.227   8.219  21.375  0.00  0.00    +0.176 C 
ATOM     10  C   UNL     1      13.787   7.360  20.260  0.00  0.00    +0.175 C 
ATOM     11  C   UNL     1      11.977   7.445  21.758  0.00  0.00    +0.167 C 
ATOM     12  C   UNL     1      12.521   6.915  19.537  0.00  0.00    +0.158 C 
ENDROOT
BRANCH   9   2
ATOM      2  O   UNL     1      14.113   8.369  22.465  0.00  0.00    -0.387 OA
ATOM     24  H   UNL     1      14.133   9.312  22.698  0.00  0.00    +0.210 HD
ENDBRANCH   9   2
BRANCH  10   3
ATOM      3  O   UNL     1      14.420   6.200  20.799  0.00  0.00    -0.387 OA
ATOM     25  H   UNL     1      14.473   6.320  21.762  0.00  0.00    +0.210 HD
ENDBRANCH  10   3
BRANCH  11  13
ATOM     13  C   UNL     1      10.911   8.308  22.410  0.00  0.00    +0.138 C 
BRANCH  13   7
ATOM      5  O   UNL     1      10.978  10.629  24.099  0.00  0.00    -0.267 OA
ATOM      7  N   UNL     1      11.018   9.672  21.985  0.00  0.00    -0.306 N 
ATOM     16  C   UNL     1      11.043  10.742  22.876  0.00  0.00    +0.279 C 
ATOM     26  H   UNL     1      11.078   9.849  20.988  0.00  0.00    +0.149 HD
BRANCH  16  17
ATOM      6  O   UNL     1      11.766  12.223  21.081  0.00  0.00    -0.458 OA
ATOM     17  C   UNL     1      11.131  12.097  22.276  0.00  0.00    +0.189 A 
ATOM     19  C   UNL     1      10.672  13.319  22.710  0.00  0.00    +0.054 A 
ATOM     20  C   UNL     1      11.049  14.256  21.718  0.00  0.00    +0.042 A 
ATOM     22  C   UNL     1      11.712  13.540  20.749  0.00  0.00    +0.196 A 
ENDBRANCH  16  17
ENDBRANCH  13   7
ENDBRANCH  11  13
BRANCH  12  14
ATOM     14  C   UNL     1      12.097   7.874  18.432  0.00  0.00    +0.130 C 
BRANCH  14  15
ATOM      4  O   UNL     1      13.843   7.364  16.838  0.00  0.00    -0.276 OA
ATOM      8  N   UNL     1      13.483   9.575  17.455  0.00  0.00    -0.304 N 
ATOM     15  C   UNL     1      13.234   8.212  17.485  0.00  0.00    +0.216 C 
ATOM     27  H   UNL     1      12.929  10.193  18.042  0.00  0.00    +0.150 HD
BRANCH   8  18
ATOM     18  C   UNL     1      14.514  10.171  16.637  0.00  0.00    +0.193 C 
BRANCH  18  21
ATOM     21  C   UNL     1      14.444  11.631  16.681  0.00  0.00    -0.087 C 
ATOM     23  C   UNL     1      14.385  12.830  16.721  0.00  0.00    +0.005 C 
ENDBRANCH  18  21
ENDBRANCH   8  18
ENDBRANCH  14  15
ENDBRANCH  12  14
TORSDOF 9
ENDMDL
MODEL 6
REMARK VINA RESULT:      -5.8      1.929      7.411
REMARK  Name = 40781602
REMARK  9 active torsions:
REMARK  status: ('A' for Active; 'I' for Inactive)
REMARK    1  A    between atoms: O_2  and  C_9
REMARK    2  A    between atoms: O_3  and  C_10
REMARK    3  A    between atoms: N_7  and  C_13
REMARK    4  A    between atoms: N_8  and  C_18
REMARK    5  A    between atoms: C_11  and  C_13
REMARK    6  A    between atoms: C_12  and  C_14
REMARK    7  A    between atoms: C_14  and  C_15
REMARK    8  A    between atoms: C_16  and  C_17
REMARK    9  A    between atoms: C_18  and  C_21
REMARK                            x       y       z     vdW  Elec       q    Type
REMARK                         _______ _______ _______ _____ _____    ______ ____
ROOT
ATOM      1  O   UNL     1      13.718   8.798  19.637  0.00  0.00    -0.366 OA
ATOM      9  C   UNL     1      12.527   7.340  18.217  0.00  0.00    +0.176 C 
ATOM     10  C   UNL     1      13.966   7.378  17.743  0.00  0.00    +0.175 C 
ATOM     11  C   UNL     1      12.433   8.632  19.011  0.00  0.00    +0.167 C 
ATOM     12  C   UNL     1      14.682   7.962  18.956  0.00  0.00    +0.158 C 
ENDROOT
BRANCH   9   2
ATOM      2  O   UNL     1      11.592   7.299  17.160  0.00  0.00    -0.387 OA
ATOM     24  H   UNL     1      11.281   6.381  17.080  0.00  0.00    +0.210 HD
ENDBRANCH   9   2
BRANCH  10   3
ATOM      3  O   UNL     1      14.107   8.298  16.661  0.00  0.00    -0.387 OA
ATOM     25  H   UNL     1      14.493   7.809  15.914  0.00  0.00    +0.210 HD
ENDBRANCH  10   3
BRANCH  11  13
ATOM     13  C   UNL     1      11.347   8.608  20.072  0.00  0.00    +0.138 C 
BRANCH  13   7
ATOM      5  O   UNL     1      10.811   8.479  22.890  0.00  0.00    -0.267 OA
ATOM      7  N   UNL     1      11.534   9.660  21.027  0.00  0.00    -0.306 N 
ATOM     16  C   UNL     1      11.247   9.511  22.382  0.00  0.00    +0.279 C 
ATOM     26  H   UNL     1      11.892  10.545  20.685  0.00  0.00    +0.149 HD
BRANCH  16  17
ATOM      6  O   UNL     1      10.493  11.045  24.119  0.00  0.00    -0.458 OA
ATOM     17  C   UNL     1      11.469  10.703  23.237  0.00  0.00    +0.189 A 
ATOM     19  C   UNL     1      12.526  11.581  23.323  0.00  0.00    +0.054 A 
ATOM     20  C   UNL     1      12.176  12.522  24.321  0.00  0.00    +0.042 A 
ATOM     22  C   UNL     1      10.930  12.153  24.774  0.00  0.00    +0.196 A 
ENDBRANCH  16  17
ENDBRANCH  13   7
ENDBRANCH  11  13
BRANCH  12  14
ATOM     14  C   UNL     1      15.153   6.899  19.940  0.00  0.00    +0.130 C 
BRANCH  14  15
ATOM      4  O   UNL     1      16.641   5.628  18.519  0.00  0.00    -0.276 OA
ATOM      8  N   UNL     1      17.470   6.565  20.477  0.00  0.00    -0.304 N 
ATOM     15  C   UNL     1      16.483   6.287  19.544  0.00  0.00    +0.216 C 
ATOM     27  H   UNL     1      17.232   7.109  21.302  0.00  0.00    +0.150 HD
BRANCH   8  18
ATOM     18  C   UNL     1      18.832   6.101  20.348  0.00  0.00    +0.193 C 
BRANCH  18  21
ATOM     21  C   UNL     1      19.776   7.079  20.891  0.00  0.00    -0.087 C 
ATOM     23  C   UNL     1      20.549   7.879  21.341  0.00  0.00    +0.005 C 
ENDBRANCH  18  21
ENDBRANCH   8  18
ENDBRANCH  14  15
ENDBRANCH  12  14
TORSDOF 9
ENDMDL
MODEL 7
REMARK VINA RESULT:      -5.8      2.600      4.731
REMARK  Name = 40781602
REMARK  9 active torsions:
REMARK  status: ('A' for Active; 'I' for Inactive)
REMARK    1  A    between atoms: O_2  and  C_9
REMARK    2  A    between atoms: O_3  and  C_10
REMARK    3  A    between atoms: N_7  and  C_13
REMARK    4  A    between atoms: N_8  and  C_18
REMARK    5  A    between atoms: C_11  and  C_13
REMARK    6  A    between atoms: C_12  and  C_14
REMARK    7  A    between atoms: C_14  and  C_15
REMARK    8  A    between atoms: C_16  and  C_17
REMARK    9  A    between atoms: C_18  and  C_21
REMARK                            x       y       z     vdW  Elec       q    Type
REMARK                         _______ _______ _______ _____ _____    ______ ____
ROOT
ATOM      1  O   UNL     1      11.542   9.539  20.021  0.00  0.00    -0.366 OA
ATOM      9  C   UNL     1      12.166   9.505  22.294  0.00  0.00    +0.176 C 
ATOM     10  C   UNL     1      11.005   8.549  22.117  0.00  0.00    +0.175 C 
ATOM     11  C   UNL     1      12.016  10.397  21.073  0.00  0.00    +0.167 C 
ATOM     12  C   UNL     1      11.001   8.333  20.607  0.00  0.00    +0.158 C 
ENDROOT
BRANCH   9   2
ATOM      2  O   UNL     1      12.105  10.240  23.498  0.00  0.00    -0.387 OA
ATOM     24  H   UNL     1      11.642  11.074  23.309  0.00  0.00    +0.210 HD
ENDBRANCH   9   2
BRANCH  10   3
ATOM      3  O   UNL     1       9.779   9.185  22.475  0.00  0.00    -0.387 OA
ATOM     25  H   UNL     1       9.969  10.131  22.599  0.00  0.00    +0.210 HD
ENDBRANCH  10   3
BRANCH  11  13
ATOM     13  C   UNL     1      13.315  11.059  20.648  0.00  0.00    +0.138 C 
BRANCH  13   7
ATOM      5  O   UNL     1      15.991  11.380  19.658  0.00  0.00    -0.267 OA
ATOM      7  N   UNL     1      14.441  10.222  20.941  0.00  0.00    -0.306 N 
ATOM     16  C   UNL     1      15.710  10.453  20.414  0.00  0.00    +0.279 C 
ATOM     26  H   UNL     1      14.291   9.434  21.561  0.00  0.00    +0.149 HD
BRANCH  16  17
ATOM      6  O   UNL     1      16.558   8.170  20.498  0.00  0.00    -0.458 OA
ATOM     17  C   UNL     1      16.766   9.480  20.793  0.00  0.00    +0.189 A 
ATOM     19  C   UNL     1      17.981   9.648  21.417  0.00  0.00    +0.054 A 
ATOM     20  C   UNL     1      18.557   8.358  21.510  0.00  0.00    +0.042 A 
ATOM     22  C   UNL     1      17.652   7.494  20.938  0.00  0.00    +0.196 A 
ENDBRANCH  16  17
ENDBRANCH  13   7
ENDBRANCH  11  13
BRANCH  12  14
ATOM     14  C   UNL     1      11.880   7.168  20.169  0.00  0.00    +0.130 C 
BRANCH  14  15
ATOM      4  O   UNL     1      11.820   7.091  17.753  0.00  0.00    -0.276 OA
ATOM      8  N   UNL     1      13.739   7.859  18.815  0.00  0.00    -0.304 N 
ATOM     15  C   UNL     1      12.447   7.357  18.775  0.00  0.00    +0.216 C 
ATOM     27  H   UNL     1      14.176   8.033  19.716  0.00  0.00    +0.150 HD
BRANCH   8  18
ATOM     18  C   UNL     1      14.516   8.133  17.627  0.00  0.00    +0.193 C 
BRANCH  18  21
ATOM     21  C   UNL     1      14.276   9.492  17.142  0.00  0.00    -0.087 C 
ATOM     23  C   UNL     1      14.076  10.608  16.747  0.00  0.00    +0.005 C 
ENDBRANCH  18  21
ENDBRANCH   8  18
ENDBRANCH  14  15
ENDBRANCH  12  14
TORSDOF 9
ENDMDL
MODEL 8
REMARK VINA RESULT:      -5.8      3.653      6.012
REMARK  Name = 40781602
REMARK  9 active torsions:
REMARK  status: ('A' for Active; 'I' for Inactive)
REMARK    1  A    between atoms: O_2  and  C_9
REMARK    2  A    between atoms: O_3  and  C_10
REMARK    3  A    between atoms: N_7  and  C_13
REMARK    4  A    between atoms: N_8  and  C_18
REMARK    5  A    between atoms: C_11  and  C_13
REMARK    6  A    between atoms: C_12  and  C_14
REMARK    7  A    between atoms: C_14  and  C_15
REMARK    8  A    between atoms: C_16  and  C_17
REMARK    9  A    between atoms: C_18  and  C_21
REMARK                            x       y       z     vdW  Elec       q    Type
REMARK                         _______ _______ _______ _____ _____    ______ ____
ROOT
ATOM      1  O   UNL     1      13.198   7.480  20.088  0.00  0.00    -0.366 OA
ATOM      9  C   UNL     1      11.616   8.595  18.742  0.00  0.00    +0.176 C 
ATOM     10  C   UNL     1      11.135   8.663  20.177  0.00  0.00    +0.175 C 
ATOM     11  C   UNL     1      12.571   7.415  18.795  0.00  0.00    +0.167 C 
ATOM     12  C   UNL     1      12.405   8.327  20.951  0.00  0.00    +0.158 C 
ENDROOT
BRANCH   9   2
ATOM      2  O   UNL     1      10.572   8.392  17.812  0.00  0.00    -0.387 OA
ATOM     24  H   UNL     1       9.758   8.752  18.203  0.00  0.00    +0.210 HD
ENDBRANCH   9   2
BRANCH  10   3
ATOM      3  O   UNL     1      10.179   7.634  20.428  0.00  0.00    -0.387 OA
ATOM     25  H   UNL     1      10.512   6.821  20.012  0.00  0.00    +0.210 HD
ENDBRANCH  10   3
BRANCH  11  13
ATOM     13  C   UNL     1      13.632   7.451  17.709  0.00  0.00    +0.138 C 
BRANCH  13   7
ATOM      5  O   UNL     1      12.941   8.624  15.181  0.00  0.00    -0.267 OA
ATOM      7  N   UNL     1      13.898   8.795  17.289  0.00  0.00    -0.306 N 
ATOM     16  C   UNL     1      13.525   9.283  16.038  0.00  0.00    +0.279 C 
ATOM     26  H   UNL     1      14.377   9.404  17.943  0.00  0.00    +0.149 HD
BRANCH  16  17
ATOM      6  O   UNL     1      13.793  11.120  14.459  0.00  0.00    -0.458 OA
ATOM     17  C   UNL     1      13.896  10.690  15.745  0.00  0.00    +0.189 A 
ATOM     19  C   UNL     1      14.347  11.704  16.558  0.00  0.00    +0.054 A 
ATOM     20  C   UNL     1      14.533  12.829  15.719  0.00  0.00    +0.042 A 
ATOM     22  C   UNL     1      14.183  12.422  14.452  0.00  0.00    +0.196 A 
ENDBRANCH  16  17
ENDBRANCH  13   7
ENDBRANCH  11  13
BRANCH  12  14
ATOM     14  C   UNL     1      13.238   9.555  21.292  0.00  0.00    +0.130 C 
BRANCH  14  15
ATOM      4  O   UNL     1      15.003   9.023  22.857  0.00  0.00    -0.276 OA
ATOM      8  N   UNL     1      15.493   9.119  20.587  0.00  0.00    -0.304 N 
ATOM     15  C   UNL     1      14.659   9.204  21.692  0.00  0.00    +0.216 C 
ATOM     27  H   UNL     1      15.111   9.302  19.663  0.00  0.00    +0.150 HD
BRANCH   8  18
ATOM     18  C   UNL     1      16.899   8.800  20.682  0.00  0.00    +0.193 C 
BRANCH  18  21
ATOM     21  C   UNL     1      17.156   7.423  20.262  0.00  0.00    -0.087 C 
ATOM     23  C   UNL     1      17.364   6.291  19.919  0.00  0.00    +0.005 C 
ENDBRANCH  18  21
ENDBRANCH   8  18
ENDBRANCH  14  15
ENDBRANCH  12  14
TORSDOF 9
ENDMDL
MODEL 9
REMARK VINA RESULT:      -5.7     15.140     16.587
REMARK  Name = 40781602
REMARK  9 active torsions:
REMARK  status: ('A' for Active; 'I' for Inactive)
REMARK    1  A    between atoms: O_2  and  C_9
REMARK    2  A    between atoms: O_3  and  C_10
REMARK    3  A    between atoms: N_7  and  C_13
REMARK    4  A    between atoms: N_8  and  C_18
REMARK    5  A    between atoms: C_11  and  C_13
REMARK    6  A    between atoms: C_12  and  C_14
REMARK    7  A    between atoms: C_14  and  C_15
REMARK    8  A    between atoms: C_16  and  C_17
REMARK    9  A    between atoms: C_18  and  C_21
REMARK                            x       y       z     vdW  Elec       q    Type
REMARK                         _______ _______ _______ _____ _____    ______ ____
ROOT
ATOM      1  O   UNL     1      10.989   6.960   7.206  0.00  0.00    -0.366 OA
ATOM      9  C   UNL     1       9.946   5.117   6.169  0.00  0.00    +0.176 C 
ATOM     10  C   UNL     1       9.726   4.995   7.663  0.00  0.00    +0.175 C 
ATOM     11  C   UNL     1      11.151   6.040   6.112  0.00  0.00    +0.167 C 
ATOM     12  C   UNL     1      10.036   6.409   8.144  0.00  0.00    +0.158 C 
ENDROOT
BRANCH   9   2
ATOM      2  O   UNL     1      10.196   3.878   5.539  0.00  0.00    -0.387 OA
ATOM     24  H   UNL     1      10.577   4.068   4.664  0.00  0.00    +0.210 HD
ENDBRANCH   9   2
BRANCH  10   3
ATOM      3  O   UNL     1      10.690   4.112   8.235  0.00  0.00    -0.387 OA
ATOM     25  H   UNL     1      10.238   3.600   8.928  0.00  0.00    +0.210 HD
ENDBRANCH  10   3
BRANCH  11  13
ATOM     13  C   UNL     1      11.258   6.810   4.808  0.00  0.00    +0.138 C 
BRANCH  13   7
ATOM      5  O   UNL     1      10.456   5.080   2.662  0.00  0.00    -0.267 OA
ATOM      7  N   UNL     1      12.122   6.140   3.881  0.00  0.00    -0.306 N 
ATOM     16  C   UNL     1      11.645   5.315   2.865  0.00  0.00    +0.279 C 
ATOM     26  H   UNL     1      13.121   6.286   3.982  0.00  0.00    +0.149 HD
BRANCH  16  17
ATOM      6  O   UNL     1      13.883   5.277   1.902  0.00  0.00    -0.458 OA
ATOM     17  C   UNL     1      12.670   4.673   2.004  0.00  0.00    +0.189 A 
ATOM     19  C   UNL     1      12.636   3.525   1.246  0.00  0.00    +0.054 A 
ATOM     20  C   UNL     1      13.911   3.416   0.640  0.00  0.00    +0.042 A 
ATOM     22  C   UNL     1      14.633   4.506   1.070  0.00  0.00    +0.196 A 
ENDBRANCH  16  17
ENDBRANCH  13   7
ENDBRANCH  11  13
BRANCH  12  14
ATOM     14  C   UNL     1       8.813   7.317   8.153  0.00  0.00    +0.130 C 
BRANCH  14  15
ATOM      4  O   UNL     1       8.593   9.016   6.446  0.00  0.00    -0.276 OA
ATOM      8  N   UNL     1       9.944   9.432   8.291  0.00  0.00    -0.304 N 
ATOM     15  C   UNL     1       9.085   8.667   7.516  0.00  0.00    +0.216 C 
ATOM     27  H   UNL     1      10.307   9.044   9.157  0.00  0.00    +0.150 HD
BRANCH   8  18
ATOM     18  C   UNL     1      10.370  10.761   7.918  0.00  0.00    +0.193 C 
BRANCH  18  21
ATOM     21  C   UNL     1       9.464  11.775   8.456  0.00  0.00    -0.087 C 
ATOM     23  C   UNL     1       8.717  12.606   8.895  0.00  0.00    +0.005 C 
ENDBRANCH  18  21
ENDBRANCH   8  18
ENDBRANCH  14  15
ENDBRANCH  12  14
TORSDOF 9
ENDMDL
MODEL 10
REMARK VINA RESULT:      -5.7     29.295     30.861
REMARK  Name = 40781602
REMARK  9 active torsions:
REMARK  status: ('A' for Active; 'I' for Inactive)
REMARK    1  A    between atoms: O_2  and  C_9
REMARK    2  A    between atoms: O_3  and  C_10
REMARK    3  A    between atoms: N_7  and  C_13
REMARK    4  A    between atoms: N_8  and  C_18
REMARK    5  A    between atoms: C_11  and  C_13
REMARK    6  A    between atoms: C_12  and  C_14
REMARK    7  A    between atoms: C_14  and  C_15
REMARK    8  A    between atoms: C_16  and  C_17
REMARK    9  A    between atoms: C_18  and  C_21
REMARK                            x       y       z     vdW  Elec       q    Type
REMARK                         _______ _______ _______ _____ _____    ______ ____
ROOT
ATOM      1  O   UNL     1     -14.000   3.076  30.648  0.00  0.00    -0.366 OA
ATOM      9  C   UNL     1     -15.274   1.197  30.012  0.00  0.00    +0.176 C 
ATOM     10  C   UNL     1     -14.167   0.719  30.928  0.00  0.00    +0.175 C 
ATOM     11  C   UNL     1     -14.719   2.526  29.530  0.00  0.00    +0.167 C 
ATOM     12  C   UNL     1     -13.726   2.017  31.594  0.00  0.00    +0.158 C 
ENDROOT
BRANCH   9   2
ATOM      2  O   UNL     1     -15.535   0.312  28.942  0.00  0.00    -0.387 OA
ATOM     24  H   UNL     1     -15.769  -0.550  29.326  0.00  0.00    +0.210 HD
ENDBRANCH   9   2
BRANCH  10   3
ATOM      3  O   UNL     1     -13.071   0.219  30.163  0.00  0.00    -0.387 OA
ATOM     25  H   UNL     1     -13.299  -0.684  29.886  0.00  0.00    +0.210 HD
ENDBRANCH  10   3
BRANCH  11  13
ATOM     13  C   UNL     1     -15.794   3.501  29.084  0.00  0.00    +0.138 C 
BRANCH  13   7
ATOM      5  O   UNL     1     -17.392   1.962  27.262  0.00  0.00    -0.267 OA
ATOM      7  N   UNL     1     -15.821   3.624  27.656  0.00  0.00    -0.306 N 
ATOM     16  C   UNL     1     -16.631   2.832  26.845  0.00  0.00    +0.279 C 
ATOM     26  H   UNL     1     -15.220   4.324  27.234  0.00  0.00    +0.149 HD
BRANCH  16  17
ATOM      6  O   UNL     1     -15.598   3.958  24.946  0.00  0.00    -0.458 OA
ATOM     17  C   UNL     1     -16.524   3.064  25.383  0.00  0.00    +0.189 A 
ATOM     19  C   UNL     1     -17.213   2.525  24.320  0.00  0.00    +0.054 A 
ATOM     20  C   UNL     1     -16.675   3.126  23.157  0.00  0.00    +0.042 A 
ATOM     22  C   UNL     1     -15.696   3.990  23.591  0.00  0.00    +0.196 A 
ENDBRANCH  16  17
ENDBRANCH  13   7
ENDBRANCH  11  13
BRANCH  12  14
ATOM     14  C   UNL     1     -14.496   2.324  32.872  0.00  0.00    +0.130 C 
BRANCH  14  15
ATOM      4  O   UNL     1     -16.440   3.749  32.673  0.00  0.00    -0.276 OA
ATOM      8  N   UNL     1     -14.343   4.720  32.926  0.00  0.00    -0.304 N 
ATOM     15  C   UNL     1     -15.223   3.655  32.810  0.00  0.00    +0.216 C 
ATOM     27  H   UNL     1     -13.349   4.534  33.022  0.00  0.00    +0.150 HD
BRANCH   8  18
ATOM     18  C   UNL     1     -14.769   6.101  32.898  0.00  0.00    +0.193 C 
BRANCH  18  21
ATOM     21  C   UNL     1     -13.626   7.002  32.752  0.00  0.00    -0.087 C 
ATOM     23  C   UNL     1     -12.685   7.739  32.634  0.00  0.00    +0.005 C 
ENDBRANCH  18  21
ENDBRANCH   8  18
ENDBRANCH  14  15
ENDBRANCH  12  14
TORSDOF 9
ENDMDL
