MODEL 1
REMARK VINA RESULT:      -6.9      0.000      0.000
REMARK  Name = 86769009
REMARK  7 active torsions:
REMARK  status: ('A' for Active; 'I' for Inactive)
REMARK    1  A    between atoms: O_2  and  C_10
REMARK    2  A    between atoms: N_4  and  C_9
REMARK    3  A    between atoms: N_4  and  C_14
REMARK    4  A    between atoms: N_5  and  C_13
REMARK    5  A    between atoms: C_11  and  C_13
REMARK    6  A    between atoms: C_14  and  C_15
REMARK    7  A    between atoms: C_16  and  C_18
REMARK                            x       y       z     vdW  Elec       q    Type
REMARK                         _______ _______ _______ _____ _____    ______ ____
ROOT
ATOM      1  O   UNL     1      12.960   6.667  20.848  0.00  0.00    -0.371 OA
ATOM      9  C   UNL     1      10.930   7.855  21.176  0.00  0.00    +0.111 C 
ATOM     10  C   UNL     1      11.556   8.297  19.865  0.00  0.00    +0.164 C 
ATOM     11  C   UNL     1      12.481   7.123  19.572  0.00  0.00    +0.165 C 
ATOM     12  C   UNL     1      12.118   7.217  21.876  0.00  0.00    +0.181 C 
ENDROOT
BRANCH  10   2
ATOM      2  O   UNL     1      10.601   8.484  18.839  0.00  0.00    -0.388 OA
ATOM     25  H   UNL     1      11.070   8.521  17.988  0.00  0.00    +0.210 HD
ENDBRANCH  10   2
BRANCH   9   4
ATOM      4  N   UNL     1      10.342   8.946  21.937  0.00  0.00    -0.304 NA
ATOM     24  H   UNL     1      10.191   8.637  22.898  0.00  0.00    +0.123 HD
BRANCH   4  14
ATOM     14  C   UNL     1      11.218  10.111  21.946  0.00  0.00    +0.136 C 
BRANCH  14  15
ATOM      6  N   UNL     1      11.368  10.506  24.432  0.00  0.00    -0.347 N 
ATOM      7  N   UNL     1      10.558  12.556  24.709  0.00  0.00    -0.244 NA
ATOM     15  C   UNL     1      11.030  10.946  23.184  0.00  0.00    +0.049 A 
ATOM     17  C   UNL     1      10.533  12.213  23.380  0.00  0.00    +0.134 A 
ATOM     19  C   UNL     1      11.067  11.505  25.315  0.00  0.00    +0.196 A 
ATOM     27  H   UNL     1      11.768   9.606  24.664  0.00  0.00    +0.167 HD
ENDBRANCH  14  15
ENDBRANCH   4  14
ENDBRANCH   9   4
BRANCH  11  13
ATOM     13  C   UNL     1      13.656   7.491  18.684  0.00  0.00    +0.138 C 
BRANCH  13   5
ATOM      3  O   UNL     1      16.054   5.916  18.571  0.00  0.00    -0.270 OA
ATOM      5  N   UNL     1      14.849   7.692  19.454  0.00  0.00    -0.309 N 
ATOM     16  C   UNL     1      15.969   6.876  19.333  0.00  0.00    +0.244 C 
ATOM     26  H   UNL     1      14.821   8.427  20.151  0.00  0.00    +0.149 HD
BRANCH  16  18
ATOM      8  N   UNL     1      19.274   7.811  21.889  0.00  0.00    -0.263 NA
ATOM     18  C   UNL     1      17.115   7.200  20.221  0.00  0.00    +0.040 A 
ATOM     20  C   UNL     1      17.108   8.371  20.970  0.00  0.00    +0.033 A 
ATOM     21  C   UNL     1      18.200   6.334  20.305  0.00  0.00    +0.033 A 
ATOM     22  C   UNL     1      18.202   8.629  21.781  0.00  0.00    +0.111 A 
ATOM     23  C   UNL     1      19.245   6.682  21.146  0.00  0.00    +0.111 A 
ENDBRANCH  16  18
ENDBRANCH  13   5
ENDBRANCH  11  13
TORSDOF 7
ENDMDL
MODEL 2
REMARK VINA RESULT:      -6.7      2.164      7.844
REMARK  Name = 86769009
REMARK  7 active torsions:
REMARK  status: ('A' for Active; 'I' for Inactive)
REMARK    1  A    between atoms: O_2  and  C_10
REMARK    2  A    between atoms: N_4  and  C_9
REMARK    3  A    between atoms: N_4  and  C_14
REMARK    4  A    between atoms: N_5  and  C_13
REMARK    5  A    between atoms: C_11  and  C_13
REMARK    6  A    between atoms: C_14  and  C_15
REMARK    7  A    between atoms: C_16  and  C_18
REMARK                            x       y       z     vdW  Elec       q    Type
REMARK                         _______ _______ _______ _____ _____    ______ ____
ROOT
ATOM      1  O   UNL     1      11.612   9.512  20.515  0.00  0.00    -0.371 OA
ATOM      9  C   UNL     1      12.339   7.358  19.828  0.00  0.00    +0.111 C 
ATOM     10  C   UNL     1      11.671   7.245  21.186  0.00  0.00    +0.164 C 
ATOM     11  C   UNL     1      10.838   8.520  21.210  0.00  0.00    +0.165 C 
ATOM     12  C   UNL     1      12.643   8.845  19.765  0.00  0.00    +0.181 C 
ENDROOT
BRANCH  10   2
ATOM      2  O   UNL     1      10.865   6.088  21.304  0.00  0.00    -0.388 OA
ATOM     25  H   UNL     1       9.937   6.348  21.175  0.00  0.00    +0.210 HD
ENDBRANCH  10   2
BRANCH   9   4
ATOM      4  N   UNL     1      13.527   6.530  19.693  0.00  0.00    -0.304 NA
ATOM     24  H   UNL     1      13.922   6.666  18.761  0.00  0.00    +0.123 HD
BRANCH   4  14
ATOM     14  C   UNL     1      14.530   6.887  20.689  0.00  0.00    +0.136 C 
BRANCH  14  15
ATOM      6  N   UNL     1      16.189   6.002  19.009  0.00  0.00    -0.347 N 
ATOM      7  N   UNL     1      18.139   6.087  20.070  0.00  0.00    -0.244 NA
ATOM     15  C   UNL     1      15.918   6.504  20.250  0.00  0.00    +0.049 A 
ATOM     17  C   UNL     1      17.137   6.548  20.886  0.00  0.00    +0.134 A 
ATOM     19  C   UNL     1      17.534   5.766  18.947  0.00  0.00    +0.196 A 
ATOM     27  H   UNL     1      15.520   5.833  18.270  0.00  0.00    +0.167 HD
ENDBRANCH  14  15
ENDBRANCH   4  14
ENDBRANCH   9   4
BRANCH  11  13
ATOM     13  C   UNL     1      10.524   9.006  22.613  0.00  0.00    +0.138 C 
BRANCH  13   5
ATOM      3  O   UNL     1      11.185  10.653  24.870  0.00  0.00    -0.270 OA
ATOM      5  N   UNL     1      10.475  10.438  22.672  0.00  0.00    -0.309 N 
ATOM     16  C   UNL     1      10.815  11.157  23.813  0.00  0.00    +0.244 C 
ATOM     26  H   UNL     1      10.113  10.914  21.853  0.00  0.00    +0.149 HD
BRANCH  16  18
ATOM      8  N   UNL     1      10.446  15.414  23.546  0.00  0.00    -0.263 NA
ATOM     18  C   UNL     1      10.686  12.634  23.720  0.00  0.00    +0.040 A 
ATOM     20  C   UNL     1      10.796  13.268  22.488  0.00  0.00    +0.033 A 
ATOM     21  C   UNL     1      10.455  13.388  24.865  0.00  0.00    +0.033 A 
ATOM     22  C   UNL     1      10.669  14.648  22.455  0.00  0.00    +0.111 A 
ATOM     23  C   UNL     1      10.344  14.762  24.727  0.00  0.00    +0.111 A 
ENDBRANCH  16  18
ENDBRANCH  13   5
ENDBRANCH  11  13
TORSDOF 7
ENDMDL
MODEL 3
REMARK VINA RESULT:      -6.1      3.021      4.182
REMARK  Name = 86769009
REMARK  7 active torsions:
REMARK  status: ('A' for Active; 'I' for Inactive)
REMARK    1  A    between atoms: O_2  and  C_10
REMARK    2  A    between atoms: N_4  and  C_9
REMARK    3  A    between atoms: N_4  and  C_14
REMARK    4  A    between atoms: N_5  and  C_13
REMARK    5  A    between atoms: C_11  and  C_13
REMARK    6  A    between atoms: C_14  and  C_15
REMARK    7  A    between atoms: C_16  and  C_18
REMARK                            x       y       z     vdW  Elec       q    Type
REMARK                         _______ _______ _______ _____ _____    ______ ____
ROOT
ATOM      1  O   UNL     1      12.958   6.777  20.838  0.00  0.00    -0.371 OA
ATOM      9  C   UNL     1      10.913   7.908  21.267  0.00  0.00    +0.111 C 
ATOM     10  C   UNL     1      11.458   8.362  19.925  0.00  0.00    +0.164 C 
ATOM     11  C   UNL     1      12.400   7.213  19.587  0.00  0.00    +0.165 C 
ATOM     12  C   UNL     1      12.154   7.307  21.907  0.00  0.00    +0.181 C 
ENDROOT
BRANCH  10   2
ATOM      2  O   UNL     1      10.446   8.516  18.949  0.00  0.00    -0.388 OA
ATOM     25  H   UNL     1       9.660   8.895  19.381  0.00  0.00    +0.210 HD
ENDBRANCH  10   2
BRANCH   9   4
ATOM      4  N   UNL     1      10.335   8.984  22.055  0.00  0.00    -0.304 NA
ATOM     24  H   UNL     1      10.200   8.659  23.013  0.00  0.00    +0.123 HD
BRANCH   4  14
ATOM     14  C   UNL     1      11.207  10.152  22.068  0.00  0.00    +0.136 C 
BRANCH  14  15
ATOM      6  N   UNL     1      10.479  12.263  23.239  0.00  0.00    -0.347 N 
ATOM      7  N   UNL     1      10.864  11.857  25.388  0.00  0.00    -0.244 NA
ATOM     15  C   UNL     1      10.993  10.999  23.294  0.00  0.00    +0.049 A 
ATOM     17  C   UNL     1      11.223  10.770  24.630  0.00  0.00    +0.134 A 
ATOM     19  C   UNL     1      10.420  12.738  24.519  0.00  0.00    +0.196 A 
ATOM     27  H   UNL     1      10.193  12.760  22.406  0.00  0.00    +0.167 HD
ENDBRANCH  14  15
ENDBRANCH   4  14
ENDBRANCH   9   4
BRANCH  11  13
ATOM     13  C   UNL     1      13.516   7.611  18.639  0.00  0.00    +0.138 C 
BRANCH  13   5
ATOM      3  O   UNL     1      13.033   9.389  16.437  0.00  0.00    -0.270 OA
ATOM      5  N   UNL     1      13.710   9.032  18.627  0.00  0.00    -0.309 N 
ATOM     16  C   UNL     1      13.449   9.819  17.510  0.00  0.00    +0.244 C 
ATOM     26  H   UNL     1      14.116   9.442  19.461  0.00  0.00    +0.149 HD
BRANCH  16  18
ATOM      8  N   UNL     1      14.248  14.005  17.915  0.00  0.00    -0.263 NA
ATOM     18  C   UNL     1      13.727  11.271  17.651  0.00  0.00    +0.040 A 
ATOM     20  C   UNL     1      13.357  11.943  18.810  0.00  0.00    +0.033 A 
ATOM     21  C   UNL     1      14.358  11.964  16.624  0.00  0.00    +0.033 A 
ATOM     22  C   UNL     1      13.637  13.298  18.892  0.00  0.00    +0.111 A 
ATOM     23  C   UNL     1      14.593  13.318  16.803  0.00  0.00    +0.111 A 
ENDBRANCH  16  18
ENDBRANCH  13   5
ENDBRANCH  11  13
TORSDOF 7
ENDMDL
MODEL 4
REMARK VINA RESULT:      -6.1      1.900      7.967
REMARK  Name = 86769009
REMARK  7 active torsions:
REMARK  status: ('A' for Active; 'I' for Inactive)
REMARK    1  A    between atoms: O_2  and  C_10
REMARK    2  A    between atoms: N_4  and  C_9
REMARK    3  A    between atoms: N_4  and  C_14
REMARK    4  A    between atoms: N_5  and  C_13
REMARK    5  A    between atoms: C_11  and  C_13
REMARK    6  A    between atoms: C_14  and  C_15
REMARK    7  A    between atoms: C_16  and  C_18
REMARK                            x       y       z     vdW  Elec       q    Type
REMARK                         _______ _______ _______ _____ _____    ______ ____
ROOT
ATOM      1  O   UNL     1      13.637   6.987  19.816  0.00  0.00    -0.371 OA
ATOM      9  C   UNL     1      15.423   7.141  21.374  0.00  0.00    +0.111 C 
ATOM     10  C   UNL     1      14.583   8.403  21.457  0.00  0.00    +0.164 C 
ATOM     11  C   UNL     1      13.274   7.925  20.842  0.00  0.00    +0.165 C 
ATOM     12  C   UNL     1      15.004   6.590  20.022  0.00  0.00    +0.181 C 
ENDROOT
BRANCH  10   2
ATOM      2  O   UNL     1      14.407   8.856  22.785  0.00  0.00    -0.388 OA
ATOM     25  H   UNL     1      15.215   9.324  23.058  0.00  0.00    +0.210 HD
ENDBRANCH  10   2
BRANCH   9   4
ATOM      4  N   UNL     1      16.853   7.385  21.468  0.00  0.00    -0.304 NA
ATOM     24  H   UNL     1      17.216   6.916  22.299  0.00  0.00    +0.123 HD
BRANCH   4  14
ATOM     14  C   UNL     1      17.550   6.877  20.293  0.00  0.00    +0.136 C 
BRANCH  14  15
ATOM      6  N   UNL     1      19.451   5.259  19.932  0.00  0.00    -0.347 N 
ATOM      7  N   UNL     1      20.877   5.717  21.571  0.00  0.00    -0.244 NA
ATOM     15  C   UNL     1      18.883   6.275  20.648  0.00  0.00    +0.049 A 
ATOM     17  C   UNL     1      19.782   6.541  21.655  0.00  0.00    +0.134 A 
ATOM     19  C   UNL     1      20.646   4.958  20.523  0.00  0.00    +0.196 A 
ATOM     27  H   UNL     1      19.061   4.810  19.114  0.00  0.00    +0.167 HD
ENDBRANCH  14  15
ENDBRANCH   4  14
ENDBRANCH   9   4
BRANCH  11  13
ATOM     13  C   UNL     1      12.447   9.048  20.243  0.00  0.00    +0.138 C 
BRANCH  13   5
ATOM      3  O   UNL     1      10.389   9.171  22.240  0.00  0.00    -0.270 OA
ATOM      5  N   UNL     1      12.235  10.104  21.189  0.00  0.00    -0.309 N 
ATOM     16  C   UNL     1      11.207  10.080  22.126  0.00  0.00    +0.244 C 
ATOM     26  H   UNL     1      12.835  10.917  21.106  0.00  0.00    +0.149 HD
BRANCH  16  18
ATOM      8  N   UNL     1      10.912  13.490  24.697  0.00  0.00    -0.263 NA
ATOM     18  C   UNL     1      11.106  11.263  23.019  0.00  0.00    +0.040 A 
ATOM     20  C   UNL     1      11.048  11.095  24.398  0.00  0.00    +0.033 A 
ATOM     21  C   UNL     1      11.067  12.544  22.479  0.00  0.00    +0.033 A 
ATOM     22  C   UNL     1      10.953  12.231  25.186  0.00  0.00    +0.111 A 
ATOM     23  C   UNL     1      10.970  13.615  23.352  0.00  0.00    +0.111 A 
ENDBRANCH  16  18
ENDBRANCH  13   5
ENDBRANCH  11  13
TORSDOF 7
ENDMDL
MODEL 5
REMARK VINA RESULT:      -6.0      3.661      6.572
REMARK  Name = 86769009
REMARK  7 active torsions:
REMARK  status: ('A' for Active; 'I' for Inactive)
REMARK    1  A    between atoms: O_2  and  C_10
REMARK    2  A    between atoms: N_4  and  C_9
REMARK    3  A    between atoms: N_4  and  C_14
REMARK    4  A    between atoms: N_5  and  C_13
REMARK    5  A    between atoms: C_11  and  C_13
REMARK    6  A    between atoms: C_14  and  C_15
REMARK    7  A    between atoms: C_16  and  C_18
REMARK                            x       y       z     vdW  Elec       q    Type
REMARK                         _______ _______ _______ _____ _____    ______ ____
ROOT
ATOM      1  O   UNL     1      11.870   7.120  18.686  0.00  0.00    -0.371 OA
ATOM      9  C   UNL     1      13.399   7.973  20.292  0.00  0.00    +0.111 C 
ATOM     10  C   UNL     1      13.210   9.002  19.192  0.00  0.00    +0.164 C 
ATOM     11  C   UNL     1      11.882   8.555  18.596  0.00  0.00    +0.165 C 
ATOM     12  C   UNL     1      12.892   6.712  19.613  0.00  0.00    +0.181 C 
ENDROOT
BRANCH  10   2
ATOM      2  O   UNL     1      13.146  10.325  19.688  0.00  0.00    -0.388 OA
ATOM     25  H   UNL     1      12.394  10.774  19.264  0.00  0.00    +0.210 HD
ENDBRANCH  10   2
BRANCH   9   4
ATOM      4  N   UNL     1      14.773   7.856  20.751  0.00  0.00    -0.304 NA
ATOM     24  H   UNL     1      14.779   7.788  21.769  0.00  0.00    +0.123 HD
BRANCH   4  14
ATOM     14  C   UNL     1      15.413   6.670  20.194  0.00  0.00    +0.136 C 
BRANCH  14  15
ATOM      6  N   UNL     1      17.434   7.199  21.606  0.00  0.00    -0.347 N 
ATOM      7  N   UNL     1      19.135   6.334  20.471  0.00  0.00    -0.244 NA
ATOM     15  C   UNL     1      16.890   6.639  20.485  0.00  0.00    +0.049 A 
ATOM     17  C   UNL     1      17.959   6.111  19.800  0.00  0.00    +0.134 A 
ATOM     19  C   UNL     1      18.784   6.991  21.554  0.00  0.00    +0.196 A 
ATOM     27  H   UNL     1      16.933   7.681  22.341  0.00  0.00    +0.167 HD
ENDBRANCH  14  15
ENDBRANCH   4  14
ENDBRANCH   9   4
BRANCH  11  13
ATOM     13  C   UNL     1      11.699   8.979  17.151  0.00  0.00    +0.138 C 
BRANCH  13   5
ATOM      3  O   UNL     1      13.754   8.641  15.175  0.00  0.00    -0.270 OA
ATOM      5  N   UNL     1      12.682   9.949  16.763  0.00  0.00    -0.309 N 
ATOM     16  C   UNL     1      13.645   9.697  15.791  0.00  0.00    +0.244 C 
ATOM     26  H   UNL     1      12.690  10.821  17.281  0.00  0.00    +0.149 HD
BRANCH  16  18
ATOM      8  N   UNL     1      16.423  12.863  15.021  0.00  0.00    -0.263 NA
ATOM     18  C   UNL     1      14.608  10.796  15.523  0.00  0.00    +0.040 A 
ATOM     20  C   UNL     1      15.580  10.648  14.539  0.00  0.00    +0.033 A 
ATOM     21  C   UNL     1      14.543  11.976  16.255  0.00  0.00    +0.033 A 
ATOM     22  C   UNL     1      16.456  11.702  14.329  0.00  0.00    +0.111 A 
ATOM     23  C   UNL     1      15.465  12.970  15.968  0.00  0.00    +0.111 A 
ENDBRANCH  16  18
ENDBRANCH  13   5
ENDBRANCH  11  13
TORSDOF 7
ENDMDL
MODEL 6
REMARK VINA RESULT:      -6.0     26.222     27.969
REMARK  Name = 86769009
REMARK  7 active torsions:
REMARK  status: ('A' for Active; 'I' for Inactive)
REMARK    1  A    between atoms: O_2  and  C_10
REMARK    2  A    between atoms: N_4  and  C_9
REMARK    3  A    between atoms: N_4  and  C_14
REMARK    4  A    between atoms: N_5  and  C_13
REMARK    5  A    between atoms: C_11  and  C_13
REMARK    6  A    between atoms: C_14  and  C_15
REMARK    7  A    between atoms: C_16  and  C_18
REMARK                            x       y       z     vdW  Elec       q    Type
REMARK                         _______ _______ _______ _____ _____    ______ ____
ROOT
ATOM      1  O   UNL     1      -3.840 -10.453  14.057  0.00  0.00    -0.371 OA
ATOM      9  C   UNL     1      -3.195 -10.712  16.328  0.00  0.00    +0.111 C 
ATOM     10  C   UNL     1      -2.065 -11.192  15.434  0.00  0.00    +0.164 C 
ATOM     11  C   UNL     1      -2.405 -10.486  14.128  0.00  0.00    +0.165 C 
ATOM     12  C   UNL     1      -4.369 -10.734  15.365  0.00  0.00    +0.181 C 
ENDROOT
BRANCH  10   2
ATOM      2  O   UNL     1      -0.790 -10.819  15.918  0.00  0.00    -0.388 OA
ATOM     25  H   UNL     1      -0.757  -9.848  15.977  0.00  0.00    +0.210 HD
ENDBRANCH  10   2
BRANCH   9   4
ATOM      4  N   UNL     1      -3.406 -11.549  17.498  0.00  0.00    -0.304 NA
ATOM     24  H   UNL     1      -3.514 -10.951  18.318  0.00  0.00    +0.123 HD
BRANCH   4  14
ATOM     14  C   UNL     1      -4.603 -12.368  17.348  0.00  0.00    +0.136 C 
BRANCH  14  15
ATOM      6  N   UNL     1      -6.680 -12.902  18.675  0.00  0.00    -0.347 N 
ATOM      7  N   UNL     1      -6.853 -11.222  20.118  0.00  0.00    -0.244 NA
ATOM     15  C   UNL     1      -5.619 -12.080  18.421  0.00  0.00    +0.049 A 
ATOM     17  C   UNL     1      -5.747 -11.051  19.324  0.00  0.00    +0.134 A 
ATOM     19  C   UNL     1      -7.393 -12.347  19.701  0.00  0.00    +0.196 A 
ATOM     27  H   UNL     1      -6.902 -13.763  18.194  0.00  0.00    +0.167 HD
ENDBRANCH  14  15
ENDBRANCH   4  14
ENDBRANCH   9   4
BRANCH  11  13
ATOM     13  C   UNL     1      -1.847 -11.187  12.903  0.00  0.00    +0.138 C 
BRANCH  13   5
ATOM      3  O   UNL     1      -1.955  -9.297  10.745  0.00  0.00    -0.270 OA
ATOM      5  N   UNL     1      -2.788 -11.176  11.821  0.00  0.00    -0.309 N 
ATOM     16  C   UNL     1      -2.765 -10.217  10.813  0.00  0.00    +0.244 C 
ATOM     26  H   UNL     1      -3.526 -11.871  11.853  0.00  0.00    +0.149 HD
BRANCH  16  18
ATOM      8  N   UNL     1      -5.822 -10.539   7.833  0.00  0.00    -0.263 NA
ATOM     18  C   UNL     1      -3.825 -10.329   9.778  0.00  0.00    +0.040 A 
ATOM     20  C   UNL     1      -4.326  -9.186   9.166  0.00  0.00    +0.033 A 
ATOM     21  C   UNL     1      -4.322 -11.577   9.419  0.00  0.00    +0.033 A 
ATOM     22  C   UNL     1      -5.315  -9.343   8.208  0.00  0.00    +0.111 A 
ATOM     23  C   UNL     1      -5.311 -11.628   8.451  0.00  0.00    +0.111 A 
ENDBRANCH  16  18
ENDBRANCH  13   5
ENDBRANCH  11  13
TORSDOF 7
ENDMDL
MODEL 7
REMARK VINA RESULT:      -5.9     26.998     30.229
REMARK  Name = 86769009
REMARK  7 active torsions:
REMARK  status: ('A' for Active; 'I' for Inactive)
REMARK    1  A    between atoms: O_2  and  C_10
REMARK    2  A    between atoms: N_4  and  C_9
REMARK    3  A    between atoms: N_4  and  C_14
REMARK    4  A    between atoms: N_5  and  C_13
REMARK    5  A    between atoms: C_11  and  C_13
REMARK    6  A    between atoms: C_14  and  C_15
REMARK    7  A    between atoms: C_16  and  C_18
REMARK                            x       y       z     vdW  Elec       q    Type
REMARK                         _______ _______ _______ _____ _____    ______ ____
ROOT
ATOM      1  O   UNL     1     -17.481   5.466  24.734  0.00  0.00    -0.371 OA
ATOM      9  C   UNL     1     -16.184   4.064  23.322  0.00  0.00    +0.111 C 
ATOM     10  C   UNL     1     -15.885   3.722  24.771  0.00  0.00    +0.164 C 
ATOM     11  C   UNL     1     -17.118   4.284  25.466  0.00  0.00    +0.165 C 
ATOM     12  C   UNL     1     -16.809   5.441  23.462  0.00  0.00    +0.181 C 
ENDROOT
BRANCH  10   2
ATOM      2  O   UNL     1     -15.748   2.331  24.986  0.00  0.00    -0.388 OA
ATOM     25  H   UNL     1     -14.959   2.183  25.536  0.00  0.00    +0.210 HD
ENDBRANCH  10   2
BRANCH   9   4
ATOM      4  N   UNL     1     -15.008   4.059  22.468  0.00  0.00    -0.304 NA
ATOM     24  H   UNL     1     -15.279   4.353  21.529  0.00  0.00    +0.123 HD
BRANCH   4  14
ATOM     14  C   UNL     1     -13.988   4.969  22.974  0.00  0.00    +0.136 C 
BRANCH  14  15
ATOM      6  N   UNL     1     -12.131   5.835  21.504  0.00  0.00    -0.347 N 
ATOM      7  N   UNL     1     -13.111   7.371  20.235  0.00  0.00    -0.244 NA
ATOM     15  C   UNL     1     -13.441   5.859  21.890  0.00  0.00    +0.049 A 
ATOM     17  C   UNL     1     -14.026   6.814  21.093  0.00  0.00    +0.134 A 
ATOM     19  C   UNL     1     -11.980   6.759  20.509  0.00  0.00    +0.196 A 
ATOM     27  H   UNL     1     -11.403   5.243  21.884  0.00  0.00    +0.167 HD
ENDBRANCH  14  15
ENDBRANCH   4  14
ENDBRANCH   9   4
BRANCH  11  13
ATOM     13  C   UNL     1     -16.878   4.636  26.923  0.00  0.00    +0.138 C 
BRANCH  13   5
ATOM      3  O   UNL     1     -15.759   4.673  29.567  0.00  0.00    -0.270 OA
ATOM      5  N   UNL     1     -16.376   3.510  27.657  0.00  0.00    -0.309 N 
ATOM     16  C   UNL     1     -15.849   3.621  28.939  0.00  0.00    +0.244 C 
ATOM     26  H   UNL     1     -16.360   2.621  27.169  0.00  0.00    +0.149 HD
BRANCH  16  18
ATOM      8  N   UNL     1     -14.401   0.000  30.704  0.00  0.00    -0.263 NA
ATOM     18  C   UNL     1     -15.347   2.365  29.553  0.00  0.00    +0.040 A 
ATOM     20  C   UNL     1     -14.047   2.298  30.041  0.00  0.00    +0.033 A 
ATOM     21  C   UNL     1     -16.174   1.251  29.640  0.00  0.00    +0.033 A 
ATOM     22  C   UNL     1     -13.626   1.103  30.602  0.00  0.00    +0.111 A 
ATOM     23  C   UNL     1     -15.659   0.103  30.219  0.00  0.00    +0.111 A 
ENDBRANCH  16  18
ENDBRANCH  13   5
ENDBRANCH  11  13
TORSDOF 7
ENDMDL
MODEL 8
REMARK VINA RESULT:      -5.9     25.777     28.779
REMARK  Name = 86769009
REMARK  7 active torsions:
REMARK  status: ('A' for Active; 'I' for Inactive)
REMARK    1  A    between atoms: O_2  and  C_10
REMARK    2  A    between atoms: N_4  and  C_9
REMARK    3  A    between atoms: N_4  and  C_14
REMARK    4  A    between atoms: N_5  and  C_13
REMARK    5  A    between atoms: C_11  and  C_13
REMARK    6  A    between atoms: C_14  and  C_15
REMARK    7  A    between atoms: C_16  and  C_18
REMARK                            x       y       z     vdW  Elec       q    Type
REMARK                         _______ _______ _______ _____ _____    ______ ____
ROOT
ATOM      1  O   UNL     1     -16.965   5.649  23.162  0.00  0.00    -0.371 OA
ATOM      9  C   UNL     1     -15.972   4.374  24.903  0.00  0.00    +0.111 C 
ATOM     10  C   UNL     1     -15.039   4.387  23.705  0.00  0.00    +0.164 C 
ATOM     11  C   UNL     1     -15.543   5.614  22.955  0.00  0.00    +0.165 C 
ATOM     12  C   UNL     1     -17.288   4.782  24.263  0.00  0.00    +0.181 C 
ENDROOT
BRANCH  10   2
ATOM      2  O   UNL     1     -13.680   4.517  24.072  0.00  0.00    -0.388 OA
ATOM     25  H   UNL     1     -13.394   5.425  23.872  0.00  0.00    +0.210 HD
ENDBRANCH  10   2
BRANCH   9   4
ATOM      4  N   UNL     1     -16.042   3.085  25.571  0.00  0.00    -0.304 NA
ATOM     24  H   UNL     1     -15.094   2.765  25.775  0.00  0.00    +0.123 HD
BRANCH   4  14
ATOM     14  C   UNL     1     -16.789   3.182  26.820  0.00  0.00    +0.136 C 
BRANCH  14  15
ATOM      6  N   UNL     1     -15.062   3.331  28.651  0.00  0.00    -0.347 N 
ATOM      7  N   UNL     1     -15.142   1.344  29.640  0.00  0.00    -0.244 NA
ATOM     15  C   UNL     1     -16.015   2.618  27.982  0.00  0.00    +0.049 A 
ATOM     17  C   UNL     1     -16.047   1.395  28.610  0.00  0.00    +0.134 A 
ATOM     19  C   UNL     1     -14.565   2.526  29.638  0.00  0.00    +0.196 A 
ATOM     27  H   UNL     1     -14.773   4.280  28.456  0.00  0.00    +0.167 HD
ENDBRANCH  14  15
ENDBRANCH   4  14
ENDBRANCH   9   4
BRANCH  11  13
ATOM     13  C   UNL     1     -15.242   5.575  21.468  0.00  0.00    +0.138 C 
BRANCH  13   5
ATOM      3  O   UNL     1     -12.380   5.727  21.638  0.00  0.00    -0.270 OA
ATOM      5  N   UNL     1     -14.418   6.680  21.072  0.00  0.00    -0.309 N 
ATOM     16  C   UNL     1     -13.032   6.667  21.191  0.00  0.00    +0.244 C 
ATOM     26  H   UNL     1     -14.899   7.515  20.756  0.00  0.00    +0.149 HD
BRANCH  16  18
ATOM      8  N   UNL     1     -10.997  10.223  19.950  0.00  0.00    -0.263 NA
ATOM     18  C   UNL     1     -12.325   7.901  20.761  0.00  0.00    +0.040 A 
ATOM     20  C   UNL     1     -12.707   9.137  21.270  0.00  0.00    +0.033 A 
ATOM     21  C   UNL     1     -11.280   7.825  19.848  0.00  0.00    +0.033 A 
ATOM     22  C   UNL     1     -12.018  10.258  20.836  0.00  0.00    +0.111 A 
ATOM     23  C   UNL     1     -10.654   9.004  19.478  0.00  0.00    +0.111 A 
ENDBRANCH  16  18
ENDBRANCH  13   5
ENDBRANCH  11  13
TORSDOF 7
ENDMDL
MODEL 9
REMARK VINA RESULT:      -5.9     26.428     29.470
REMARK  Name = 86769009
REMARK  7 active torsions:
REMARK  status: ('A' for Active; 'I' for Inactive)
REMARK    1  A    between atoms: O_2  and  C_10
REMARK    2  A    between atoms: N_4  and  C_9
REMARK    3  A    between atoms: N_4  and  C_14
REMARK    4  A    between atoms: N_5  and  C_13
REMARK    5  A    between atoms: C_11  and  C_13
REMARK    6  A    between atoms: C_14  and  C_15
REMARK    7  A    between atoms: C_16  and  C_18
REMARK                            x       y       z     vdW  Elec       q    Type
REMARK                         _______ _______ _______ _____ _____    ______ ____
ROOT
ATOM      1  O   UNL     1      -7.347 -13.112  18.756  0.00  0.00    -0.371 OA
ATOM      9  C   UNL     1      -5.569 -11.541  18.635  0.00  0.00    +0.111 C 
ATOM     10  C   UNL     1      -6.823 -10.834  19.118  0.00  0.00    +0.164 C 
ATOM     11  C   UNL     1      -7.644 -12.010  19.630  0.00  0.00    +0.165 C 
ATOM     12  C   UNL     1      -6.154 -12.799  18.016  0.00  0.00    +0.181 C 
ENDROOT
BRANCH  10   2
ATOM      2  O   UNL     1      -6.560  -9.892  20.139  0.00  0.00    -0.388 OA
ATOM     25  H   UNL     1      -6.025  -9.172  19.761  0.00  0.00    +0.210 HD
ENDBRANCH  10   2
BRANCH   9   4
ATOM      4  N   UNL     1      -4.785 -10.758  17.694  0.00  0.00    -0.304 NA
ATOM     24  H   UNL     1      -3.903 -10.495  18.136  0.00  0.00    +0.123 HD
BRANCH   4  14
ATOM     14  C   UNL     1      -4.501 -11.521  16.485  0.00  0.00    +0.136 C 
BRANCH  14  15
ATOM      6  N   UNL     1      -2.040 -10.973  16.476  0.00  0.00    -0.347 N 
ATOM      7  N   UNL     1      -1.631 -10.330  14.390  0.00  0.00    -0.244 NA
ATOM     15  C   UNL     1      -3.233 -11.063  15.817  0.00  0.00    +0.049 A 
ATOM     17  C   UNL     1      -2.955 -10.662  14.531  0.00  0.00    +0.134 A 
ATOM     19  C   UNL     1      -1.108 -10.529  15.580  0.00  0.00    +0.196 A 
ATOM     27  H   UNL     1      -1.873 -11.192  17.449  0.00  0.00    +0.167 HD
ENDBRANCH  14  15
ENDBRANCH   4  14
ENDBRANCH   9   4
BRANCH  11  13
ATOM     13  C   UNL     1      -9.139 -11.744  19.631  0.00  0.00    +0.138 C 
BRANCH  13   5
ATOM      3  O   UNL     1     -11.402  -9.983  19.770  0.00  0.00    -0.270 OA
ATOM      5  N   UNL     1      -9.488 -10.722  18.687  0.00  0.00    -0.309 N 
ATOM     16  C   UNL     1     -10.608  -9.911  18.836  0.00  0.00    +0.244 C 
ATOM     26  H   UNL     1      -8.911 -10.655  17.856  0.00  0.00    +0.149 HD
BRANCH  16  18
ATOM      8  N   UNL     1     -11.295  -7.046  15.730  0.00  0.00    -0.263 NA
ATOM     18  C   UNL     1     -10.846  -8.918  17.757  0.00  0.00    +0.040 A 
ATOM     20  C   UNL     1      -9.792  -8.160  17.261  0.00  0.00    +0.033 A 
ATOM     21  C   UNL     1     -12.125  -8.741  17.240  0.00  0.00    +0.033 A 
ATOM     22  C   UNL     1     -10.066  -7.245  16.257  0.00  0.00    +0.111 A 
ATOM     23  C   UNL     1     -12.295  -7.801  16.237  0.00  0.00    +0.111 A 
ENDBRANCH  16  18
ENDBRANCH  13   5
ENDBRANCH  11  13
TORSDOF 7
ENDMDL
MODEL 10
REMARK VINA RESULT:      -5.9      3.364      5.305
REMARK  Name = 86769009
REMARK  7 active torsions:
REMARK  status: ('A' for Active; 'I' for Inactive)
REMARK    1  A    between atoms: O_2  and  C_10
REMARK    2  A    between atoms: N_4  and  C_9
REMARK    3  A    between atoms: N_4  and  C_14
REMARK    4  A    between atoms: N_5  and  C_13
REMARK    5  A    between atoms: C_11  and  C_13
REMARK    6  A    between atoms: C_14  and  C_15
REMARK    7  A    between atoms: C_16  and  C_18
REMARK                            x       y       z     vdW  Elec       q    Type
REMARK                         _______ _______ _______ _____ _____    ______ ____
ROOT
ATOM      1  O   UNL     1      13.095   8.900  20.322  0.00  0.00    -0.371 OA
ATOM      9  C   UNL     1      12.525   9.448  18.082  0.00  0.00    +0.111 C 
ATOM     10  C   UNL     1      12.860   7.969  18.160  0.00  0.00    +0.164 C 
ATOM     11  C   UNL     1      12.669   7.704  19.648  0.00  0.00    +0.165 C 
ATOM     12  C   UNL     1      13.161   9.968  19.361  0.00  0.00    +0.181 C 
ENDROOT
BRANCH  10   2
ATOM      2  O   UNL     1      12.001   7.172  17.369  0.00  0.00    -0.388 OA
ATOM     25  H   UNL     1      11.731   7.692  16.592  0.00  0.00    +0.210 HD
ENDBRANCH  10   2
BRANCH   9   4
ATOM      4  N   UNL     1      13.039  10.099  16.888  0.00  0.00    -0.304 NA
ATOM     24  H   UNL     1      12.259  10.495  16.364  0.00  0.00    +0.123 HD
BRANCH   4  14
ATOM     14  C   UNL     1      13.970  11.167  17.233  0.00  0.00    +0.136 C 
BRANCH  14  15
ATOM      6  N   UNL     1      16.064  12.232  16.317  0.00  0.00    -0.347 N 
ATOM      7  N   UNL     1      16.343  11.271  14.334  0.00  0.00    -0.244 NA
ATOM     15  C   UNL     1      15.027  11.354  16.178  0.00  0.00    +0.049 A 
ATOM     17  C   UNL     1      15.220  10.773  14.947  0.00  0.00    +0.134 A 
ATOM     19  C   UNL     1      16.827  12.147  15.186  0.00  0.00    +0.196 A 
ATOM     27  H   UNL     1      16.239  12.835  17.110  0.00  0.00    +0.167 HD
ENDBRANCH  14  15
ENDBRANCH   4  14
ENDBRANCH   9   4
BRANCH  11  13
ATOM     13  C   UNL     1      13.470   6.517  20.154  0.00  0.00    +0.138 C 
BRANCH  13   5
ATOM      3  O   UNL     1      15.960   5.972  18.833  0.00  0.00    -0.270 OA
ATOM      5  N   UNL     1      14.777   6.917  20.590  0.00  0.00    -0.309 N 
ATOM     16  C   UNL     1      15.934   6.607  19.884  0.00  0.00    +0.244 C 
ATOM     26  H   UNL     1      14.832   7.388  21.487  0.00  0.00    +0.149 HD
BRANCH  16  18
ATOM      8  N   UNL     1      19.617   7.944  21.608  0.00  0.00    -0.263 NA
ATOM     18  C   UNL     1      17.212   7.071  20.483  0.00  0.00    +0.040 A 
ATOM     20  C   UNL     1      17.252   8.253  21.215  0.00  0.00    +0.033 A 
ATOM     21  C   UNL     1      18.373   6.325  20.315  0.00  0.00    +0.033 A 
ATOM     22  C   UNL     1      18.469   8.642  21.752  0.00  0.00    +0.111 A 
ATOM     23  C   UNL     1      19.540   6.801  20.891  0.00  0.00    +0.111 A 
ENDBRANCH  16  18
ENDBRANCH  13   5
ENDBRANCH  11  13
TORSDOF 7
ENDMDL
