MODEL 1
REMARK VINA RESULT:      -6.7      0.000      0.000
REMARK  Name = 45783685
REMARK  6 active torsions:
REMARK  status: ('A' for Active; 'I' for Inactive)
REMARK    1  A    between atoms: O_2  and  C_24
REMARK    2  A    between atoms: O_2  and  C_25
REMARK    3  A    between atoms: N_3  and  C_11
REMARK    4  A    between atoms: C_7  and  C_12
REMARK    5  A    between atoms: C_11  and  C_13
REMARK    6  A    between atoms: C_16  and  C_19
REMARK                            x       y       z     vdW  Elec       q    Type
REMARK                         _______ _______ _______ _____ _____    ______ ____
ROOT
ATOM      1  O   UNL     1      -4.278 -13.302  15.540  0.00  0.00    -0.336 OA
ATOM      4  N   UNL     1      -4.551 -11.281  16.465  0.00  0.00    -0.190 NA
ATOM      5  N   UNL     1      -5.439 -13.384  16.318  0.00  0.00    -0.056 NA
ATOM     12  C   UNL     1      -3.818 -12.031  15.683  0.00  0.00    +0.245 A 
ATOM     16  C   UNL     1      -5.533 -12.154  16.832  0.00  0.00    +0.204 A 
ENDROOT
BRANCH  16  19
ATOM      6  N   UNL     1      -7.564 -11.813  19.929  0.00  0.00    -0.221 NA
ATOM     19  C   UNL     1      -6.597 -11.766  17.714  0.00  0.00    +0.041 A 
ATOM     21  C   UNL     1      -7.661 -10.997  17.257  0.00  0.00    +0.018 A 
ATOM     22  C   UNL     1      -6.594 -12.144  19.047  0.00  0.00    +0.126 A 
ATOM     23  C   UNL     1      -8.678 -10.637  18.134  0.00  0.00    +0.068 A 
ATOM     24  C   UNL     1      -8.582 -11.066  19.449  0.00  0.00    +0.214 A 
BRANCH  24   2
ATOM      2  O   UNL     1      -9.572 -10.723  20.332  0.00  0.00    -0.480 OA
ATOM     25  C   UNL     1     -10.782 -10.220  19.775  0.00  0.00    +0.279 C 
ENDBRANCH  24   2
ENDBRANCH  16  19
BRANCH  12   7
ATOM      3  N   UNL     1      -2.785 -10.695  13.856  0.00  0.00    -0.287 NA
ATOM      7  C   UNL     1      -2.552 -11.683  14.928  0.00  0.00    +0.146 C 
ATOM      8  C   UNL     1      -1.482 -11.039  15.827  0.00  0.00    +0.030 C 
ATOM      9  C   UNL     1      -1.132  -9.722  15.150  0.00  0.00    +0.017 C 
ATOM     10  C   UNL     1      -1.537  -9.945  13.706  0.00  0.00    +0.085 C 
BRANCH   3  11
ATOM     11  C   UNL     1      -3.215 -11.299  12.601  0.00  0.00    +0.120 C 
BRANCH  11  13
ATOM     13  C   UNL     1      -3.841 -10.287  11.678  0.00  0.00    -0.033 A 
ATOM     14  C   UNL     1      -5.055  -9.690  12.019  0.00  0.00    +0.005 A 
ATOM     15  C   UNL     1      -3.209  -9.949  10.482  0.00  0.00    +0.005 A 
ATOM     17  C   UNL     1      -5.635  -8.753  11.162  0.00  0.00    +0.000 A 
ATOM     18  C   UNL     1      -3.789  -9.012   9.626  0.00  0.00    +0.000 A 
ATOM     20  C   UNL     1      -5.002  -8.415   9.967  0.00  0.00    +0.000 A 
ENDBRANCH  11  13
ENDBRANCH   3  11
ENDBRANCH  12   7
TORSDOF 5
ENDMDL
MODEL 2
REMARK VINA RESULT:      -6.7      2.441      2.783
REMARK  Name = 45783685
REMARK  6 active torsions:
REMARK  status: ('A' for Active; 'I' for Inactive)
REMARK    1  A    between atoms: O_2  and  C_24
REMARK    2  A    between atoms: O_2  and  C_25
REMARK    3  A    between atoms: N_3  and  C_11
REMARK    4  A    between atoms: C_7  and  C_12
REMARK    5  A    between atoms: C_11  and  C_13
REMARK    6  A    between atoms: C_16  and  C_19
REMARK                            x       y       z     vdW  Elec       q    Type
REMARK                         _______ _______ _______ _____ _____    ______ ____
ROOT
ATOM      1  O   UNL     1      -4.792 -11.285  17.274  0.00  0.00    -0.336 OA
ATOM      4  N   UNL     1      -5.516 -10.142  15.489  0.00  0.00    -0.190 NA
ATOM      5  N   UNL     1      -6.081 -10.838  17.593  0.00  0.00    -0.056 NA
ATOM     12  C   UNL     1      -4.537 -10.831  16.018  0.00  0.00    +0.245 A 
ATOM     16  C   UNL     1      -6.440 -10.173  16.492  0.00  0.00    +0.204 A 
ENDROOT
BRANCH  16  19
ATOM      6  N   UNL     1      -9.609  -8.954  14.974  0.00  0.00    -0.221 NA
ATOM     19  C   UNL     1      -7.716  -9.527  16.362  0.00  0.00    +0.041 A 
ATOM     21  C   UNL     1      -8.295  -8.866  17.439  0.00  0.00    +0.018 A 
ATOM     22  C   UNL     1      -8.407  -9.543  15.162  0.00  0.00    +0.126 A 
ATOM     23  C   UNL     1      -9.531  -8.248  17.284  0.00  0.00    +0.068 A 
ATOM     24  C   UNL     1     -10.141  -8.321  16.042  0.00  0.00    +0.214 A 
BRANCH  24   2
ATOM      2  O   UNL     1     -11.360  -7.720  15.865  0.00  0.00    -0.480 OA
ATOM     25  C   UNL     1     -11.432  -6.325  16.141  0.00  0.00    +0.279 C 
ENDBRANCH  24   2
ENDBRANCH  16  19
BRANCH  12   7
ATOM      3  N   UNL     1      -2.926 -10.502  14.152  0.00  0.00    -0.287 NA
ATOM      7  C   UNL     1      -3.187 -11.187  15.433  0.00  0.00    +0.146 C 
ATOM      8  C   UNL     1      -2.017 -10.773  16.344  0.00  0.00    +0.030 C 
ATOM      9  C   UNL     1      -1.120  -9.907  15.471  0.00  0.00    +0.017 C 
ATOM     10  C   UNL     1      -1.475 -10.334  14.060  0.00  0.00    +0.085 C 
BRANCH   3  11
ATOM     11  C   UNL     1      -3.469 -11.211  13.000  0.00  0.00    +0.120 C 
BRANCH  11  13
ATOM     13  C   UNL     1      -3.911 -10.264  11.916  0.00  0.00    -0.033 A 
ATOM     14  C   UNL     1      -5.153  -9.633  12.004  0.00  0.00    +0.005 A 
ATOM     15  C   UNL     1      -3.080 -10.017  10.823  0.00  0.00    +0.005 A 
ATOM     17  C   UNL     1      -5.561  -8.756  10.999  0.00  0.00    +0.000 A 
ATOM     18  C   UNL     1      -3.489  -9.139   9.819  0.00  0.00    +0.000 A 
ATOM     20  C   UNL     1      -4.730  -8.509   9.907  0.00  0.00    +0.000 A 
ENDBRANCH  11  13
ENDBRANCH   3  11
ENDBRANCH  12   7
TORSDOF 5
ENDMDL
MODEL 3
REMARK VINA RESULT:      -6.6      1.455      2.024
REMARK  Name = 45783685
REMARK  6 active torsions:
REMARK  status: ('A' for Active; 'I' for Inactive)
REMARK    1  A    between atoms: O_2  and  C_24
REMARK    2  A    between atoms: O_2  and  C_25
REMARK    3  A    between atoms: N_3  and  C_11
REMARK    4  A    between atoms: C_7  and  C_12
REMARK    5  A    between atoms: C_11  and  C_13
REMARK    6  A    between atoms: C_16  and  C_19
REMARK                            x       y       z     vdW  Elec       q    Type
REMARK                         _______ _______ _______ _____ _____    ______ ____
ROOT
ATOM      1  O   UNL     1      -5.064  -9.693  15.829  0.00  0.00    -0.336 OA
ATOM      4  N   UNL     1      -5.196 -11.618  16.966  0.00  0.00    -0.190 NA
ATOM      5  N   UNL     1      -6.262  -9.637  16.553  0.00  0.00    -0.056 NA
ATOM     12  C   UNL     1      -4.499 -10.893  16.129  0.00  0.00    +0.245 A 
ATOM     16  C   UNL     1      -6.268 -10.807  17.198  0.00  0.00    +0.204 A 
ENDROOT
BRANCH  16  19
ATOM      6  N   UNL     1      -9.571 -10.820  18.907  0.00  0.00    -0.221 NA
ATOM     19  C   UNL     1      -7.332 -11.197  18.079  0.00  0.00    +0.041 A 
ATOM     21  C   UNL     1      -7.188 -12.280  18.939  0.00  0.00    +0.018 A 
ATOM     22  C   UNL     1      -8.532 -10.505  18.101  0.00  0.00    +0.126 A 
ATOM     23  C   UNL     1      -8.235 -12.634  19.783  0.00  0.00    +0.068 A 
ATOM     24  C   UNL     1      -9.395 -11.878  19.728  0.00  0.00    +0.214 A 
BRANCH  24   2
ATOM      2  O   UNL     1     -10.441 -12.207  20.551  0.00  0.00    -0.480 OA
ATOM     25  C   UNL     1     -10.566 -13.579  20.908  0.00  0.00    +0.279 C 
ENDBRANCH  24   2
ENDBRANCH  16  19
BRANCH  12   7
ATOM      3  N   UNL     1      -3.008 -10.494  14.178  0.00  0.00    -0.287 NA
ATOM      7  C   UNL     1      -3.174 -11.200  15.464  0.00  0.00    +0.146 C 
ATOM      8  C   UNL     1      -1.967 -10.760  16.311  0.00  0.00    +0.030 C 
ATOM      9  C   UNL     1      -1.148  -9.857  15.399  0.00  0.00    +0.017 C 
ATOM     10  C   UNL     1      -1.570 -10.281  14.006  0.00  0.00    +0.085 C 
BRANCH   3  11
ATOM     11  C   UNL     1      -3.594 -11.208  13.050  0.00  0.00    +0.120 C 
BRANCH  11  13
ATOM     13  C   UNL     1      -4.032 -10.267  11.959  0.00  0.00    -0.033 A 
ATOM     14  C   UNL     1      -3.201 -10.037  10.862  0.00  0.00    +0.005 A 
ATOM     15  C   UNL     1      -5.267  -9.625  12.045  0.00  0.00    +0.005 A 
ATOM     17  C   UNL     1      -3.606  -9.165   9.851  0.00  0.00    +0.000 A 
ATOM     18  C   UNL     1      -5.672  -8.753  11.034  0.00  0.00    +0.000 A 
ATOM     20  C   UNL     1      -4.841  -8.523   9.937  0.00  0.00    +0.000 A 
ENDBRANCH  11  13
ENDBRANCH   3  11
ENDBRANCH  12   7
TORSDOF 5
ENDMDL
MODEL 4
REMARK VINA RESULT:      -6.4     26.382     29.603
REMARK  Name = 45783685
REMARK  6 active torsions:
REMARK  status: ('A' for Active; 'I' for Inactive)
REMARK    1  A    between atoms: O_2  and  C_24
REMARK    2  A    between atoms: O_2  and  C_25
REMARK    3  A    between atoms: N_3  and  C_11
REMARK    4  A    between atoms: C_7  and  C_12
REMARK    5  A    between atoms: C_11  and  C_13
REMARK    6  A    between atoms: C_16  and  C_19
REMARK                            x       y       z     vdW  Elec       q    Type
REMARK                         _______ _______ _______ _____ _____    ______ ____
ROOT
ATOM      1  O   UNL     1      12.937  10.532  19.236  0.00  0.00    -0.336 OA
ATOM      4  N   UNL     1      13.693   9.252  17.562  0.00  0.00    -0.190 NA
ATOM      5  N   UNL     1      13.650  11.385  18.384  0.00  0.00    -0.056 NA
ATOM     12  C   UNL     1      13.012   9.295  18.679  0.00  0.00    +0.245 A 
ATOM     16  C   UNL     1      14.064  10.557  17.422  0.00  0.00    +0.204 A 
ENDROOT
BRANCH  16  19
ATOM      6  N   UNL     1      15.465  10.755  13.982  0.00  0.00    -0.221 NA
ATOM     19  C   UNL     1      14.852  11.001  16.307  0.00  0.00    +0.041 A 
ATOM     21  C   UNL     1      15.739  12.064  16.436  0.00  0.00    +0.018 A 
ATOM     22  C   UNL     1      14.752  10.386  15.070  0.00  0.00    +0.126 A 
ATOM     23  C   UNL     1      16.490  12.472  15.340  0.00  0.00    +0.068 A 
ATOM     24  C   UNL     1      16.316  11.791  14.146  0.00  0.00    +0.214 A 
BRANCH  24   2
ATOM      2  O   UNL     1      17.045  12.175  13.050  0.00  0.00    -0.480 OA
ATOM     25  C   UNL     1      16.371  12.161  11.796  0.00  0.00    +0.279 C 
ENDBRANCH  24   2
ENDBRANCH  16  19
BRANCH  12   7
ATOM      3  N   UNL     1      13.074   7.704  20.591  0.00  0.00    -0.287 NA
ATOM      7  C   UNL     1      12.310   8.177  19.420  0.00  0.00    +0.146 C 
ATOM      8  C   UNL     1      10.946   8.607  19.990  0.00  0.00    +0.030 C 
ATOM      9  C   UNL     1      11.015   8.283  21.475  0.00  0.00    +0.017 C 
ATOM     10  C   UNL     1      12.090   7.217  21.558  0.00  0.00    +0.085 C 
BRANCH   3  11
ATOM     11  C   UNL     1      14.065   6.689  20.259  0.00  0.00    +0.120 C 
BRANCH  11  13
ATOM     13  C   UNL     1      15.466   7.155  20.555  0.00  0.00    -0.033 A 
ATOM     14  C   UNL     1      15.671   8.323  21.291  0.00  0.00    +0.005 A 
ATOM     15  C   UNL     1      16.558   6.421  20.094  0.00  0.00    +0.005 A 
ATOM     17  C   UNL     1      16.969   8.755  21.565  0.00  0.00    +0.000 A 
ATOM     18  C   UNL     1      17.856   6.853  20.369  0.00  0.00    +0.000 A 
ATOM     20  C   UNL     1      18.061   8.020  21.104  0.00  0.00    +0.000 A 
ENDBRANCH  11  13
ENDBRANCH   3  11
ENDBRANCH  12   7
TORSDOF 5
ENDMDL
MODEL 5
REMARK VINA RESULT:      -6.3     26.275     29.252
REMARK  Name = 45783685
REMARK  6 active torsions:
REMARK  status: ('A' for Active; 'I' for Inactive)
REMARK    1  A    between atoms: O_2  and  C_24
REMARK    2  A    between atoms: O_2  and  C_25
REMARK    3  A    between atoms: N_3  and  C_11
REMARK    4  A    between atoms: C_7  and  C_12
REMARK    5  A    between atoms: C_11  and  C_13
REMARK    6  A    between atoms: C_16  and  C_19
REMARK                            x       y       z     vdW  Elec       q    Type
REMARK                         _______ _______ _______ _____ _____    ______ ____
ROOT
ATOM      1  O   UNL     1      15.442   9.711  21.594  0.00  0.00    -0.336 OA
ATOM      4  N   UNL     1      15.324   7.567  20.958  0.00  0.00    -0.190 NA
ATOM      5  N   UNL     1      16.763   9.251  21.525  0.00  0.00    -0.056 NA
ATOM     12  C   UNL     1      14.658   8.657  21.244  0.00  0.00    +0.245 A 
ATOM     16  C   UNL     1      16.611   7.980  21.145  0.00  0.00    +0.204 A 
ENDROOT
BRANCH  16  19
ATOM      6  N   UNL     1      19.877   6.284  21.681  0.00  0.00    -0.221 NA
ATOM     19  C   UNL     1      17.723   7.097  20.943  0.00  0.00    +0.041 A 
ATOM     21  C   UNL     1      17.754   6.221  19.863  0.00  0.00    +0.018 A 
ATOM     22  C   UNL     1      18.799   7.090  21.815  0.00  0.00    +0.126 A 
ATOM     23  C   UNL     1      18.846   5.376  19.692  0.00  0.00    +0.068 A 
ATOM     24  C   UNL     1      19.872   5.447  20.621  0.00  0.00    +0.214 A 
BRANCH  24   2
ATOM      2  O   UNL     1      20.958   4.625  20.474  0.00  0.00    -0.480 OA
ATOM     25  C   UNL     1      22.227   5.258  20.344  0.00  0.00    +0.279 C 
ENDBRANCH  24   2
ENDBRANCH  16  19
BRANCH  12   7
ATOM      3  N   UNL     1      12.605   8.968  19.874  0.00  0.00    -0.287 NA
ATOM      7  C   UNL     1      13.164   8.899  21.239  0.00  0.00    +0.146 C 
ATOM      8  C   UNL     1      12.376   7.770  21.927  0.00  0.00    +0.030 C 
ATOM      9  C   UNL     1      11.359   7.307  20.894  0.00  0.00    +0.017 C 
ATOM     10  C   UNL     1      11.222   8.500  19.969  0.00  0.00    +0.085 C 
BRANCH   3  11
ATOM     11  C   UNL     1      12.694  10.298  19.284  0.00  0.00    +0.120 C 
BRANCH  11  13
ATOM     13  C   UNL     1      13.381  10.272  17.944  0.00  0.00    -0.033 A 
ATOM     14  C   UNL     1      13.466   9.077  17.228  0.00  0.00    +0.005 A 
ATOM     15  C   UNL     1      13.932  11.440  17.419  0.00  0.00    +0.005 A 
ATOM     17  C   UNL     1      14.103   9.053  15.986  0.00  0.00    +0.000 A 
ATOM     18  C   UNL     1      14.568  11.416  16.178  0.00  0.00    +0.000 A 
ATOM     20  C   UNL     1      14.654  10.222  15.462  0.00  0.00    +0.000 A 
ENDBRANCH  11  13
ENDBRANCH   3  11
ENDBRANCH  12   7
TORSDOF 5
ENDMDL
MODEL 6
REMARK VINA RESULT:      -6.2     27.190     29.722
REMARK  Name = 45783685
REMARK  6 active torsions:
REMARK  status: ('A' for Active; 'I' for Inactive)
REMARK    1  A    between atoms: O_2  and  C_24
REMARK    2  A    between atoms: O_2  and  C_25
REMARK    3  A    between atoms: N_3  and  C_11
REMARK    4  A    between atoms: C_7  and  C_12
REMARK    5  A    between atoms: C_11  and  C_13
REMARK    6  A    between atoms: C_16  and  C_19
REMARK                            x       y       z     vdW  Elec       q    Type
REMARK                         _______ _______ _______ _____ _____    ______ ____
ROOT
ATOM      1  O   UNL     1      16.188   8.591  20.257  0.00  0.00    -0.336 OA
ATOM      4  N   UNL     1      16.627   6.421  19.920  0.00  0.00    -0.190 NA
ATOM      5  N   UNL     1      17.478   8.372  20.757  0.00  0.00    -0.056 NA
ATOM     12  C   UNL     1      15.759   7.391  19.783  0.00  0.00    +0.245 A 
ATOM     16  C   UNL     1      17.665   7.070  20.522  0.00  0.00    +0.204 A 
ENDROOT
BRANCH  16  19
ATOM      6  N   UNL     1      20.514   4.685  20.368  0.00  0.00    -0.221 NA
ATOM     19  C   UNL     1      18.876   6.388  20.878  0.00  0.00    +0.041 A 
ATOM     21  C   UNL     1      19.580   6.732  22.027  0.00  0.00    +0.018 A 
ATOM     22  C   UNL     1      19.380   5.367  20.089  0.00  0.00    +0.126 A 
ATOM     23  C   UNL     1      20.750   6.053  22.347  0.00  0.00    +0.068 A 
ATOM     24  C   UNL     1      21.171   5.046  21.492  0.00  0.00    +0.214 A 
BRANCH  24   2
ATOM      2  O   UNL     1      22.321   4.363  21.787  0.00  0.00    -0.480 OA
ATOM     25  C   UNL     1      23.302   5.059  22.549  0.00  0.00    +0.279 C 
ENDBRANCH  24   2
ENDBRANCH  16  19
BRANCH  12   7
ATOM      3  N   UNL     1      13.485   8.399  19.743  0.00  0.00    -0.287 NA
ATOM      7  C   UNL     1      14.372   7.361  19.179  0.00  0.00    +0.146 C 
ATOM      8  C   UNL     1      14.376   7.631  17.664  0.00  0.00    +0.030 C 
ATOM      9  C   UNL     1      13.419   8.798  17.464  0.00  0.00    +0.017 C 
ATOM     10  C   UNL     1      12.528   8.742  18.690  0.00  0.00    +0.085 C 
BRANCH   3  11
ATOM     11  C   UNL     1      12.821   7.982  20.971  0.00  0.00    +0.120 C 
BRANCH  11  13
ATOM     13  C   UNL     1      12.503   9.155  21.862  0.00  0.00    -0.033 A 
ATOM     14  C   UNL     1      13.500  10.076  22.184  0.00  0.00    +0.005 A 
ATOM     15  C   UNL     1      11.213   9.319  22.364  0.00  0.00    +0.005 A 
ATOM     17  C   UNL     1      13.204  11.162  23.009  0.00  0.00    +0.000 A 
ATOM     18  C   UNL     1      10.918  10.405  23.189  0.00  0.00    +0.000 A 
ATOM     20  C   UNL     1      11.914  11.326  23.512  0.00  0.00    +0.000 A 
ENDBRANCH  11  13
ENDBRANCH   3  11
ENDBRANCH  12   7
TORSDOF 5
ENDMDL
MODEL 7
REMARK VINA RESULT:      -6.2     21.997     26.743
REMARK  Name = 45783685
REMARK  6 active torsions:
REMARK  status: ('A' for Active; 'I' for Inactive)
REMARK    1  A    between atoms: O_2  and  C_24
REMARK    2  A    between atoms: O_2  and  C_25
REMARK    3  A    between atoms: N_3  and  C_11
REMARK    4  A    between atoms: C_7  and  C_12
REMARK    5  A    between atoms: C_11  and  C_13
REMARK    6  A    between atoms: C_16  and  C_19
REMARK                            x       y       z     vdW  Elec       q    Type
REMARK                         _______ _______ _______ _____ _____    ______ ____
ROOT
ATOM      1  O   UNL     1     -14.107   6.191  34.670  0.00  0.00    -0.336 OA
ATOM      4  N   UNL     1     -14.097   5.838  32.459  0.00  0.00    -0.190 NA
ATOM      5  N   UNL     1     -14.181   4.803  34.496  0.00  0.00    -0.056 NA
ATOM     12  C   UNL     1     -14.061   6.725  33.421  0.00  0.00    +0.245 A 
ATOM     16  C   UNL     1     -14.171   4.675  33.167  0.00  0.00    +0.204 A 
ENDROOT
BRANCH  16  19
ATOM      6  N   UNL     1     -14.801   1.050  32.621  0.00  0.00    -0.221 NA
ATOM     19  C   UNL     1     -14.235   3.397  32.515  0.00  0.00    +0.041 A 
ATOM     21  C   UNL     1     -13.814   3.244  31.199  0.00  0.00    +0.018 A 
ATOM     22  C   UNL     1     -14.716   2.279  33.177  0.00  0.00    +0.126 A 
ATOM     23  C   UNL     1     -13.887   1.995  30.593  0.00  0.00    +0.068 A 
ATOM     24  C   UNL     1     -14.384   0.940  31.341  0.00  0.00    +0.214 A 
BRANCH  24   2
ATOM      2  O   UNL     1     -14.465  -0.301  30.766  0.00  0.00    -0.480 OA
ATOM     25  C   UNL     1     -13.490  -0.613  29.776  0.00  0.00    +0.279 C 
ENDBRANCH  24   2
ENDBRANCH  16  19
BRANCH  12   7
ATOM      3  N   UNL     1     -12.716   8.764  33.895  0.00  0.00    -0.287 NA
ATOM      7  C   UNL     1     -13.974   8.233  33.334  0.00  0.00    +0.146 C 
ATOM      8  C   UNL     1     -14.003   8.748  31.883  0.00  0.00    +0.030 C 
ATOM      9  C   UNL     1     -12.753   9.605  31.740  0.00  0.00    +0.017 C 
ATOM     10  C   UNL     1     -12.426   9.999  33.167  0.00  0.00    +0.085 C 
BRANCH   3  11
ATOM     11  C   UNL     1     -12.775   8.978  35.336  0.00  0.00    +0.120 C 
BRANCH  11  13
ATOM     13  C   UNL     1     -11.451   8.698  35.998  0.00  0.00    -0.033 A 
ATOM     14  C   UNL     1     -11.355   7.702  36.970  0.00  0.00    +0.005 A 
ATOM     15  C   UNL     1     -10.323   9.435  35.640  0.00  0.00    +0.005 A 
ATOM     17  C   UNL     1     -10.129   7.444  37.584  0.00  0.00    +0.000 A 
ATOM     18  C   UNL     1      -9.097   9.176  36.254  0.00  0.00    +0.000 A 
ATOM     20  C   UNL     1      -9.000   8.181  37.226  0.00  0.00    +0.000 A 
ENDBRANCH  11  13
ENDBRANCH   3  11
ENDBRANCH  12   7
TORSDOF 5
ENDMDL
MODEL 8
REMARK VINA RESULT:      -6.1     24.659     27.574
REMARK  Name = 45783685
REMARK  6 active torsions:
REMARK  status: ('A' for Active; 'I' for Inactive)
REMARK    1  A    between atoms: O_2  and  C_24
REMARK    2  A    between atoms: O_2  and  C_25
REMARK    3  A    between atoms: N_3  and  C_11
REMARK    4  A    between atoms: C_7  and  C_12
REMARK    5  A    between atoms: C_11  and  C_13
REMARK    6  A    between atoms: C_16  and  C_19
REMARK                            x       y       z     vdW  Elec       q    Type
REMARK                         _______ _______ _______ _____ _____    ______ ____
ROOT
ATOM      1  O   UNL     1      10.393   7.064   3.893  0.00  0.00    -0.336 OA
ATOM      4  N   UNL     1      10.853   4.873   3.858  0.00  0.00    -0.190 NA
ATOM      5  N   UNL     1      10.756   6.763   2.574  0.00  0.00    -0.056 NA
ATOM     12  C   UNL     1      10.477   5.895   4.583  0.00  0.00    +0.245 A 
ATOM     16  C   UNL     1      11.013   5.453   2.634  0.00  0.00    +0.204 A 
ENDROOT
BRANCH  16  19
ATOM      6  N   UNL     1      10.937   3.847  -0.720  0.00  0.00    -0.221 NA
ATOM     19  C   UNL     1      11.431   4.696   1.489  0.00  0.00    +0.041 A 
ATOM     21  C   UNL     1      12.681   4.089   1.451  0.00  0.00    +0.018 A 
ATOM     22  C   UNL     1      10.603   4.547   0.388  0.00  0.00    +0.126 A 
ATOM     23  C   UNL     1      13.060   3.360   0.329  0.00  0.00    +0.068 A 
ATOM     24  C   UNL     1      12.159   3.271  -0.720  0.00  0.00    +0.214 A 
BRANCH  24   2
ATOM      2  O   UNL     1      12.509   2.559  -1.838  0.00  0.00    -0.480 OA
ATOM     25  C   UNL     1      11.574   2.552  -2.912  0.00  0.00    +0.279 C 
ENDBRANCH  24   2
ENDBRANCH  16  19
BRANCH  12   7
ATOM      3  N   UNL     1      10.868   7.011   6.772  0.00  0.00    -0.287 NA
ATOM      7  C   UNL     1      10.129   5.954   6.055  0.00  0.00    +0.146 C 
ATOM      8  C   UNL     1       8.645   6.278   6.302  0.00  0.00    +0.030 C 
ATOM      9  C   UNL     1       8.649   7.495   7.215  0.00  0.00    +0.017 C 
ATOM     10  C   UNL     1      10.011   7.438   7.879  0.00  0.00    +0.085 C 
BRANCH   3  11
ATOM     11  C   UNL     1      12.183   6.583   7.231  0.00  0.00    +0.120 C 
BRANCH  11  13
ATOM     13  C   UNL     1      13.253   7.584   6.880  0.00  0.00    -0.033 A 
ATOM     14  C   UNL     1      14.527   7.145   6.520  0.00  0.00    +0.005 A 
ATOM     15  C   UNL     1      12.969   8.949   6.915  0.00  0.00    +0.005 A 
ATOM     17  C   UNL     1      15.518   8.073   6.196  0.00  0.00    +0.000 A 
ATOM     18  C   UNL     1      13.960   9.876   6.590  0.00  0.00    +0.000 A 
ATOM     20  C   UNL     1      15.234   9.438   6.231  0.00  0.00    +0.000 A 
ENDBRANCH  11  13
ENDBRANCH   3  11
ENDBRANCH  12   7
TORSDOF 5
ENDMDL
MODEL 9
REMARK VINA RESULT:      -6.1      2.843      5.301
REMARK  Name = 45783685
REMARK  6 active torsions:
REMARK  status: ('A' for Active; 'I' for Inactive)
REMARK    1  A    between atoms: O_2  and  C_24
REMARK    2  A    between atoms: O_2  and  C_25
REMARK    3  A    between atoms: N_3  and  C_11
REMARK    4  A    between atoms: C_7  and  C_12
REMARK    5  A    between atoms: C_11  and  C_13
REMARK    6  A    between atoms: C_16  and  C_19
REMARK                            x       y       z     vdW  Elec       q    Type
REMARK                         _______ _______ _______ _____ _____    ______ ____
ROOT
ATOM      1  O   UNL     1      -7.741 -10.038  11.546  0.00  0.00    -0.336 OA
ATOM      4  N   UNL     1      -5.840  -9.213  12.396  0.00  0.00    -0.190 NA
ATOM      5  N   UNL     1      -7.698 -10.453  12.883  0.00  0.00    -0.056 NA
ATOM     12  C   UNL     1      -6.609  -9.313  11.342  0.00  0.00    +0.245 A 
ATOM     16  C   UNL     1      -6.549  -9.928  13.316  0.00  0.00    +0.204 A 
ENDROOT
BRANCH  16  19
ATOM      6  N   UNL     1      -6.541 -10.035  17.034  0.00  0.00    -0.221 NA
ATOM     19  C   UNL     1      -6.081 -10.100  14.662  0.00  0.00    +0.041 A 
ATOM     21  C   UNL     1      -4.768 -10.481  14.919  0.00  0.00    +0.018 A 
ATOM     22  C   UNL     1      -6.920  -9.891  15.744  0.00  0.00    +0.126 A 
ATOM     23  C   UNL     1      -4.342 -10.639  16.233  0.00  0.00    +0.068 A 
ATOM     24  C   UNL     1      -5.259 -10.406  17.245  0.00  0.00    +0.214 A 
BRANCH  24   2
ATOM      2  O   UNL     1      -4.863 -10.555  18.548  0.00  0.00    -0.480 OA
ATOM     25  C   UNL     1      -4.327 -11.823  18.913  0.00  0.00    +0.279 C 
ENDBRANCH  24   2
ENDBRANCH  16  19
BRANCH  12   7
ATOM      3  N   UNL     1      -5.544  -9.585   9.110  0.00  0.00    -0.287 NA
ATOM      7  C   UNL     1      -6.415  -8.742   9.953  0.00  0.00    +0.146 C 
ATOM      8  C   UNL     1      -7.733  -8.631   9.166  0.00  0.00    +0.030 C 
ATOM      9  C   UNL     1      -7.489  -9.390   7.870  0.00  0.00    +0.017 C 
ATOM     10  C   UNL     1      -5.979  -9.377   7.728  0.00  0.00    +0.085 C 
BRANCH   3  11
ATOM     11  C   UNL     1      -4.125  -9.303   9.286  0.00  0.00    +0.120 C 
BRANCH  11  13
ATOM     13  C   UNL     1      -3.494 -10.217  10.302  0.00  0.00    -0.033 A 
ATOM     14  C   UNL     1      -3.915 -11.544  10.404  0.00  0.00    +0.005 A 
ATOM     15  C   UNL     1      -2.489  -9.738  11.142  0.00  0.00    +0.005 A 
ATOM     17  C   UNL     1      -3.330 -12.390  11.346  0.00  0.00    +0.000 A 
ATOM     18  C   UNL     1      -1.905 -10.585  12.084  0.00  0.00    +0.000 A 
ATOM     20  C   UNL     1      -2.325 -11.911  12.186  0.00  0.00    +0.000 A 
ENDBRANCH  11  13
ENDBRANCH   3  11
ENDBRANCH  12   7
TORSDOF 5
ENDMDL
MODEL 10
REMARK VINA RESULT:      -6.1      3.254      9.755
REMARK  Name = 45783685
REMARK  6 active torsions:
REMARK  status: ('A' for Active; 'I' for Inactive)
REMARK    1  A    between atoms: O_2  and  C_24
REMARK    2  A    between atoms: O_2  and  C_25
REMARK    3  A    between atoms: N_3  and  C_11
REMARK    4  A    between atoms: C_7  and  C_12
REMARK    5  A    between atoms: C_11  and  C_13
REMARK    6  A    between atoms: C_16  and  C_19
REMARK                            x       y       z     vdW  Elec       q    Type
REMARK                         _______ _______ _______ _____ _____    ______ ____
ROOT
ATOM      1  O   UNL     1      -8.670 -11.032  20.186  0.00  0.00    -0.336 OA
ATOM      4  N   UNL     1      -8.571 -11.037  17.949  0.00  0.00    -0.190 NA
ATOM      5  N   UNL     1      -7.314 -10.922  19.856  0.00  0.00    -0.056 NA
ATOM     12  C   UNL     1      -9.341 -11.095  19.006  0.00  0.00    +0.245 A 
ATOM     16  C   UNL     1      -7.336 -10.932  18.521  0.00  0.00    +0.204 A 
ENDROOT
BRANCH  16  19
ATOM      6  N   UNL     1      -5.090 -10.205  15.647  0.00  0.00    -0.221 NA
ATOM     19  C   UNL     1      -6.143 -10.840  17.728  0.00  0.00    +0.041 A 
ATOM     21  C   UNL     1      -4.919 -11.272  18.225  0.00  0.00    +0.018 A 
ATOM     22  C   UNL     1      -6.176 -10.319  16.445  0.00  0.00    +0.126 A 
ATOM     23  C   UNL     1      -3.780 -11.171  17.434  0.00  0.00    +0.068 A 
ATOM     24  C   UNL     1      -3.918 -10.635  16.164  0.00  0.00    +0.214 A 
BRANCH  24   2
ATOM      2  O   UNL     1      -2.810 -10.525  15.366  0.00  0.00    -0.480 OA
ATOM     25  C   UNL     1      -1.547 -10.715  15.994  0.00  0.00    +0.279 C 
ENDBRANCH  24   2
ENDBRANCH  16  19
BRANCH  12   7
ATOM      3  N   UNL     1     -11.292 -11.917  20.312  0.00  0.00    -0.287 NA
ATOM      7  C   UNL     1     -10.847 -11.217  19.091  0.00  0.00    +0.146 C 
ATOM      8  C   UNL     1     -11.553  -9.851  19.144  0.00  0.00    +0.030 C 
ATOM      9  C   UNL     1     -12.417  -9.897  20.396  0.00  0.00    +0.017 C 
ATOM     10  C   UNL     1     -12.613 -11.381  20.639  0.00  0.00    +0.085 C 
BRANCH   3  11
ATOM     11  C   UNL     1     -11.310 -13.368  20.169  0.00  0.00    +0.120 C 
BRANCH  11  13
ATOM     13  C   UNL     1     -10.676 -14.054  21.350  0.00  0.00    -0.033 A 
ATOM     14  C   UNL     1     -11.399 -14.218  22.532  0.00  0.00    +0.005 A 
ATOM     15  C   UNL     1      -9.366 -14.525  21.263  0.00  0.00    +0.005 A 
ATOM     17  C   UNL     1     -10.810 -14.854  23.626  0.00  0.00    +0.000 A 
ATOM     18  C   UNL     1      -8.778 -15.161  22.357  0.00  0.00    +0.000 A 
ATOM     20  C   UNL     1      -9.500 -15.325  23.539  0.00  0.00    +0.000 A 
ENDBRANCH  11  13
ENDBRANCH   3  11
ENDBRANCH  12   7
TORSDOF 5
ENDMDL
