MODEL 1
REMARK VINA RESULT:      -7.3      0.000      0.000
REMARK  Name = 75536239
REMARK  11 active torsions:
REMARK  status: ('A' for Active; 'I' for Inactive)
REMARK    1  A    between atoms: O_3  and  C_9
REMARK    2  A    between atoms: N_6  and  C_13
REMARK    3  A    between atoms: C_8  and  C_13
REMARK    4  A    between atoms: C_10  and  C_14
REMARK    5  A    between atoms: C_14  and  C_17
REMARK    6  A    between atoms: C_15  and  C_16
REMARK    7  A    between atoms: C_15  and  C_19
REMARK    8  A    between atoms: C_15  and  C_20
REMARK    9  A    between atoms: C_15  and  C_21
REMARK   10  A    between atoms: C_16  and  C_18
REMARK   11  A    between atoms: C_23  and  C_24
REMARK                            x       y       z     vdW  Elec       q    Type
REMARK                         _______ _______ _______ _____ _____    ______ ____
ROOT
ATOM      2  O   UNL     1      10.566   8.320  19.852  0.00  0.00    -0.369 OA
ATOM      8  C   UNL     1      10.789   8.081  21.247  0.00  0.00    +0.164 C 
ATOM      9  C   UNL     1      11.640   6.824  21.469  0.00  0.00    +0.145 C 
ATOM     10  C   UNL     1      11.747   8.416  19.053  0.00  0.00    +0.125 C 
ATOM     11  C   UNL     1      12.901   6.816  20.609  0.00  0.00    +0.036 C 
ATOM     12  C   UNL     1      12.570   7.132  19.152  0.00  0.00    +0.034 C 
ENDROOT
BRANCH   9   3
ATOM      3  O   UNL     1      10.865   5.674  21.117  0.00  0.00    -0.389 OA
ATOM     31  H   UNL     1      11.474   5.011  20.752  0.00  0.00    +0.210 HD
ENDBRANCH   9   3
BRANCH   8  13
ATOM     13  C   UNL     1      11.364   9.318  21.932  0.00  0.00    +0.138 C 
BRANCH  13   6
ATOM      5  O   UNL     1      13.572  11.062  21.238  0.00  0.00    -0.276 OA
ATOM      6  N   UNL     1      12.760   9.140  22.263  0.00  0.00    -0.313 N 
ATOM     18  C   UNL     1      13.750  10.031  21.886  0.00  0.00    +0.214 C 
ATOM     30  H   UNL     1      13.014   8.308  22.787  0.00  0.00    +0.149 HD
BRANCH  18  16
ATOM     16  C   UNL     1      15.135   9.612  22.348  0.00  0.00    +0.102 C 
BRANCH  16  15
ATOM     15  C   UNL     1      16.090   9.173  21.211  0.00  0.00    -0.029 C 
ATOM     19  C   UNL     1      15.444   9.387  19.832  0.00  0.00    +0.011 C 
ATOM     20  C   UNL     1      17.361  10.042  21.293  0.00  0.00    +0.011 C 
ATOM     21  C   UNL     1      16.499   7.699  21.358  0.00  0.00    +0.011 C 
ENDBRANCH  16  15
ENDBRANCH  18  16
ENDBRANCH  13   6
ENDBRANCH   8  13
BRANCH  10  14
ATOM     14  C   UNL     1      11.311   8.670  17.616  0.00  0.00    +0.090 C 
BRANCH  14  17
ATOM      4  O   UNL     1      13.676   9.612  15.064  0.00  0.00    -0.354 OA
ATOM      7  N   UNL     1      12.579   8.889  15.518  0.00  0.00    -0.083 NA
ATOM     17  C   UNL     1      12.423   9.262  16.791  0.00  0.00    +0.087 A 
ATOM     22  C   UNL     1      13.383  10.207  17.192  0.00  0.00    +0.076 A 
ATOM     23  C   UNL     1      14.145  10.393  16.071  0.00  0.00    +0.167 A 
BRANCH  23  24
ATOM      1  F   UNL     1      18.556  13.546  14.821  0.00  0.00    -0.205 F 
ATOM     24  C   UNL     1      15.283  11.205  15.749  0.00  0.00    +0.020 A 
ATOM     25  C   UNL     1      15.809  12.077  16.702  0.00  0.00    +0.014 A 
ATOM     26  C   UNL     1      15.863  11.124  14.483  0.00  0.00    +0.014 A 
ATOM     27  C   UNL     1      16.915  12.868  16.389  0.00  0.00    +0.039 A 
ATOM     28  C   UNL     1      16.968  11.914  14.169  0.00  0.00    +0.039 A 
ATOM     29  C   UNL     1      17.494  12.786  15.122  0.00  0.00    +0.123 A 
ENDBRANCH  23  24
ENDBRANCH  14  17
ENDBRANCH  10  14
TORSDOF 8
ENDMDL
MODEL 2
REMARK VINA RESULT:      -6.6     17.112     20.134
REMARK  Name = 75536239
REMARK  11 active torsions:
REMARK  status: ('A' for Active; 'I' for Inactive)
REMARK    1  A    between atoms: O_3  and  C_9
REMARK    2  A    between atoms: N_6  and  C_13
REMARK    3  A    between atoms: C_8  and  C_13
REMARK    4  A    between atoms: C_10  and  C_14
REMARK    5  A    between atoms: C_14  and  C_17
REMARK    6  A    between atoms: C_15  and  C_16
REMARK    7  A    between atoms: C_15  and  C_19
REMARK    8  A    between atoms: C_15  and  C_20
REMARK    9  A    between atoms: C_15  and  C_21
REMARK   10  A    between atoms: C_16  and  C_18
REMARK   11  A    between atoms: C_23  and  C_24
REMARK                            x       y       z     vdW  Elec       q    Type
REMARK                         _______ _______ _______ _____ _____    ______ ____
ROOT
ATOM      2  O   UNL     1      12.792   3.243   0.737  0.00  0.00    -0.369 OA
ATOM      8  C   UNL     1      13.190   4.073   1.836  0.00  0.00    +0.164 C 
ATOM      9  C   UNL     1      14.697   4.357   1.804  0.00  0.00    +0.145 C 
ATOM     10  C   UNL     1      13.142   3.738  -0.558  0.00  0.00    +0.125 C 
ATOM     11  C   UNL     1      15.169   4.839   0.435  0.00  0.00    +0.036 C 
ATOM     12  C   UNL     1      14.654   3.924  -0.673  0.00  0.00    +0.034 C 
ENDROOT
BRANCH   9   3
ATOM      3  O   UNL     1      15.400   3.149   2.107  0.00  0.00    -0.389 OA
ATOM     31  H   UNL     1      15.760   3.237   3.006  0.00  0.00    +0.210 HD
ENDBRANCH   9   3
BRANCH   8  13
ATOM     13  C   UNL     1      12.345   5.344   1.899  0.00  0.00    +0.138 C 
BRANCH  13   6
ATOM      5  O   UNL     1       9.904   6.562   2.875  0.00  0.00    -0.276 OA
ATOM      6  N   UNL     1      12.029   5.702   3.263  0.00  0.00    -0.313 N 
ATOM     18  C   UNL     1      10.829   6.283   3.637  0.00  0.00    +0.214 C 
ATOM     30  H   UNL     1      12.736   5.523   3.970  0.00  0.00    +0.149 HD
BRANCH  18  16
ATOM     16  C   UNL     1      10.746   6.571   5.127  0.00  0.00    +0.102 C 
BRANCH  16  15
ATOM     15  C   UNL     1       9.752   5.674   5.903  0.00  0.00    -0.029 C 
ATOM     19  C   UNL     1      10.019   5.733   7.417  0.00  0.00    +0.011 C 
ATOM     20  C   UNL     1       8.328   6.200   5.639  0.00  0.00    +0.011 C 
ATOM     21  C   UNL     1       9.825   4.213   5.432  0.00  0.00    +0.011 C 
ENDBRANCH  16  15
ENDBRANCH  18  16
ENDBRANCH  13   6
ENDBRANCH   8  13
BRANCH  10  14
ATOM     14  C   UNL     1      12.640   2.732  -1.585  0.00  0.00    +0.090 C 
BRANCH  14  17
ATOM      4  O   UNL     1       9.409   2.988  -3.163  0.00  0.00    -0.354 OA
ATOM      7  N   UNL     1      10.480   2.255  -2.665  0.00  0.00    -0.083 NA
ATOM     17  C   UNL     1      11.340   3.169  -2.207  0.00  0.00    +0.087 A 
ATOM     22  C   UNL     1      10.871   4.482  -2.387  0.00  0.00    +0.076 A 
ATOM     23  C   UNL     1       9.654   4.313  -2.992  0.00  0.00    +0.167 A 
BRANCH  23  24
ATOM      1  F   UNL     1       5.682   7.759  -4.808  0.00  0.00    -0.205 F 
ATOM     24  C   UNL     1       8.630   5.200  -3.459  0.00  0.00    +0.020 A 
ATOM     25  C   UNL     1       8.081   5.024  -4.729  0.00  0.00    +0.014 A 
ATOM     26  C   UNL     1       8.182   6.241  -2.645  0.00  0.00    +0.014 A 
ATOM     27  C   UNL     1       7.085   5.888  -5.186  0.00  0.00    +0.039 A 
ATOM     28  C   UNL     1       7.187   7.105  -3.100  0.00  0.00    +0.039 A 
ATOM     29  C   UNL     1       6.638   6.929  -4.370  0.00  0.00    +0.123 A 
ENDBRANCH  23  24
ENDBRANCH  14  17
ENDBRANCH  10  14
TORSDOF 8
ENDMDL
MODEL 3
REMARK VINA RESULT:      -6.6     12.902     16.440
REMARK  Name = 75536239
REMARK  11 active torsions:
REMARK  status: ('A' for Active; 'I' for Inactive)
REMARK    1  A    between atoms: O_3  and  C_9
REMARK    2  A    between atoms: N_6  and  C_13
REMARK    3  A    between atoms: C_8  and  C_13
REMARK    4  A    between atoms: C_10  and  C_14
REMARK    5  A    between atoms: C_14  and  C_17
REMARK    6  A    between atoms: C_15  and  C_16
REMARK    7  A    between atoms: C_15  and  C_19
REMARK    8  A    between atoms: C_15  and  C_20
REMARK    9  A    between atoms: C_15  and  C_21
REMARK   10  A    between atoms: C_16  and  C_18
REMARK   11  A    between atoms: C_23  and  C_24
REMARK                            x       y       z     vdW  Elec       q    Type
REMARK                         _______ _______ _______ _____ _____    ______ ____
ROOT
ATOM      2  O   UNL     1      13.015   5.032   2.212  0.00  0.00    -0.369 OA
ATOM      8  C   UNL     1      14.386   5.416   2.042  0.00  0.00    +0.164 C 
ATOM      9  C   UNL     1      15.172   4.352   1.267  0.00  0.00    +0.145 C 
ATOM     10  C   UNL     1      12.313   4.728   1.003  0.00  0.00    +0.125 C 
ATOM     11  C   UNL     1      14.464   3.926  -0.016  0.00  0.00    +0.036 C 
ATOM     12  C   UNL     1      13.000   3.587   0.255  0.00  0.00    +0.034 C 
ENDROOT
BRANCH   9   3
ATOM      3  O   UNL     1      15.315   3.192   2.092  0.00  0.00    -0.389 OA
ATOM     31  H   UNL     1      14.553   2.614   1.920  0.00  0.00    +0.210 HD
ENDBRANCH   9   3
BRANCH   8  13
ATOM     13  C   UNL     1      14.494   6.807   1.421  0.00  0.00    +0.138 C 
BRANCH  13   6
ATOM      5  O   UNL     1      16.859   7.918   2.673  0.00  0.00    -0.276 OA
ATOM      6  N   UNL     1      14.548   7.837   2.434  0.00  0.00    -0.313 N 
ATOM     18  C   UNL     1      15.732   8.307   2.977  0.00  0.00    +0.214 C 
ATOM     30  H   UNL     1      13.665   8.215   2.764  0.00  0.00    +0.149 HD
BRANCH  18  16
ATOM     16  C   UNL     1      15.518   9.381   4.030  0.00  0.00    +0.102 C 
BRANCH  16  15
ATOM     15  C   UNL     1      15.703   8.901   5.489  0.00  0.00    -0.029 C 
ATOM     19  C   UNL     1      17.190   8.890   5.884  0.00  0.00    +0.011 C 
ATOM     20  C   UNL     1      14.962   9.887   6.414  0.00  0.00    +0.011 C 
ATOM     21  C   UNL     1      15.111   7.499   5.700  0.00  0.00    +0.011 C 
ENDBRANCH  16  15
ENDBRANCH  18  16
ENDBRANCH  13   6
ENDBRANCH   8  13
BRANCH  10  14
ATOM     14  C   UNL     1      10.889   4.348   1.383  0.00  0.00    +0.090 C 
BRANCH  14  17
ATOM      4  O   UNL     1       9.857   6.357   4.193  0.00  0.00    -0.354 OA
ATOM      7  N   UNL     1      10.141   6.183   2.844  0.00  0.00    -0.083 NA
ATOM     17  C   UNL     1      10.503   4.902   2.729  0.00  0.00    +0.087 A 
ATOM     22  C   UNL     1      10.467   4.224   3.960  0.00  0.00    +0.076 A 
ATOM     23  C   UNL     1      10.055   5.183   4.847  0.00  0.00    +0.167 A 
BRANCH  23  24
ATOM      1  F   UNL     1       9.053   5.273  10.319  0.00  0.00    -0.205 F 
ATOM     24  C   UNL     1       9.798   5.207   6.258  0.00  0.00    +0.020 A 
ATOM     25  C   UNL     1       9.938   4.041   7.012  0.00  0.00    +0.014 A 
ATOM     26  C   UNL     1       9.407   6.394   6.877  0.00  0.00    +0.014 A 
ATOM     27  C   UNL     1       9.686   4.063   8.384  0.00  0.00    +0.039 A 
ATOM     28  C   UNL     1       9.156   6.417   8.247  0.00  0.00    +0.039 A 
ATOM     29  C   UNL     1       9.295   5.252   9.001  0.00  0.00    +0.123 A 
ENDBRANCH  23  24
ENDBRANCH  14  17
ENDBRANCH  10  14
TORSDOF 8
ENDMDL
MODEL 4
REMARK VINA RESULT:      -6.6     27.251     29.068
REMARK  Name = 75536239
REMARK  11 active torsions:
REMARK  status: ('A' for Active; 'I' for Inactive)
REMARK    1  A    between atoms: O_3  and  C_9
REMARK    2  A    between atoms: N_6  and  C_13
REMARK    3  A    between atoms: C_8  and  C_13
REMARK    4  A    between atoms: C_10  and  C_14
REMARK    5  A    between atoms: C_14  and  C_17
REMARK    6  A    between atoms: C_15  and  C_16
REMARK    7  A    between atoms: C_15  and  C_19
REMARK    8  A    between atoms: C_15  and  C_20
REMARK    9  A    between atoms: C_15  and  C_21
REMARK   10  A    between atoms: C_16  and  C_18
REMARK   11  A    between atoms: C_23  and  C_24
REMARK                            x       y       z     vdW  Elec       q    Type
REMARK                         _______ _______ _______ _____ _____    ______ ____
ROOT
ATOM      2  O   UNL     1      -9.184  -8.671  15.562  0.00  0.00    -0.369 OA
ATOM      8  C   UNL     1      -9.409  -8.353  16.941  0.00  0.00    +0.164 C 
ATOM      9  C   UNL     1     -10.761  -7.657  17.140  0.00  0.00    +0.145 C 
ATOM     10  C   UNL     1     -10.204  -9.460  14.944  0.00  0.00    +0.125 C 
ATOM     11  C   UNL     1     -11.906  -8.406  16.461  0.00  0.00    +0.036 C 
ATOM     12  C   UNL     1     -11.553  -8.746  15.015  0.00  0.00    +0.034 C 
ENDROOT
BRANCH   9   3
ATOM      3  O   UNL     1     -10.696  -6.349  16.567  0.00  0.00    -0.389 OA
ATOM     31  H   UNL     1      -9.832  -5.969  16.800  0.00  0.00    +0.210 HD
ENDBRANCH   9   3
BRANCH   8  13
ATOM     13  C   UNL     1      -9.238  -9.587  17.825  0.00  0.00    +0.138 C 
BRANCH  13   6
ATOM      5  O   UNL     1      -8.230 -11.387  19.858  0.00  0.00    -0.276 OA
ATOM      6  N   UNL     1      -7.867  -9.744  18.255  0.00  0.00    -0.313 N 
ATOM     18  C   UNL     1      -7.478 -10.636  19.240  0.00  0.00    +0.214 C 
ATOM     30  H   UNL     1      -7.167  -9.155  17.812  0.00  0.00    +0.149 HD
BRANCH  18  16
ATOM     16  C   UNL     1      -5.984 -10.603  19.515  0.00  0.00    +0.102 C 
BRANCH  16  15
ATOM     15  C   UNL     1      -5.132 -11.474  18.561  0.00  0.00    -0.029 C 
ATOM     19  C   UNL     1      -3.889 -12.028  19.279  0.00  0.00    +0.011 C 
ATOM     20  C   UNL     1      -5.997 -12.663  18.101  0.00  0.00    +0.011 C 
ATOM     21  C   UNL     1      -4.691 -10.684  17.319  0.00  0.00    +0.011 C 
ENDBRANCH  16  15
ENDBRANCH  18  16
ENDBRANCH  13   6
ENDBRANCH   8  13
BRANCH  10  14
ATOM     14  C   UNL     1      -9.790  -9.693  13.497  0.00  0.00    +0.090 C 
BRANCH  14  17
ATOM      4  O   UNL     1      -6.558 -11.275  13.709  0.00  0.00    -0.354 OA
ATOM      7  N   UNL     1      -7.912 -11.197  14.014  0.00  0.00    -0.083 NA
ATOM     17  C   UNL     1      -8.344 -10.099  13.388  0.00  0.00    +0.087 A 
ATOM     22  C   UNL     1      -7.318  -9.449  12.680  0.00  0.00    +0.076 A 
ATOM     23  C   UNL     1      -6.217 -10.227  12.915  0.00  0.00    +0.167 A 
BRANCH  23  24
ATOM      1  F   UNL     1      -0.878 -10.013  11.363  0.00  0.00    -0.205 F 
ATOM     24  C   UNL     1      -4.841 -10.173  12.514  0.00  0.00    +0.020 A 
ATOM     25  C   UNL     1      -3.842 -10.593  13.392  0.00  0.00    +0.014 A 
ATOM     26  C   UNL     1      -4.501  -9.699  11.247  0.00  0.00    +0.014 A 
ATOM     27  C   UNL     1      -2.503 -10.540  13.003  0.00  0.00    +0.039 A 
ATOM     28  C   UNL     1      -3.164  -9.645  10.858  0.00  0.00    +0.039 A 
ATOM     29  C   UNL     1      -2.164 -10.065  11.736  0.00  0.00    +0.123 A 
ENDBRANCH  23  24
ENDBRANCH  14  17
ENDBRANCH  10  14
TORSDOF 8
ENDMDL
MODEL 5
REMARK VINA RESULT:      -6.6     27.077     29.072
REMARK  Name = 75536239
REMARK  11 active torsions:
REMARK  status: ('A' for Active; 'I' for Inactive)
REMARK    1  A    between atoms: O_3  and  C_9
REMARK    2  A    between atoms: N_6  and  C_13
REMARK    3  A    between atoms: C_8  and  C_13
REMARK    4  A    between atoms: C_10  and  C_14
REMARK    5  A    between atoms: C_14  and  C_17
REMARK    6  A    between atoms: C_15  and  C_16
REMARK    7  A    between atoms: C_15  and  C_19
REMARK    8  A    between atoms: C_15  and  C_20
REMARK    9  A    between atoms: C_15  and  C_21
REMARK   10  A    between atoms: C_16  and  C_18
REMARK   11  A    between atoms: C_23  and  C_24
REMARK                            x       y       z     vdW  Elec       q    Type
REMARK                         _______ _______ _______ _____ _____    ______ ____
ROOT
ATOM      2  O   UNL     1      -4.170 -12.387  15.824  0.00  0.00    -0.369 OA
ATOM      8  C   UNL     1      -5.423 -12.755  16.415  0.00  0.00    +0.164 C 
ATOM      9  C   UNL     1      -5.307 -12.874  17.939  0.00  0.00    +0.145 C 
ATOM     10  C   UNL     1      -3.582 -11.189  16.338  0.00  0.00    +0.125 C 
ATOM     11  C   UNL     1      -4.637 -11.656  18.569  0.00  0.00    +0.036 C 
ATOM     12  C   UNL     1      -3.340 -11.310  17.841  0.00  0.00    +0.034 C 
ENDROOT
BRANCH   9   3
ATOM      3  O   UNL     1      -4.512 -14.021  18.254  0.00  0.00    -0.389 OA
ATOM     31  H   UNL     1      -3.936 -14.196  17.491  0.00  0.00    +0.210 HD
ENDBRANCH   9   3
BRANCH   8  13
ATOM     13  C   UNL     1      -6.537 -11.808  15.973  0.00  0.00    +0.138 C 
BRANCH  13   6
ATOM      5  O   UNL     1      -7.994 -13.067  13.809  0.00  0.00    -0.276 OA
ATOM      6  N   UNL     1      -6.447 -11.505  14.563  0.00  0.00    -0.313 N 
ATOM     18  C   UNL     1      -7.187 -12.164  13.596  0.00  0.00    +0.214 C 
ATOM     30  H   UNL     1      -5.795 -10.779  14.282  0.00  0.00    +0.149 HD
BRANCH  18  16
ATOM     16  C   UNL     1      -6.903 -11.666  12.189  0.00  0.00    +0.102 C 
BRANCH  16  15
ATOM     15  C   UNL     1      -7.596 -10.331  11.823  0.00  0.00    -0.029 C 
ATOM     19  C   UNL     1      -6.756  -9.127  12.285  0.00  0.00    +0.011 C 
ATOM     20  C   UNL     1      -7.733 -10.268  10.290  0.00  0.00    +0.011 C 
ATOM     21  C   UNL     1      -9.000 -10.237  12.442  0.00  0.00    +0.011 C 
ENDBRANCH  16  15
ENDBRANCH  18  16
ENDBRANCH  13   6
ENDBRANCH   8  13
BRANCH  10  14
ATOM     14  C   UNL     1      -2.272 -10.965  15.594  0.00  0.00    +0.090 C 
BRANCH  14  17
ATOM      4  O   UNL     1      -2.110 -11.778  12.086  0.00  0.00    -0.354 OA
ATOM      7  N   UNL     1      -1.692 -11.926  13.403  0.00  0.00    -0.083 NA
ATOM     17  C   UNL     1      -2.450 -11.076  14.103  0.00  0.00    +0.087 A 
ATOM     22  C   UNL     1      -3.354 -10.372  13.289  0.00  0.00    +0.076 A 
ATOM     23  C   UNL     1      -3.099 -10.849  12.031  0.00  0.00    +0.167 A 
BRANCH  23  24
ATOM      1  F   UNL     1      -5.173  -9.837   6.969  0.00  0.00    -0.205 F 
ATOM     24  C   UNL     1      -3.635 -10.588  10.727  0.00  0.00    +0.020 A 
ATOM     25  C   UNL     1      -4.017 -11.648   9.905  0.00  0.00    +0.014 A 
ATOM     26  C   UNL     1      -3.773  -9.274  10.279  0.00  0.00    +0.014 A 
ATOM     27  C   UNL     1      -4.537 -11.395   8.636  0.00  0.00    +0.039 A 
ATOM     28  C   UNL     1      -4.292  -9.020   9.011  0.00  0.00    +0.039 A 
ATOM     29  C   UNL     1      -4.674 -10.080   8.189  0.00  0.00    +0.123 A 
ENDBRANCH  23  24
ENDBRANCH  14  17
ENDBRANCH  10  14
TORSDOF 8
ENDMDL
MODEL 6
REMARK VINA RESULT:      -6.6     26.338     28.740
REMARK  Name = 75536239
REMARK  11 active torsions:
REMARK  status: ('A' for Active; 'I' for Inactive)
REMARK    1  A    between atoms: O_3  and  C_9
REMARK    2  A    between atoms: N_6  and  C_13
REMARK    3  A    between atoms: C_8  and  C_13
REMARK    4  A    between atoms: C_10  and  C_14
REMARK    5  A    between atoms: C_14  and  C_17
REMARK    6  A    between atoms: C_15  and  C_16
REMARK    7  A    between atoms: C_15  and  C_19
REMARK    8  A    between atoms: C_15  and  C_20
REMARK    9  A    between atoms: C_15  and  C_21
REMARK   10  A    between atoms: C_16  and  C_18
REMARK   11  A    between atoms: C_23  and  C_24
REMARK                            x       y       z     vdW  Elec       q    Type
REMARK                         _______ _______ _______ _____ _____    ______ ____
ROOT
ATOM      2  O   UNL     1      -7.157 -10.701  17.323  0.00  0.00    -0.369 OA
ATOM      8  C   UNL     1      -6.352 -10.533  18.496  0.00  0.00    +0.164 C 
ATOM      9  C   UNL     1      -7.024 -11.152  19.728  0.00  0.00    +0.145 C 
ATOM     10  C   UNL     1      -7.519 -12.050  17.020  0.00  0.00    +0.125 C 
ATOM     11  C   UNL     1      -7.495 -12.582  19.475  0.00  0.00    +0.036 C 
ATOM     12  C   UNL     1      -8.298 -12.671  18.179  0.00  0.00    +0.034 C 
ENDROOT
BRANCH   9   3
ATOM      3  O   UNL     1      -8.171 -10.370  20.071  0.00  0.00    -0.389 OA
ATOM     31  H   UNL     1      -7.887  -9.699  20.714  0.00  0.00    +0.210 HD
ENDBRANCH   9   3
BRANCH   8  13
ATOM     13  C   UNL     1      -4.933 -11.049  18.269  0.00  0.00    +0.138 C 
BRANCH  13   6
ATOM      5  O   UNL     1      -4.177 -12.637  15.967  0.00  0.00    -0.276 OA
ATOM      6  N   UNL     1      -4.391 -10.574  17.016  0.00  0.00    -0.313 N 
ATOM     18  C   UNL     1      -4.058 -11.413  15.966  0.00  0.00    +0.214 C 
ATOM     30  H   UNL     1      -4.241  -9.574  16.920  0.00  0.00    +0.149 HD
BRANCH  18  16
ATOM     16  C   UNL     1      -3.500 -10.669  14.764  0.00  0.00    +0.102 C 
BRANCH  16  15
ATOM     15  C   UNL     1      -2.006 -10.947  14.469  0.00  0.00    -0.029 C 
ATOM     19  C   UNL     1      -1.770 -12.435  14.162  0.00  0.00    +0.011 C 
ATOM     20  C   UNL     1      -1.603 -10.124  13.230  0.00  0.00    +0.011 C 
ATOM     21  C   UNL     1      -1.112 -10.523  15.645  0.00  0.00    +0.011 C 
ENDBRANCH  16  15
ENDBRANCH  18  16
ENDBRANCH  13   6
ENDBRANCH   8  13
BRANCH  10  14
ATOM     14  C   UNL     1      -8.362 -12.026  15.752  0.00  0.00    +0.090 C 
BRANCH  14  17
ATOM      4  O   UNL     1      -6.348 -12.436  12.791  0.00  0.00    -0.354 OA
ATOM      7  N   UNL     1      -7.092 -12.939  13.851  0.00  0.00    -0.083 NA
ATOM     17  C   UNL     1      -7.513 -11.861  14.520  0.00  0.00    +0.087 A 
ATOM     22  C   UNL     1      -7.069 -10.663  13.935  0.00  0.00    +0.076 A 
ATOM     23  C   UNL     1      -6.341 -11.079  12.852  0.00  0.00    +0.167 A 
BRANCH  23  24
ATOM      1  F   UNL     1      -3.502  -8.500   8.822  0.00  0.00    -0.205 F 
ATOM     24  C   UNL     1      -5.608 -10.414  11.815  0.00  0.00    +0.020 A 
ATOM     25  C   UNL     1      -5.892  -9.085  11.503  0.00  0.00    +0.014 A 
ATOM     26  C   UNL     1      -4.612 -11.096  11.115  0.00  0.00    +0.014 A 
ATOM     27  C   UNL     1      -5.180  -8.437  10.492  0.00  0.00    +0.039 A 
ATOM     28  C   UNL     1      -3.901 -10.451  10.105  0.00  0.00    +0.039 A 
ATOM     29  C   UNL     1      -4.185  -9.121   9.793  0.00  0.00    +0.123 A 
ENDBRANCH  23  24
ENDBRANCH  14  17
ENDBRANCH  10  14
TORSDOF 8
ENDMDL
MODEL 7
REMARK VINA RESULT:      -6.5     26.899     29.457
REMARK  Name = 75536239
REMARK  11 active torsions:
REMARK  status: ('A' for Active; 'I' for Inactive)
REMARK    1  A    between atoms: O_3  and  C_9
REMARK    2  A    between atoms: N_6  and  C_13
REMARK    3  A    between atoms: C_8  and  C_13
REMARK    4  A    between atoms: C_10  and  C_14
REMARK    5  A    between atoms: C_14  and  C_17
REMARK    6  A    between atoms: C_15  and  C_16
REMARK    7  A    between atoms: C_15  and  C_19
REMARK    8  A    between atoms: C_15  and  C_20
REMARK    9  A    between atoms: C_15  and  C_21
REMARK   10  A    between atoms: C_16  and  C_18
REMARK   11  A    between atoms: C_23  and  C_24
REMARK                            x       y       z     vdW  Elec       q    Type
REMARK                         _______ _______ _______ _____ _____    ______ ____
ROOT
ATOM      2  O   UNL     1      -3.246  -9.528  10.135  0.00  0.00    -0.369 OA
ATOM      8  C   UNL     1      -4.343  -9.266   9.251  0.00  0.00    +0.164 C 
ATOM      9  C   UNL     1      -5.068 -10.561   8.863  0.00  0.00    +0.145 C 
ATOM     10  C   UNL     1      -3.580 -10.244  11.326  0.00  0.00    +0.125 C 
ATOM     11  C   UNL     1      -5.415 -11.419  10.077  0.00  0.00    +0.036 C 
ATOM     12  C   UNL     1      -4.200 -11.598  10.984  0.00  0.00    +0.034 C 
ENDROOT
BRANCH   9   3
ATOM      3  O   UNL     1      -4.213 -11.332   8.014  0.00  0.00    -0.389 OA
ATOM     31  H   UNL     1      -4.529 -11.222   7.102  0.00  0.00    +0.210 HD
ENDBRANCH   9   3
BRANCH   8  13
ATOM     13  C   UNL     1      -5.280  -8.211   9.835  0.00  0.00    +0.138 C 
BRANCH  13   6
ATOM      5  O   UNL     1      -8.172  -8.357   9.741  0.00  0.00    -0.276 OA
ATOM      6  N   UNL     1      -6.153  -7.661   8.823  0.00  0.00    -0.313 N 
ATOM     18  C   UNL     1      -7.532  -7.781   8.863  0.00  0.00    +0.214 C 
ATOM     30  H   UNL     1      -5.719  -7.175   8.044  0.00  0.00    +0.149 HD
BRANCH  18  16
ATOM     16  C   UNL     1      -8.221  -7.125   7.678  0.00  0.00    +0.102 C 
BRANCH  16  15
ATOM     15  C   UNL     1      -8.874  -8.113   6.682  0.00  0.00    -0.029 C 
ATOM     19  C   UNL     1     -10.273  -8.538   7.160  0.00  0.00    +0.011 C 
ATOM     20  C   UNL     1      -9.021  -7.397   5.325  0.00  0.00    +0.011 C 
ATOM     21  C   UNL     1      -8.005  -9.365   6.479  0.00  0.00    +0.011 C 
ENDBRANCH  16  15
ENDBRANCH  18  16
ENDBRANCH  13   6
ENDBRANCH   8  13
BRANCH  10  14
ATOM     14  C   UNL     1      -2.299 -10.423  12.130  0.00  0.00    +0.090 C 
BRANCH  14  17
ATOM      4  O   UNL     1      -2.161 -10.519  15.731  0.00  0.00    -0.354 OA
ATOM      7  N   UNL     1      -1.567 -10.397  14.480  0.00  0.00    -0.083 NA
ATOM     17  C   UNL     1      -2.573 -10.507  13.608  0.00  0.00    +0.087 A 
ATOM     22  C   UNL     1      -3.813 -10.699  14.243  0.00  0.00    +0.076 A 
ATOM     23  C   UNL     1      -3.499 -10.698  15.576  0.00  0.00    +0.167 A 
BRANCH  23  24
ATOM      1  F   UNL     1      -6.417 -11.239  20.281  0.00  0.00    -0.205 F 
ATOM     24  C   UNL     1      -4.251 -10.839  16.788  0.00  0.00    +0.020 A 
ATOM     25  C   UNL     1      -5.512 -10.253  16.898  0.00  0.00    +0.014 A 
ATOM     26  C   UNL     1      -3.723 -11.561  17.859  0.00  0.00    +0.014 A 
ATOM     27  C   UNL     1      -6.245 -10.388  18.078  0.00  0.00    +0.039 A 
ATOM     28  C   UNL     1      -4.454 -11.696  19.038  0.00  0.00    +0.039 A 
ATOM     29  C   UNL     1      -5.715 -11.110  19.148  0.00  0.00    +0.123 A 
ENDBRANCH  23  24
ENDBRANCH  14  17
ENDBRANCH  10  14
TORSDOF 8
ENDMDL
MODEL 8
REMARK VINA RESULT:      -6.4     27.998     31.251
REMARK  Name = 75536239
REMARK  11 active torsions:
REMARK  status: ('A' for Active; 'I' for Inactive)
REMARK    1  A    between atoms: O_3  and  C_9
REMARK    2  A    between atoms: N_6  and  C_13
REMARK    3  A    between atoms: C_8  and  C_13
REMARK    4  A    between atoms: C_10  and  C_14
REMARK    5  A    between atoms: C_14  and  C_17
REMARK    6  A    between atoms: C_15  and  C_16
REMARK    7  A    between atoms: C_15  and  C_19
REMARK    8  A    between atoms: C_15  and  C_20
REMARK    9  A    between atoms: C_15  and  C_21
REMARK   10  A    between atoms: C_16  and  C_18
REMARK   11  A    between atoms: C_23  and  C_24
REMARK                            x       y       z     vdW  Elec       q    Type
REMARK                         _______ _______ _______ _____ _____    ______ ____
ROOT
ATOM      2  O   UNL     1      -5.101 -11.000  17.443  0.00  0.00    -0.369 OA
ATOM      8  C   UNL     1      -4.662 -10.294  16.275  0.00  0.00    +0.164 C 
ATOM      9  C   UNL     1      -3.569 -11.071  15.531  0.00  0.00    +0.145 C 
ATOM     10  C   UNL     1      -5.559 -12.334  17.212  0.00  0.00    +0.125 C 
ATOM     11  C   UNL     1      -3.955 -12.529  15.290  0.00  0.00    +0.036 C 
ATOM     12  C   UNL     1      -4.457 -13.180  16.576  0.00  0.00    +0.034 C 
ENDROOT
BRANCH   9   3
ATOM      3  O   UNL     1      -2.376 -11.060  16.319  0.00  0.00    -0.389 OA
ATOM     31  H   UNL     1      -2.635 -10.890  17.240  0.00  0.00    +0.210 HD
ENDBRANCH   9   3
BRANCH   8  13
ATOM     13  C   UNL     1      -5.843  -9.922  15.381  0.00  0.00    +0.138 C 
BRANCH  13   6
ATOM      5  O   UNL     1      -8.494 -10.907  16.010  0.00  0.00    -0.276 OA
ATOM      6  N   UNL     1      -6.877  -9.241  16.127  0.00  0.00    -0.313 N 
ATOM     18  C   UNL     1      -8.121  -9.794  16.379  0.00  0.00    +0.214 C 
ATOM     30  H   UNL     1      -6.671  -8.306  16.465  0.00  0.00    +0.149 HD
BRANCH  18  16
ATOM     16  C   UNL     1      -9.031  -8.874  17.174  0.00  0.00    +0.102 C 
BRANCH  16  15
ATOM     15  C   UNL     1     -10.343  -8.481  16.453  0.00  0.00    -0.029 C 
ATOM     19  C   UNL     1     -10.832  -7.095  16.909  0.00  0.00    +0.011 C 
ATOM     20  C   UNL     1     -10.056  -8.421  14.940  0.00  0.00    +0.011 C 
ATOM     21  C   UNL     1     -11.452  -9.517  16.697  0.00  0.00    +0.011 C 
ENDBRANCH  16  15
ENDBRANCH  18  16
ENDBRANCH  13   6
ENDBRANCH   8  13
BRANCH  10  14
ATOM     14  C   UNL     1      -5.980 -12.914  18.556  0.00  0.00    +0.090 C 
BRANCH  14  17
ATOM      4  O   UNL     1      -8.351 -10.672  20.089  0.00  0.00    -0.354 OA
ATOM      7  N   UNL     1      -7.063 -11.022  19.700  0.00  0.00    -0.083 NA
ATOM     17  C   UNL     1      -7.193 -12.214  19.111  0.00  0.00    +0.087 A 
ATOM     22  C   UNL     1      -8.525 -12.662  19.099  0.00  0.00    +0.076 A 
ATOM     23  C   UNL     1      -9.212 -11.657  19.725  0.00  0.00    +0.167 A 
BRANCH  23  24
ATOM      1  F   UNL     1     -14.553 -10.796  21.023  0.00  0.00    -0.205 F 
ATOM     24  C   UNL     1     -10.588 -11.435  20.061  0.00  0.00    +0.020 A 
ATOM     25  C   UNL     1     -11.417 -12.517  20.360  0.00  0.00    +0.014 A 
ATOM     26  C   UNL     1     -11.100 -10.137  20.089  0.00  0.00    +0.014 A 
ATOM     27  C   UNL     1     -12.756 -12.301  20.685  0.00  0.00    +0.039 A 
ATOM     28  C   UNL     1     -12.438  -9.921  20.413  0.00  0.00    +0.039 A 
ATOM     29  C   UNL     1     -13.267 -11.003  20.711  0.00  0.00    +0.123 A 
ENDBRANCH  23  24
ENDBRANCH  14  17
ENDBRANCH  10  14
TORSDOF 8
ENDMDL
MODEL 9
REMARK VINA RESULT:      -6.4     27.045     29.213
REMARK  Name = 75536239
REMARK  11 active torsions:
REMARK  status: ('A' for Active; 'I' for Inactive)
REMARK    1  A    between atoms: O_3  and  C_9
REMARK    2  A    between atoms: N_6  and  C_13
REMARK    3  A    between atoms: C_8  and  C_13
REMARK    4  A    between atoms: C_10  and  C_14
REMARK    5  A    between atoms: C_14  and  C_17
REMARK    6  A    between atoms: C_15  and  C_16
REMARK    7  A    between atoms: C_15  and  C_19
REMARK    8  A    between atoms: C_15  and  C_20
REMARK    9  A    between atoms: C_15  and  C_21
REMARK   10  A    between atoms: C_16  and  C_18
REMARK   11  A    between atoms: C_23  and  C_24
REMARK                            x       y       z     vdW  Elec       q    Type
REMARK                         _______ _______ _______ _____ _____    ______ ____
ROOT
ATOM      2  O   UNL     1      -6.636 -11.796  17.325  0.00  0.00    -0.369 OA
ATOM      8  C   UNL     1      -7.587 -11.056  18.100  0.00  0.00    +0.164 C 
ATOM      9  C   UNL     1      -7.420 -11.331  19.600  0.00  0.00    +0.145 C 
ATOM     10  C   UNL     1      -5.267 -11.590  17.682  0.00  0.00    +0.125 C 
ATOM     11  C   UNL     1      -5.971 -11.188  20.059  0.00  0.00    +0.036 C 
ATOM     12  C   UNL     1      -5.029 -11.966  19.143  0.00  0.00    +0.034 C 
ENDROOT
BRANCH   9   3
ATOM      3  O   UNL     1      -7.833 -12.673  19.872  0.00  0.00    -0.389 OA
ATOM     31  H   UNL     1      -7.143 -13.267  19.531  0.00  0.00    +0.210 HD
ENDBRANCH   9   3
BRANCH   8  13
ATOM     13  C   UNL     1      -7.538  -9.569  17.758  0.00  0.00    +0.138 C 
BRANCH  13   6
ATOM      5  O   UNL     1      -9.183  -8.833  15.489  0.00  0.00    -0.276 OA
ATOM      6  N   UNL     1      -8.855  -8.975  17.786  0.00  0.00    -0.313 N 
ATOM     18  C   UNL     1      -9.569  -8.656  16.644  0.00  0.00    +0.214 C 
ATOM     30  H   UNL     1      -9.259  -8.775  18.697  0.00  0.00    +0.149 HD
BRANCH  18  16
ATOM     16  C   UNL     1     -10.923  -8.034  16.943  0.00  0.00    +0.102 C 
BRANCH  16  15
ATOM     15  C   UNL     1     -12.074  -9.052  17.132  0.00  0.00    -0.029 C 
ATOM     19  C   UNL     1     -12.238  -9.433  18.613  0.00  0.00    +0.011 C 
ATOM     20  C   UNL     1     -13.381  -8.389  16.653  0.00  0.00    +0.011 C 
ATOM     21  C   UNL     1     -11.842 -10.325  16.303  0.00  0.00    +0.011 C 
ENDBRANCH  16  15
ENDBRANCH  18  16
ENDBRANCH  13   6
ENDBRANCH   8  13
BRANCH  10  14
ATOM     14  C   UNL     1      -4.417 -12.450  16.756  0.00  0.00    +0.090 C 
BRANCH  14  17
ATOM      4  O   UNL     1      -2.672 -10.517  14.263  0.00  0.00    -0.354 OA
ATOM      7  N   UNL     1      -2.755 -11.133  15.506  0.00  0.00    -0.083 NA
ATOM     17  C   UNL     1      -3.971 -11.686  15.537  0.00  0.00    +0.087 A 
ATOM     22  C   UNL     1      -4.693 -11.455  14.354  0.00  0.00    +0.076 A 
ATOM     23  C   UNL     1      -3.833 -10.716  13.587  0.00  0.00    +0.167 A 
BRANCH  23  24
ATOM      1  F   UNL     1      -4.075  -8.460   8.507  0.00  0.00    -0.205 F 
ATOM     24  C   UNL     1      -3.896 -10.136  12.277  0.00  0.00    +0.020 A 
ATOM     25  C   UNL     1      -2.740 -10.032  11.504  0.00  0.00    +0.014 A 
ATOM     26  C   UNL     1      -5.113  -9.673  11.776  0.00  0.00    +0.014 A 
ATOM     27  C   UNL     1      -2.800  -9.467  10.230  0.00  0.00    +0.039 A 
ATOM     28  C   UNL     1      -5.174  -9.107  10.503  0.00  0.00    +0.039 A 
ATOM     29  C   UNL     1      -4.017  -9.004   9.730  0.00  0.00    +0.123 A 
ENDBRANCH  23  24
ENDBRANCH  14  17
ENDBRANCH  10  14
TORSDOF 8
ENDMDL
MODEL 10
REMARK VINA RESULT:      -6.4     27.294     29.999
REMARK  Name = 75536239
REMARK  11 active torsions:
REMARK  status: ('A' for Active; 'I' for Inactive)
REMARK    1  A    between atoms: O_3  and  C_9
REMARK    2  A    between atoms: N_6  and  C_13
REMARK    3  A    between atoms: C_8  and  C_13
REMARK    4  A    between atoms: C_10  and  C_14
REMARK    5  A    between atoms: C_14  and  C_17
REMARK    6  A    between atoms: C_15  and  C_16
REMARK    7  A    between atoms: C_15  and  C_19
REMARK    8  A    between atoms: C_15  and  C_20
REMARK    9  A    between atoms: C_15  and  C_21
REMARK   10  A    between atoms: C_16  and  C_18
REMARK   11  A    between atoms: C_23  and  C_24
REMARK                            x       y       z     vdW  Elec       q    Type
REMARK                         _______ _______ _______ _____ _____    ______ ____
ROOT
ATOM      2  O   UNL     1      -5.701 -10.403  17.910  0.00  0.00    -0.369 OA
ATOM      8  C   UNL     1      -4.757 -10.363  16.832  0.00  0.00    +0.164 C 
ATOM      9  C   UNL     1      -3.942 -11.660  16.757  0.00  0.00    +0.145 C 
ATOM     10  C   UNL     1      -6.601 -11.513  17.893  0.00  0.00    +0.125 C 
ATOM     11  C   UNL     1      -4.825 -12.905  16.789  0.00  0.00    +0.036 C 
ATOM     12  C   UNL     1      -5.830 -12.831  17.936  0.00  0.00    +0.034 C 
ENDROOT
BRANCH   9   3
ATOM      3  O   UNL     1      -3.064 -11.719  17.884  0.00  0.00    -0.389 OA
ATOM     31  H   UNL     1      -3.250 -10.946  18.442  0.00  0.00    +0.210 HD
ENDBRANCH   9   3
BRANCH   8  13
ATOM     13  C   UNL     1      -5.443 -10.013  15.513  0.00  0.00    +0.138 C 
BRANCH  13   6
ATOM      5  O   UNL     1      -5.800 -11.589  13.109  0.00  0.00    -0.276 OA
ATOM      6  N   UNL     1      -4.533 -10.126  14.397  0.00  0.00    -0.313 N 
ATOM     18  C   UNL     1      -4.790 -10.909  13.283  0.00  0.00    +0.214 C 
ATOM     30  H   UNL     1      -3.660  -9.611  14.451  0.00  0.00    +0.149 HD
BRANCH  18  16
ATOM     16  C   UNL     1      -3.673 -10.865  12.255  0.00  0.00    +0.102 C 
BRANCH  16  15
ATOM     15  C   UNL     1      -4.002 -10.057  10.977  0.00  0.00    -0.029 C 
ATOM     19  C   UNL     1      -2.763  -9.303  10.464  0.00  0.00    +0.011 C 
ATOM     20  C   UNL     1      -4.453 -11.049   9.887  0.00  0.00    +0.011 C 
ATOM     21  C   UNL     1      -5.140  -9.054  11.223  0.00  0.00    +0.011 C 
ENDBRANCH  16  15
ENDBRANCH  18  16
ENDBRANCH  13   6
ENDBRANCH   8  13
BRANCH  10  14
ATOM     14  C   UNL     1      -7.517 -11.381  19.102  0.00  0.00    +0.090 C 
BRANCH  14  17
ATOM      4  O   UNL     1     -10.769  -9.829  18.998  0.00  0.00    -0.354 OA
ATOM      7  N   UNL     1      -9.826 -10.672  19.575  0.00  0.00    -0.083 NA
ATOM     17  C   UNL     1      -8.755 -10.587  18.781  0.00  0.00    +0.087 A 
ATOM     22  C   UNL     1      -8.961  -9.715  17.698  0.00  0.00    +0.076 A 
ATOM     23  C   UNL     1     -10.241  -9.265  17.880  0.00  0.00    +0.167 A 
BRANCH  23  24
ATOM      1  F   UNL     1     -13.583  -5.768  15.132  0.00  0.00    -0.205 F 
ATOM     24  C   UNL     1     -11.103  -8.363  17.173  0.00  0.00    +0.020 A 
ATOM     25  C   UNL     1     -12.428  -8.718  16.921  0.00  0.00    +0.014 A 
ATOM     26  C   UNL     1     -10.616  -7.130  16.736  0.00  0.00    +0.014 A 
ATOM     27  C   UNL     1     -13.266  -7.841  16.231  0.00  0.00    +0.039 A 
ATOM     28  C   UNL     1     -11.453  -6.254  16.048  0.00  0.00    +0.039 A 
ATOM     29  C   UNL     1     -12.778  -6.609  15.795  0.00  0.00    +0.123 A 
ENDBRANCH  23  24
ENDBRANCH  14  17
ENDBRANCH  10  14
TORSDOF 8
ENDMDL
