MODEL 1
REMARK VINA RESULT:      -6.3      0.000      0.000
REMARK  Name = 28959646
REMARK  11 active torsions:
REMARK  status: ('A' for Active; 'I' for Inactive)
REMARK    1  A    between atoms: O_2  and  C_23
REMARK    2  A    between atoms: O_5  and  C_30
REMARK    3  A    between atoms: O_5  and  C_31
REMARK    4  A    between atoms: N_6  and  C_14
REMARK    5  A    between atoms: C_9  and  C_11
REMARK    6  A    between atoms: C_10  and  C_16
REMARK    7  A    between atoms: C_11  and  C_14
REMARK    8  A    between atoms: C_16  and  C_23
REMARK    9  A    between atoms: C_17  and  C_22
REMARK   10  A    between atoms: C_21  and  C_24
REMARK   11  A    between atoms: C_24  and  C_25
REMARK                            x       y       z     vdW  Elec       q    Type
REMARK                         _______ _______ _______ _____ _____    ______ ____
ROOT
ATOM      1  O   UNL     1      -1.448  -9.810  12.327  0.00  0.00    -0.275 OA
ATOM      7  N   UNL     1      -2.195 -11.364  13.885  0.00  0.00    -0.301 N 
ATOM      9  C   UNL     1      -3.926 -12.244  15.434  0.00  0.00    +0.011 C 
ATOM     10  C   UNL     1      -3.111 -11.659  16.617  0.00  0.00    +0.006 C 
ATOM     12  C   UNL     1      -2.987 -12.544  14.252  0.00  0.00    +0.111 C 
ATOM     13  C   UNL     1      -2.258 -10.457  16.177  0.00  0.00    +0.023 C 
ATOM     15  C   UNL     1      -1.389 -10.807  14.971  0.00  0.00    +0.108 C 
ATOM     21  C   UNL     1      -2.143 -10.787  12.616  0.00  0.00    +0.220 C 
ENDROOT
BRANCH   9  11
ATOM     11  C   UNL     1      -5.089 -11.354  14.979  0.00  0.00    +0.021 C 
BRANCH  11  14
ATOM     14  C   UNL     1      -6.419 -12.080  15.130  0.00  0.00    +0.085 C 
BRANCH  14   6
ATOM      6  N   UNL     1      -7.334 -11.273  15.926  0.00  0.00    -0.291 NA
ATOM     17  C   UNL     1      -7.218 -11.525  17.367  0.00  0.00    +0.143 C 
ATOM     18  C   UNL     1      -7.116  -9.839  15.736  0.00  0.00    +0.085 C 
ATOM     19  C   UNL     1      -7.569 -10.201  18.046  0.00  0.00    +0.029 C 
ATOM     20  C   UNL     1      -7.883  -9.248  16.903  0.00  0.00    +0.017 C 
BRANCH  17  22
ATOM      3  O   UNL     1      -9.382 -12.534  17.344  0.00  0.00    -0.274 OA
ATOM      8  N   UNL     1      -7.687 -13.611  18.467  0.00  0.00    -0.328 N 
ATOM     22  C   UNL     1      -8.210 -12.592  17.707  0.00  0.00    +0.228 C 
ATOM     32  H   UNL     1      -6.717 -13.628  18.763  0.00  0.00    +0.145 HD
ATOM     33  H   UNL     1      -8.267 -14.390  18.763  0.00  0.00    +0.145 HD
ENDBRANCH  17  22
ENDBRANCH  14   6
ENDBRANCH  11  14
ENDBRANCH   9  11
BRANCH  10  16
ATOM     16  C   UNL     1      -3.980 -11.292  17.820  0.00  0.00    +0.124 C 
BRANCH  16  23
ATOM      4  O   UNL     1      -3.308 -12.189  19.984  0.00  0.00    -0.251 OA
ATOM     23  C   UNL     1      -3.878 -12.321  18.912  0.00  0.00    +0.305 C 
BRANCH  23   2
ATOM      2  O   UNL     1      -4.525 -13.453  18.535  0.00  0.00    -0.481 OA
ATOM     34  H   UNL     1      -4.293 -14.216  19.108  0.00  0.00    +0.295 HD
ENDBRANCH  23   2
ENDBRANCH  16  23
ENDBRANCH  10  16
BRANCH  21  24
ATOM     24  C   UNL     1      -3.005 -11.418  11.552  0.00  0.00    +0.131 C 
BRANCH  24  25
ATOM     25  C   UNL     1      -3.911 -10.399  10.934  0.00  0.00    -0.038 A 
ATOM     26  C   UNL     1      -3.741 -10.031   9.600  0.00  0.00    +0.007 A 
ATOM     27  C   UNL     1      -4.928  -9.819  11.694  0.00  0.00    +0.007 A 
ATOM     28  C   UNL     1      -4.587  -9.082   9.025  0.00  0.00    +0.046 A 
ATOM     29  C   UNL     1      -5.773  -8.870  11.120  0.00  0.00    +0.046 A 
ATOM     30  C   UNL     1      -5.602  -8.501   9.785  0.00  0.00    +0.120 A 
BRANCH  30   5
ATOM      5  O   UNL     1      -6.428  -7.576   9.224  0.00  0.00    -0.495 OA
ATOM     31  C   UNL     1      -7.725  -8.018   8.828  0.00  0.00    +0.277 C 
ENDBRANCH  30   5
ENDBRANCH  24  25
ENDBRANCH  21  24
TORSDOF 10
ENDMDL
MODEL 2
REMARK VINA RESULT:      -5.9      1.125      1.990
REMARK  Name = 28959646
REMARK  11 active torsions:
REMARK  status: ('A' for Active; 'I' for Inactive)
REMARK    1  A    between atoms: O_2  and  C_23
REMARK    2  A    between atoms: O_5  and  C_30
REMARK    3  A    between atoms: O_5  and  C_31
REMARK    4  A    between atoms: N_6  and  C_14
REMARK    5  A    between atoms: C_9  and  C_11
REMARK    6  A    between atoms: C_10  and  C_16
REMARK    7  A    between atoms: C_11  and  C_14
REMARK    8  A    between atoms: C_16  and  C_23
REMARK    9  A    between atoms: C_17  and  C_22
REMARK   10  A    between atoms: C_21  and  C_24
REMARK   11  A    between atoms: C_24  and  C_25
REMARK                            x       y       z     vdW  Elec       q    Type
REMARK                         _______ _______ _______ _____ _____    ______ ____
ROOT
ATOM      1  O   UNL     1      -1.304 -10.138  12.293  0.00  0.00    -0.275 OA
ATOM      7  N   UNL     1      -2.270 -11.442  13.956  0.00  0.00    -0.301 N 
ATOM      9  C   UNL     1      -4.152 -11.994  15.480  0.00  0.00    +0.011 C 
ATOM     10  C   UNL     1      -3.348 -11.358  16.643  0.00  0.00    +0.006 C 
ATOM     12  C   UNL     1      -3.187 -12.502  14.394  0.00  0.00    +0.111 C 
ATOM     13  C   UNL     1      -2.365 -10.290  16.133  0.00  0.00    +0.023 C 
ATOM     15  C   UNL     1      -1.473 -10.842  15.025  0.00  0.00    +0.108 C 
ATOM     21  C   UNL     1      -2.101 -11.012  12.640  0.00  0.00    +0.220 C 
ENDROOT
BRANCH   9  11
ATOM     11  C   UNL     1      -5.203 -11.061  14.865  0.00  0.00    +0.021 C 
BRANCH  11  14
ATOM     14  C   UNL     1      -6.561 -11.746  14.792  0.00  0.00    +0.085 C 
BRANCH  14   6
ATOM      6  N   UNL     1      -7.150 -11.819  16.122  0.00  0.00    -0.291 NA
ATOM     17  C   UNL     1      -8.412 -11.080  16.234  0.00  0.00    +0.143 C 
ATOM     18  C   UNL     1      -7.438 -13.196  16.524  0.00  0.00    +0.085 C 
ATOM     19  C   UNL     1      -9.239 -11.831  17.277  0.00  0.00    +0.029 C 
ATOM     20  C   UNL     1      -8.355 -12.990  17.714  0.00  0.00    +0.017 C 
BRANCH  17  22
ATOM      3  O   UNL     1      -7.464  -9.495  17.747  0.00  0.00    -0.274 OA
ATOM      8  N   UNL     1      -8.517  -8.706  15.860  0.00  0.00    -0.328 N 
ATOM     22  C   UNL     1      -8.072  -9.700  16.700  0.00  0.00    +0.228 C 
ATOM     32  H   UNL     1      -9.028  -8.904  15.005  0.00  0.00    +0.145 HD
ATOM     33  H   UNL     1      -8.349  -7.729  16.075  0.00  0.00    +0.145 HD
ENDBRANCH  17  22
ENDBRANCH  14   6
ENDBRANCH  11  14
ENDBRANCH   9  11
BRANCH  10  16
ATOM     16  C   UNL     1      -4.239 -10.788  17.747  0.00  0.00    +0.124 C 
BRANCH  16  23
ATOM      4  O   UNL     1      -5.419 -12.156  19.384  0.00  0.00    -0.251 OA
ATOM     23  C   UNL     1      -4.376 -11.745  18.899  0.00  0.00    +0.305 C 
BRANCH  23   2
ATOM      2  O   UNL     1      -3.144 -12.104  19.343  0.00  0.00    -0.481 OA
ATOM     34  H   UNL     1      -2.637 -11.333  19.678  0.00  0.00    +0.295 HD
ENDBRANCH  23   2
ENDBRANCH  16  23
ENDBRANCH  10  16
BRANCH  21  24
ATOM     24  C   UNL     1      -2.962 -11.678  11.596  0.00  0.00    +0.131 C 
BRANCH  24  25
ATOM     25  C   UNL     1      -3.884 -10.684  10.960  0.00  0.00    -0.038 A 
ATOM     26  C   UNL     1      -5.247 -10.713  11.248  0.00  0.00    +0.007 A 
ATOM     27  C   UNL     1      -3.376  -9.727  10.080  0.00  0.00    +0.007 A 
ATOM     28  C   UNL     1      -6.105  -9.786  10.655  0.00  0.00    +0.046 A 
ATOM     29  C   UNL     1      -4.233  -8.800   9.487  0.00  0.00    +0.046 A 
ATOM     30  C   UNL     1      -5.598  -8.830   9.775  0.00  0.00    +0.120 A 
BRANCH  30   5
ATOM      5  O   UNL     1      -6.434  -7.925   9.197  0.00  0.00    -0.495 OA
ATOM     31  C   UNL     1      -7.829  -8.225   9.216  0.00  0.00    +0.277 C 
ENDBRANCH  30   5
ENDBRANCH  24  25
ENDBRANCH  21  24
TORSDOF 10
ENDMDL
MODEL 3
REMARK VINA RESULT:      -5.8      1.683      2.331
REMARK  Name = 28959646
REMARK  11 active torsions:
REMARK  status: ('A' for Active; 'I' for Inactive)
REMARK    1  A    between atoms: O_2  and  C_23
REMARK    2  A    between atoms: O_5  and  C_30
REMARK    3  A    between atoms: O_5  and  C_31
REMARK    4  A    between atoms: N_6  and  C_14
REMARK    5  A    between atoms: C_9  and  C_11
REMARK    6  A    between atoms: C_10  and  C_16
REMARK    7  A    between atoms: C_11  and  C_14
REMARK    8  A    between atoms: C_16  and  C_23
REMARK    9  A    between atoms: C_17  and  C_22
REMARK   10  A    between atoms: C_21  and  C_24
REMARK   11  A    between atoms: C_24  and  C_25
REMARK                            x       y       z     vdW  Elec       q    Type
REMARK                         _______ _______ _______ _____ _____    ______ ____
ROOT
ATOM      1  O   UNL     1      -1.460 -10.116  12.056  0.00  0.00    -0.275 OA
ATOM      7  N   UNL     1      -2.281 -11.482  13.747  0.00  0.00    -0.301 N 
ATOM      9  C   UNL     1      -4.059 -12.144  15.351  0.00  0.00    +0.011 C 
ATOM     10  C   UNL     1      -3.234 -11.477  16.483  0.00  0.00    +0.006 C 
ATOM     12  C   UNL     1      -3.121 -12.592  14.216  0.00  0.00    +0.111 C 
ATOM     13  C   UNL     1      -2.332 -10.356  15.939  0.00  0.00    +0.023 C 
ATOM     15  C   UNL     1      -1.465 -10.853  14.785  0.00  0.00    +0.108 C 
ATOM     21  C   UNL     1      -2.195 -11.034  12.429  0.00  0.00    +0.220 C 
ENDROOT
BRANCH   9  11
ATOM     11  C   UNL     1      -5.183 -11.260  14.796  0.00  0.00    +0.021 C 
BRANCH  11  14
ATOM     14  C   UNL     1      -6.542 -11.913  15.008  0.00  0.00    +0.085 C 
BRANCH  14   6
ATOM      6  N   UNL     1      -7.478 -11.447  13.994  0.00  0.00    -0.291 NA
ATOM     17  C   UNL     1      -7.617  -9.987  13.967  0.00  0.00    +0.143 C 
ATOM     18  C   UNL     1      -7.079 -11.851  12.646  0.00  0.00    +0.085 C 
ATOM     19  C   UNL     1      -7.925  -9.629  12.513  0.00  0.00    +0.029 C 
ATOM     20  C   UNL     1      -7.951 -10.962  11.781  0.00  0.00    +0.017 C 
BRANCH  17  22
ATOM      3  O   UNL     1      -9.912  -9.987  14.627  0.00  0.00    -0.274 OA
ATOM      8  N   UNL     1      -8.394  -8.887  15.960  0.00  0.00    -0.328 N 
ATOM     22  C   UNL     1      -8.759  -9.638  14.868  0.00  0.00    +0.228 C 
ATOM     32  H   UNL     1      -7.434  -8.602  16.129  0.00  0.00    +0.145 HD
ATOM     33  H   UNL     1      -9.084  -8.586  16.640  0.00  0.00    +0.145 HD
ENDBRANCH  17  22
ENDBRANCH  14   6
ENDBRANCH  11  14
ENDBRANCH   9  11
BRANCH  10  16
ATOM     16  C   UNL     1      -4.100 -10.963  17.632  0.00  0.00    +0.124 C 
BRANCH  16  23
ATOM      4  O   UNL     1      -5.239 -12.652  18.971  0.00  0.00    -0.251 OA
ATOM     23  C   UNL     1      -4.243 -11.991  18.722  0.00  0.00    +0.305 C 
BRANCH  23   2
ATOM      2  O   UNL     1      -3.078 -12.089  19.413  0.00  0.00    -0.481 OA
ATOM     34  H   UNL     1      -2.713 -13.000  19.387  0.00  0.00    +0.295 HD
ENDBRANCH  23   2
ENDBRANCH  16  23
ENDBRANCH  10  16
BRANCH  21  24
ATOM     24  C   UNL     1      -3.070 -11.733  11.420  0.00  0.00    +0.131 C 
BRANCH  24  25
ATOM     25  C   UNL     1      -3.991 -10.758  10.754  0.00  0.00    -0.038 A 
ATOM     26  C   UNL     1      -4.535 -11.053   9.505  0.00  0.00    +0.007 A 
ATOM     27  C   UNL     1      -4.305  -9.554  11.386  0.00  0.00    +0.007 A 
ATOM     28  C   UNL     1      -5.393 -10.144   8.886  0.00  0.00    +0.046 A 
ATOM     29  C   UNL     1      -5.162  -8.645  10.767  0.00  0.00    +0.046 A 
ATOM     30  C   UNL     1      -5.707  -8.940   9.517  0.00  0.00    +0.120 A 
BRANCH  30   5
ATOM      5  O   UNL     1      -6.545  -8.053   8.914  0.00  0.00    -0.495 OA
ATOM     31  C   UNL     1      -7.946  -8.274   9.070  0.00  0.00    +0.277 C 
ENDBRANCH  30   5
ENDBRANCH  24  25
ENDBRANCH  21  24
TORSDOF 10
ENDMDL
MODEL 4
REMARK VINA RESULT:      -5.7      1.629      1.889
REMARK  Name = 28959646
REMARK  11 active torsions:
REMARK  status: ('A' for Active; 'I' for Inactive)
REMARK    1  A    between atoms: O_2  and  C_23
REMARK    2  A    between atoms: O_5  and  C_30
REMARK    3  A    between atoms: O_5  and  C_31
REMARK    4  A    between atoms: N_6  and  C_14
REMARK    5  A    between atoms: C_9  and  C_11
REMARK    6  A    between atoms: C_10  and  C_16
REMARK    7  A    between atoms: C_11  and  C_14
REMARK    8  A    between atoms: C_16  and  C_23
REMARK    9  A    between atoms: C_17  and  C_22
REMARK   10  A    between atoms: C_21  and  C_24
REMARK   11  A    between atoms: C_24  and  C_25
REMARK                            x       y       z     vdW  Elec       q    Type
REMARK                         _______ _______ _______ _____ _____    ______ ____
ROOT
ATOM      1  O   UNL     1      -1.794 -10.004  13.757  0.00  0.00    -0.275 OA
ATOM      7  N   UNL     1      -3.163 -11.366  15.050  0.00  0.00    -0.301 N 
ATOM      9  C   UNL     1      -5.384 -11.979  15.978  0.00  0.00    +0.011 C 
ATOM     10  C   UNL     1      -4.943 -11.373  17.335  0.00  0.00    +0.006 C 
ATOM     12  C   UNL     1      -4.148 -12.445  15.188  0.00  0.00    +0.111 C 
ATOM     13  C   UNL     1      -3.874 -10.282  17.147  0.00  0.00    +0.023 C 
ATOM     15  C   UNL     1      -2.701 -10.794  16.315  0.00  0.00    +0.108 C 
ATOM     21  C   UNL     1      -2.642 -10.895  13.845  0.00  0.00    +0.220 C 
ENDROOT
BRANCH   9  11
ATOM     11  C   UNL     1      -6.238 -11.034  15.122  0.00  0.00    +0.021 C 
BRANCH  11  14
ATOM     14  C   UNL     1      -7.420 -11.775  14.512  0.00  0.00    +0.085 C 
BRANCH  14   6
ATOM      6  N   UNL     1      -8.643 -11.010  14.721  0.00  0.00    -0.291 NA
ATOM     17  C   UNL     1      -8.886 -10.687  16.131  0.00  0.00    +0.143 C 
ATOM     18  C   UNL     1      -8.630  -9.738  13.999  0.00  0.00    +0.085 C 
ATOM     19  C   UNL     1      -9.631  -9.352  16.125  0.00  0.00    +0.029 C 
ATOM     20  C   UNL     1      -9.777  -8.994  14.654  0.00  0.00    +0.017 C 
BRANCH  17  22
ATOM      3  O   UNL     1      -9.394 -12.435  17.676  0.00  0.00    -0.274 OA
ATOM      8  N   UNL     1     -10.903 -11.990  15.998  0.00  0.00    -0.328 N 
ATOM     22  C   UNL     1      -9.735 -11.783  16.693  0.00  0.00    +0.228 C 
ATOM     32  H   UNL     1     -11.155 -11.443  15.180  0.00  0.00    +0.145 HD
ATOM     33  H   UNL     1     -11.558 -12.711  16.283  0.00  0.00    +0.145 HD
ENDBRANCH  17  22
ENDBRANCH  14   6
ENDBRANCH  11  14
ENDBRANCH   9  11
BRANCH  10  16
ATOM     16  C   UNL     1      -6.113 -10.843  18.164  0.00  0.00    +0.124 C 
BRANCH  16  23
ATOM      4  O   UNL     1      -6.090 -11.274  20.564  0.00  0.00    -0.251 OA
ATOM     23  C   UNL     1      -6.310 -11.647  19.421  0.00  0.00    +0.305 C 
BRANCH  23   2
ATOM      2  O   UNL     1      -6.779 -12.881  19.106  0.00  0.00    -0.481 OA
ATOM     34  H   UNL     1      -6.139 -13.587  19.341  0.00  0.00    +0.295 HD
ENDBRANCH  23   2
ENDBRANCH  16  23
ENDBRANCH  10  16
BRANCH  21  24
ATOM     24  C   UNL     1      -3.171 -11.534  12.586  0.00  0.00    +0.131 C 
BRANCH  24  25
ATOM     25  C   UNL     1      -3.852 -10.516  11.723  0.00  0.00    -0.038 A 
ATOM     26  C   UNL     1      -3.276 -10.129  10.514  0.00  0.00    +0.007 A 
ATOM     27  C   UNL     1      -5.063  -9.956  12.130  0.00  0.00    +0.007 A 
ATOM     28  C   UNL     1      -3.910  -9.182   9.711  0.00  0.00    +0.046 A 
ATOM     29  C   UNL     1      -5.698  -9.008  11.328  0.00  0.00    +0.046 A 
ATOM     30  C   UNL     1      -5.121  -8.621  10.118  0.00  0.00    +0.120 A 
BRANCH  30   5
ATOM      5  O   UNL     1      -5.741  -7.697   9.334  0.00  0.00    -0.495 OA
ATOM     31  C   UNL     1      -7.067  -7.998   8.900  0.00  0.00    +0.277 C 
ENDBRANCH  30   5
ENDBRANCH  24  25
ENDBRANCH  21  24
TORSDOF 10
ENDMDL
MODEL 5
REMARK VINA RESULT:      -5.7     23.503     27.796
REMARK  Name = 28959646
REMARK  11 active torsions:
REMARK  status: ('A' for Active; 'I' for Inactive)
REMARK    1  A    between atoms: O_2  and  C_23
REMARK    2  A    between atoms: O_5  and  C_30
REMARK    3  A    between atoms: O_5  and  C_31
REMARK    4  A    between atoms: N_6  and  C_14
REMARK    5  A    between atoms: C_9  and  C_11
REMARK    6  A    between atoms: C_10  and  C_16
REMARK    7  A    between atoms: C_11  and  C_14
REMARK    8  A    between atoms: C_16  and  C_23
REMARK    9  A    between atoms: C_17  and  C_22
REMARK   10  A    between atoms: C_21  and  C_24
REMARK   11  A    between atoms: C_24  and  C_25
REMARK                            x       y       z     vdW  Elec       q    Type
REMARK                         _______ _______ _______ _____ _____    ______ ____
ROOT
ATOM      1  O   UNL     1      11.140   8.281   2.012  0.00  0.00    -0.275 OA
ATOM      7  N   UNL     1      10.276   6.447   0.877  0.00  0.00    -0.301 N 
ATOM      9  C   UNL     1      10.476   4.623  -0.799  0.00  0.00    +0.011 C 
ATOM     10  C   UNL     1       9.587   5.457  -1.757  0.00  0.00    +0.006 C 
ATOM     12  C   UNL     1      10.164   4.999   0.661  0.00  0.00    +0.111 C 
ATOM     13  C   UNL     1       9.696   6.963  -1.463  0.00  0.00    +0.023 C 
ATOM     15  C   UNL     1       9.426   7.261   0.010  0.00  0.00    +0.108 C 
ATOM     21  C   UNL     1      11.084   7.062   1.833  0.00  0.00    +0.220 C 
ENDROOT
BRANCH   9  11
ATOM     11  C   UNL     1      11.980   4.752  -1.072  0.00  0.00    +0.021 C 
BRANCH  11  14
ATOM     14  C   UNL     1      12.645   3.383  -1.100  0.00  0.00    +0.085 C 
BRANCH  14   6
ATOM      6  N   UNL     1      13.790   3.372  -0.198  0.00  0.00    -0.291 NA
ATOM     17  C   UNL     1      14.577   4.608  -0.253  0.00  0.00    +0.143 C 
ATOM     18  C   UNL     1      13.391   3.194   1.198  0.00  0.00    +0.085 C 
ATOM     19  C   UNL     1      15.161   4.786   1.149  0.00  0.00    +0.029 C 
ATOM     20  C   UNL     1      14.655   3.588   1.937  0.00  0.00    +0.017 C 
BRANCH  17  22
ATOM      3  O   UNL     1      15.468   4.591  -2.467  0.00  0.00    -0.274 OA
ATOM      8  N   UNL     1      16.842   3.960  -0.734  0.00  0.00    -0.328 N 
ATOM     22  C   UNL     1      15.654   4.398  -1.269  0.00  0.00    +0.228 C 
ATOM     32  H   UNL     1      16.966   3.798   0.260  0.00  0.00    +0.145 HD
ATOM     33  H   UNL     1      17.645   3.779  -1.328  0.00  0.00    +0.145 HD
ENDBRANCH  17  22
ENDBRANCH  14   6
ENDBRANCH  11  14
ENDBRANCH   9  11
BRANCH  10  16
ATOM     16  C   UNL     1       9.868   5.174  -3.233  0.00  0.00    +0.124 C 
BRANCH  16  23
ATOM      4  O   UNL     1       9.319   2.813  -3.494  0.00  0.00    -0.251 OA
ATOM     23  C   UNL     1       9.084   3.989  -3.729  0.00  0.00    +0.305 C 
BRANCH  23   2
ATOM      2  O   UNL     1       8.049   4.415  -4.496  0.00  0.00    -0.481 OA
ATOM     34  H   UNL     1       8.177   4.187  -5.443  0.00  0.00    +0.295 HD
ENDBRANCH  23   2
ENDBRANCH  16  23
ENDBRANCH  10  16
BRANCH  21  24
ATOM     24  C   UNL     1      11.932   6.153   2.686  0.00  0.00    +0.131 C 
BRANCH  24  25
ATOM     25  C   UNL     1      11.310   5.963   4.034  0.00  0.00    -0.038 A 
ATOM     26  C   UNL     1      11.724   6.746   5.111  0.00  0.00    +0.007 A 
ATOM     27  C   UNL     1      10.315   5.001   4.213  0.00  0.00    +0.007 A 
ATOM     28  C   UNL     1      11.143   6.568   6.367  0.00  0.00    +0.046 A 
ATOM     29  C   UNL     1       9.734   4.822   5.468  0.00  0.00    +0.046 A 
ATOM     30  C   UNL     1      10.149   5.606   6.546  0.00  0.00    +0.120 A 
BRANCH  30   5
ATOM      5  O   UNL     1       9.582   5.433   7.771  0.00  0.00    -0.495 OA
ATOM     31  C   UNL     1       9.805   4.181   8.418  0.00  0.00    +0.277 C 
ENDBRANCH  30   5
ENDBRANCH  24  25
ENDBRANCH  21  24
TORSDOF 10
ENDMDL
MODEL 6
REMARK VINA RESULT:      -5.6      2.867      4.063
REMARK  Name = 28959646
REMARK  11 active torsions:
REMARK  status: ('A' for Active; 'I' for Inactive)
REMARK    1  A    between atoms: O_2  and  C_23
REMARK    2  A    between atoms: O_5  and  C_30
REMARK    3  A    between atoms: O_5  and  C_31
REMARK    4  A    between atoms: N_6  and  C_14
REMARK    5  A    between atoms: C_9  and  C_11
REMARK    6  A    between atoms: C_10  and  C_16
REMARK    7  A    between atoms: C_11  and  C_14
REMARK    8  A    between atoms: C_16  and  C_23
REMARK    9  A    between atoms: C_17  and  C_22
REMARK   10  A    between atoms: C_21  and  C_24
REMARK   11  A    between atoms: C_24  and  C_25
REMARK                            x       y       z     vdW  Elec       q    Type
REMARK                         _______ _______ _______ _____ _____    ______ ____
ROOT
ATOM      1  O   UNL     1      -3.637  -8.788   9.786  0.00  0.00    -0.275 OA
ATOM      7  N   UNL     1      -3.121 -10.744  10.929  0.00  0.00    -0.301 N 
ATOM      9  C   UNL     1      -3.412 -12.293  12.850  0.00  0.00    +0.011 C 
ATOM     10  C   UNL     1      -2.073 -11.768  13.429  0.00  0.00    +0.006 C 
ATOM     12  C   UNL     1      -3.420 -12.127  11.319  0.00  0.00    +0.111 C 
ATOM     13  C   UNL     1      -1.775 -10.335  12.954  0.00  0.00    +0.023 C 
ATOM     15  C   UNL     1      -1.848 -10.228  11.433  0.00  0.00    +0.108 C 
ATOM     21  C   UNL     1      -3.924  -9.939  10.121  0.00  0.00    +0.220 C 
ENDROOT
BRANCH   9  11
ATOM     11  C   UNL     1      -4.656 -11.637  13.463  0.00  0.00    +0.021 C 
BRANCH  11  14
ATOM     14  C   UNL     1      -5.379 -12.605  14.389  0.00  0.00    +0.085 C 
BRANCH  14   6
ATOM      6  N   UNL     1      -5.342 -12.102  15.756  0.00  0.00    -0.291 NA
ATOM     17  C   UNL     1      -6.622 -11.537  16.196  0.00  0.00    +0.143 C 
ATOM     18  C   UNL     1      -4.994 -13.146  16.720  0.00  0.00    +0.085 C 
ATOM     19  C   UNL     1      -6.686 -11.789  17.703  0.00  0.00    +0.029 C 
ATOM     20  C   UNL     1      -5.383 -12.500  18.035  0.00  0.00    +0.017 C 
BRANCH  17  22
ATOM      3  O   UNL     1      -5.706  -9.337  16.327  0.00  0.00    -0.274 OA
ATOM      8  N   UNL     1      -7.625  -9.648  15.098  0.00  0.00    -0.328 N 
ATOM     22  C   UNL     1      -6.585 -10.074  15.890  0.00  0.00    +0.228 C 
ATOM     32  H   UNL     1      -8.346 -10.277  14.760  0.00  0.00    +0.145 HD
ATOM     33  H   UNL     1      -7.708  -8.673  14.828  0.00  0.00    +0.145 HD
ENDBRANCH  17  22
ENDBRANCH  14   6
ENDBRANCH  11  14
ENDBRANCH   9  11
BRANCH  10  16
ATOM     16  C   UNL     1      -2.004 -11.856  14.953  0.00  0.00    +0.124 C 
BRANCH  16  23
ATOM      4  O   UNL     1      -0.716  -9.929  15.710  0.00  0.00    -0.251 OA
ATOM     23  C   UNL     1      -1.786 -10.505  15.577  0.00  0.00    +0.305 C 
BRANCH  23   2
ATOM      2  O   UNL     1      -2.975  -9.993  15.987  0.00  0.00    -0.481 OA
ATOM     34  H   UNL     1      -3.545 -10.679  16.397  0.00  0.00    +0.295 HD
ENDBRANCH  23   2
ENDBRANCH  16  23
ENDBRANCH  10  16
BRANCH  21  24
ATOM     24  C   UNL     1      -5.221 -10.543   9.645  0.00  0.00    +0.131 C 
BRANCH  24  25
ATOM     25  C   UNL     1      -5.144 -10.877   8.187  0.00  0.00    -0.038 A 
ATOM     26  C   UNL     1      -5.812 -10.086   7.254  0.00  0.00    +0.007 A 
ATOM     27  C   UNL     1      -4.402 -11.980   7.764  0.00  0.00    +0.007 A 
ATOM     28  C   UNL     1      -5.738 -10.397   5.896  0.00  0.00    +0.046 A 
ATOM     29  C   UNL     1      -4.328 -12.292   6.407  0.00  0.00    +0.046 A 
ATOM     30  C   UNL     1      -4.997 -11.500   5.472  0.00  0.00    +0.120 A 
BRANCH  30   5
ATOM      5  O   UNL     1      -4.925 -11.804   4.148  0.00  0.00    -0.495 OA
ATOM     31  C   UNL     1      -3.736 -12.449   3.693  0.00  0.00    +0.277 C 
ENDBRANCH  30   5
ENDBRANCH  24  25
ENDBRANCH  21  24
TORSDOF 10
ENDMDL
MODEL 7
REMARK VINA RESULT:      -5.6      2.807      7.390
REMARK  Name = 28959646
REMARK  11 active torsions:
REMARK  status: ('A' for Active; 'I' for Inactive)
REMARK    1  A    between atoms: O_2  and  C_23
REMARK    2  A    between atoms: O_5  and  C_30
REMARK    3  A    between atoms: O_5  and  C_31
REMARK    4  A    between atoms: N_6  and  C_14
REMARK    5  A    between atoms: C_9  and  C_11
REMARK    6  A    between atoms: C_10  and  C_16
REMARK    7  A    between atoms: C_11  and  C_14
REMARK    8  A    between atoms: C_16  and  C_23
REMARK    9  A    between atoms: C_17  and  C_22
REMARK   10  A    between atoms: C_21  and  C_24
REMARK   11  A    between atoms: C_24  and  C_25
REMARK                            x       y       z     vdW  Elec       q    Type
REMARK                         _______ _______ _______ _____ _____    ______ ____
ROOT
ATOM      1  O   UNL     1      -2.739 -13.422  14.495  0.00  0.00    -0.275 OA
ATOM      7  N   UNL     1      -2.675 -12.279  12.473  0.00  0.00    -0.301 N 
ATOM      9  C   UNL     1      -3.719 -10.818  10.756  0.00  0.00    +0.011 C 
ATOM     10  C   UNL     1      -3.945 -12.075   9.877  0.00  0.00    +0.006 C 
ATOM     12  C   UNL     1      -2.519 -11.045  11.693  0.00  0.00    +0.111 C 
ATOM     13  C   UNL     1      -4.052 -13.350  10.731  0.00  0.00    +0.023 C 
ATOM     15  C   UNL     1      -2.858 -13.489  11.672  0.00  0.00    +0.108 C 
ATOM     21  C   UNL     1      -2.632 -12.368  13.864  0.00  0.00    +0.220 C 
ENDROOT
BRANCH   9  11
ATOM     11  C   UNL     1      -4.952 -10.391  11.563  0.00  0.00    +0.021 C 
BRANCH  11  14
ATOM     14  C   UNL     1      -5.447  -9.023  11.116  0.00  0.00    +0.085 C 
BRANCH  14   6
ATOM      6  N   UNL     1      -6.896  -8.953  11.251  0.00  0.00    -0.291 NA
ATOM     17  C   UNL     1      -7.608  -9.416  10.055  0.00  0.00    +0.143 C 
ATOM     18  C   UNL     1      -7.386  -9.762  12.367  0.00  0.00    +0.085 C 
ATOM     19  C   UNL     1      -8.922 -10.011  10.563  0.00  0.00    +0.029 C 
ATOM     20  C   UNL     1      -8.872  -9.833  12.073  0.00  0.00    +0.017 C 
BRANCH  17  22
ATOM      3  O   UNL     1      -8.887  -7.562   9.265  0.00  0.00    -0.274 OA
ATOM      8  N   UNL     1      -6.821  -7.940   8.328  0.00  0.00    -0.328 N 
ATOM     22  C   UNL     1      -7.850  -8.217   9.196  0.00  0.00    +0.228 C 
ATOM     32  H   UNL     1      -5.979  -8.506   8.283  0.00  0.00    +0.145 HD
ATOM     33  H   UNL     1      -6.874  -7.152   7.691  0.00  0.00    +0.145 HD
ENDBRANCH  17  22
ENDBRANCH  14   6
ENDBRANCH  11  14
ENDBRANCH   9  11
BRANCH  10  16
ATOM     16  C   UNL     1      -5.150 -11.947   8.946  0.00  0.00    +0.124 C 
BRANCH  16  23
ATOM      4  O   UNL     1      -5.033  -9.982   7.507  0.00  0.00    -0.251 OA
ATOM     23  C   UNL     1      -4.811 -11.167   7.704  0.00  0.00    +0.305 C 
BRANCH  23   2
ATOM      2  O   UNL     1      -4.207 -11.983   6.804  0.00  0.00    -0.481 OA
ATOM     34  H   UNL     1      -4.751 -12.102   5.995  0.00  0.00    +0.295 HD
ENDBRANCH  23   2
ENDBRANCH  16  23
ENDBRANCH  10  16
BRANCH  21  24
ATOM     24  C   UNL     1      -2.443 -11.075  14.617  0.00  0.00    +0.131 C 
BRANCH  24  25
ATOM     25  C   UNL     1      -3.573 -10.852  15.574  0.00  0.00    -0.038 A 
ATOM     26  C   UNL     1      -3.416 -11.163  16.924  0.00  0.00    +0.007 A 
ATOM     27  C   UNL     1      -4.783 -10.331  15.113  0.00  0.00    +0.007 A 
ATOM     28  C   UNL     1      -4.470 -10.954  17.814  0.00  0.00    +0.046 A 
ATOM     29  C   UNL     1      -5.837 -10.123  16.003  0.00  0.00    +0.046 A 
ATOM     30  C   UNL     1      -5.680 -10.434  17.354  0.00  0.00    +0.120 A 
BRANCH  30   5
ATOM      5  O   UNL     1      -6.707 -10.230  18.223  0.00  0.00    -0.495 OA
ATOM     31  C   UNL     1      -6.443 -10.456  19.607  0.00  0.00    +0.277 C 
ENDBRANCH  30   5
ENDBRANCH  24  25
ENDBRANCH  21  24
TORSDOF 10
ENDMDL
MODEL 8
REMARK VINA RESULT:      -5.5     23.768     26.928
REMARK  Name = 28959646
REMARK  11 active torsions:
REMARK  status: ('A' for Active; 'I' for Inactive)
REMARK    1  A    between atoms: O_2  and  C_23
REMARK    2  A    between atoms: O_5  and  C_30
REMARK    3  A    between atoms: O_5  and  C_31
REMARK    4  A    between atoms: N_6  and  C_14
REMARK    5  A    between atoms: C_9  and  C_11
REMARK    6  A    between atoms: C_10  and  C_16
REMARK    7  A    between atoms: C_11  and  C_14
REMARK    8  A    between atoms: C_16  and  C_23
REMARK    9  A    between atoms: C_17  and  C_22
REMARK   10  A    between atoms: C_21  and  C_24
REMARK   11  A    between atoms: C_24  and  C_25
REMARK                            x       y       z     vdW  Elec       q    Type
REMARK                         _______ _______ _______ _____ _____    ______ ____
ROOT
ATOM      1  O   UNL     1      11.329  10.473   5.436  0.00  0.00    -0.275 OA
ATOM      7  N   UNL     1      11.551   8.418   6.499  0.00  0.00    -0.301 N 
ATOM      9  C   UNL     1      10.876   6.052   6.841  0.00  0.00    +0.011 C 
ATOM     10  C   UNL     1      10.149   6.487   8.140  0.00  0.00    +0.006 C 
ATOM     12  C   UNL     1      12.026   7.029   6.535  0.00  0.00    +0.111 C 
ATOM     13  C   UNL     1       9.715   7.961   8.079  0.00  0.00    +0.023 C 
ATOM     15  C   UNL     1      10.889   8.870   7.722  0.00  0.00    +0.108 C 
ATOM     21  C   UNL     1      11.713   9.301   5.431  0.00  0.00    +0.220 C 
ENDROOT
BRANCH   9  11
ATOM     11  C   UNL     1       9.952   5.918   5.624  0.00  0.00    +0.021 C 
BRANCH  11  14
ATOM     14  C   UNL     1      10.475   4.864   4.659  0.00  0.00    +0.085 C 
BRANCH  14   6
ATOM      6  N   UNL     1      10.730   5.469   3.358  0.00  0.00    -0.291 NA
ATOM     17  C   UNL     1      10.783   4.489   2.268  0.00  0.00    +0.143 C 
ATOM     18  C   UNL     1       9.703   6.443   2.990  0.00  0.00    +0.085 C 
ATOM     19  C   UNL     1      10.278   5.224   1.027  0.00  0.00    +0.029 C 
ATOM     20  C   UNL     1       9.966   6.633   1.509  0.00  0.00    +0.017 C 
BRANCH  17  22
ATOM      3  O   UNL     1      12.538   2.932   1.824  0.00  0.00    -0.274 OA
ATOM      8  N   UNL     1      13.108   5.099   2.344  0.00  0.00    -0.328 N 
ATOM     22  C   UNL     1      12.214   4.081   2.115  0.00  0.00    +0.228 C 
ATOM     32  H   UNL     1      12.813   6.038   2.595  0.00  0.00    +0.145 HD
ATOM     33  H   UNL     1      14.108   4.940   2.274  0.00  0.00    +0.145 HD
ENDBRANCH  17  22
ENDBRANCH  14   6
ENDBRANCH  11  14
ENDBRANCH   9  11
BRANCH  10  16
ATOM     16  C   UNL     1       8.962   5.590   8.491  0.00  0.00    +0.124 C 
BRANCH  16  23
ATOM      4  O   UNL     1      10.155   4.040   9.947  0.00  0.00    -0.251 OA
ATOM     23  C   UNL     1       9.218   4.797   9.745  0.00  0.00    +0.305 C 
BRANCH  23   2
ATOM      2  O   UNL     1       8.237   5.044  10.650  0.00  0.00    -0.481 OA
ATOM     34  H   UNL     1       7.358   4.756  10.323  0.00  0.00    +0.295 HD
ENDBRANCH  23   2
ENDBRANCH  16  23
ENDBRANCH  10  16
BRANCH  21  24
ATOM     24  C   UNL     1      12.404   8.758   4.206  0.00  0.00    +0.131 C 
BRANCH  24  25
ATOM     25  C   UNL     1      13.889   8.755   4.395  0.00  0.00    -0.038 A 
ATOM     26  C   UNL     1      14.539   9.905   4.839  0.00  0.00    +0.007 A 
ATOM     27  C   UNL     1      14.623   7.598   4.128  0.00  0.00    +0.007 A 
ATOM     28  C   UNL     1      15.922   9.901   5.016  0.00  0.00    +0.046 A 
ATOM     29  C   UNL     1      16.006   7.593   4.304  0.00  0.00    +0.046 A 
ATOM     30  C   UNL     1      16.656   8.745   4.748  0.00  0.00    +0.120 A 
BRANCH  30   5
ATOM      5  O   UNL     1      18.006   8.740   4.921  0.00  0.00    -0.495 OA
ATOM     31  C   UNL     1      18.490   8.862   6.258  0.00  0.00    +0.277 C 
ENDBRANCH  30   5
ENDBRANCH  24  25
ENDBRANCH  21  24
TORSDOF 10
ENDMDL
MODEL 9
REMARK VINA RESULT:      -5.5      2.415      5.260
REMARK  Name = 28959646
REMARK  11 active torsions:
REMARK  status: ('A' for Active; 'I' for Inactive)
REMARK    1  A    between atoms: O_2  and  C_23
REMARK    2  A    between atoms: O_5  and  C_30
REMARK    3  A    between atoms: O_5  and  C_31
REMARK    4  A    between atoms: N_6  and  C_14
REMARK    5  A    between atoms: C_9  and  C_11
REMARK    6  A    between atoms: C_10  and  C_16
REMARK    7  A    between atoms: C_11  and  C_14
REMARK    8  A    between atoms: C_16  and  C_23
REMARK    9  A    between atoms: C_17  and  C_22
REMARK   10  A    between atoms: C_21  and  C_24
REMARK   11  A    between atoms: C_24  and  C_25
REMARK                            x       y       z     vdW  Elec       q    Type
REMARK                         _______ _______ _______ _____ _____    ______ ____
ROOT
ATOM      1  O   UNL     1      -5.555 -10.478   8.706  0.00  0.00    -0.275 OA
ATOM      7  N   UNL     1      -6.360  -9.527  10.668  0.00  0.00    -0.301 N 
ATOM      9  C   UNL     1      -6.740  -9.576  13.122  0.00  0.00    +0.011 C 
ATOM     10  C   UNL     1      -8.225  -9.924  12.848  0.00  0.00    +0.006 C 
ATOM     12  C   UNL     1      -6.155  -8.801  11.927  0.00  0.00    +0.111 C 
ATOM     13  C   UNL     1      -8.398 -10.638  11.496  0.00  0.00    +0.023 C 
ATOM     15  C   UNL     1      -7.754  -9.843  10.363  0.00  0.00    +0.108 C 
ATOM     21  C   UNL     1      -5.354  -9.891   9.772  0.00  0.00    +0.220 C 
ENDROOT
BRANCH   9  11
ATOM     11  C   UNL     1      -5.864 -10.792  13.448  0.00  0.00    +0.021 C 
BRANCH  11  14
ATOM     14  C   UNL     1      -4.808 -10.439  14.485  0.00  0.00    +0.085 C 
BRANCH  14   6
ATOM      6  N   UNL     1      -5.260 -10.846  15.809  0.00  0.00    -0.291 NA
ATOM     17  C   UNL     1      -4.358 -11.805  16.456  0.00  0.00    +0.143 C 
ATOM     18  C   UNL     1      -5.386  -9.711  16.724  0.00  0.00    +0.085 C 
ATOM     19  C   UNL     1      -4.478 -11.535  17.956  0.00  0.00    +0.029 C 
ATOM     20  C   UNL     1      -5.487 -10.403  18.069  0.00  0.00    +0.017 C 
BRANCH  17  22
ATOM      3  O   UNL     1      -6.013 -13.517  16.292  0.00  0.00    -0.274 OA
ATOM      8  N   UNL     1      -3.876 -13.995  15.589  0.00  0.00    -0.328 N 
ATOM     22  C   UNL     1      -4.848 -13.174  16.108  0.00  0.00    +0.228 C 
ATOM     32  H   UNL     1      -2.917 -13.689  15.458  0.00  0.00    +0.145 HD
ATOM     33  H   UNL     1      -4.089 -14.950  15.319  0.00  0.00    +0.145 HD
ENDBRANCH  17  22
ENDBRANCH  14   6
ENDBRANCH  11  14
ENDBRANCH   9  11
BRANCH  10  16
ATOM     16  C   UNL     1      -8.869 -10.735  13.972  0.00  0.00    +0.124 C 
BRANCH  16  23
ATOM      4  O   UNL     1      -9.326  -8.784  15.361  0.00  0.00    -0.251 OA
ATOM     23  C   UNL     1      -8.955  -9.942  15.248  0.00  0.00    +0.305 C 
BRANCH  23   2
ATOM      2  O   UNL     1      -8.551 -10.711  16.292  0.00  0.00    -0.481 OA
ATOM     34  H   UNL     1      -9.052 -11.554  16.339  0.00  0.00    +0.295 HD
ENDBRANCH  23   2
ENDBRANCH  16  23
ENDBRANCH  10  16
BRANCH  21  24
ATOM     24  C   UNL     1      -3.942  -9.532  10.160  0.00  0.00    +0.131 C 
BRANCH  24  25
ATOM     25  C   UNL     1      -3.337 -10.610  11.005  0.00  0.00    -0.038 A 
ATOM     26  C   UNL     1      -2.372 -10.290  11.959  0.00  0.00    +0.007 A 
ATOM     27  C   UNL     1      -3.741 -11.935  10.839  0.00  0.00    +0.007 A 
ATOM     28  C   UNL     1      -1.809 -11.295  12.746  0.00  0.00    +0.046 A 
ATOM     29  C   UNL     1      -3.178 -12.940  11.625  0.00  0.00    +0.046 A 
ATOM     30  C   UNL     1      -2.212 -12.620  12.579  0.00  0.00    +0.120 A 
BRANCH  30   5
ATOM      5  O   UNL     1      -1.664 -13.600  13.348  0.00  0.00    -0.495 OA
ATOM     31  C   UNL     1      -1.773 -14.939  12.867  0.00  0.00    +0.277 C 
ENDBRANCH  30   5
ENDBRANCH  24  25
ENDBRANCH  21  24
TORSDOF 10
ENDMDL
MODEL 10
REMARK VINA RESULT:      -5.4      1.367      2.220
REMARK  Name = 28959646
REMARK  11 active torsions:
REMARK  status: ('A' for Active; 'I' for Inactive)
REMARK    1  A    between atoms: O_2  and  C_23
REMARK    2  A    between atoms: O_5  and  C_30
REMARK    3  A    between atoms: O_5  and  C_31
REMARK    4  A    between atoms: N_6  and  C_14
REMARK    5  A    between atoms: C_9  and  C_11
REMARK    6  A    between atoms: C_10  and  C_16
REMARK    7  A    between atoms: C_11  and  C_14
REMARK    8  A    between atoms: C_16  and  C_23
REMARK    9  A    between atoms: C_17  and  C_22
REMARK   10  A    between atoms: C_21  and  C_24
REMARK   11  A    between atoms: C_24  and  C_25
REMARK                            x       y       z     vdW  Elec       q    Type
REMARK                         _______ _______ _______ _____ _____    ______ ____
ROOT
ATOM      1  O   UNL     1      -1.477 -10.001  12.372  0.00  0.00    -0.275 OA
ATOM      7  N   UNL     1      -2.358 -11.448  13.964  0.00  0.00    -0.301 N 
ATOM      9  C   UNL     1      -4.193 -12.184  15.468  0.00  0.00    +0.011 C 
ATOM     10  C   UNL     1      -3.409 -11.576  16.660  0.00  0.00    +0.006 C 
ATOM     12  C   UNL     1      -3.215 -12.577  14.346  0.00  0.00    +0.111 C 
ATOM     13  C   UNL     1      -2.487 -10.431  16.205  0.00  0.00    +0.023 C 
ATOM     15  C   UNL     1      -1.580 -10.872  15.059  0.00  0.00    +0.108 C 
ATOM     21  C   UNL     1      -2.225 -10.935  12.673  0.00  0.00    +0.220 C 
ENDROOT
BRANCH   9  11
ATOM     11  C   UNL     1      -5.296 -11.272  14.918  0.00  0.00    +0.021 C 
BRANCH  11  14
ATOM     14  C   UNL     1      -6.674 -11.802  15.289  0.00  0.00    +0.085 C 
BRANCH  14   6
ATOM      6  N   UNL     1      -6.737 -13.235  15.033  0.00  0.00    -0.291 NA
ATOM     17  C   UNL     1      -7.892 -13.882  15.665  0.00  0.00    +0.143 C 
ATOM     18  C   UNL     1      -6.820 -13.539  13.605  0.00  0.00    +0.085 C 
ATOM     19  C   UNL     1      -8.262 -15.049  14.750  0.00  0.00    +0.029 C 
ATOM     20  C   UNL     1      -7.247 -14.994  13.618  0.00  0.00    +0.017 C 
BRANCH  17  22
ATOM      3  O   UNL     1      -8.104 -14.162  18.026  0.00  0.00    -0.274 OA
ATOM      8  N   UNL     1      -6.241 -15.023  16.989  0.00  0.00    -0.328 N 
ATOM     22  C   UNL     1      -7.446 -14.363  17.009  0.00  0.00    +0.228 C 
ATOM     32  H   UNL     1      -5.711 -15.165  16.134  0.00  0.00    +0.145 HD
ATOM     33  H   UNL     1      -5.834 -15.391  17.842  0.00  0.00    +0.145 HD
ENDBRANCH  17  22
ENDBRANCH  14   6
ENDBRANCH  11  14
ENDBRANCH   9  11
BRANCH  10  16
ATOM     16  C   UNL     1      -4.315 -11.117  17.802  0.00  0.00    +0.124 C 
BRANCH  16  23
ATOM      4  O   UNL     1      -3.382 -12.154  19.801  0.00  0.00    -0.251 OA
ATOM     23  C   UNL     1      -4.268 -12.071  18.965  0.00  0.00    +0.305 C 
BRANCH  23   2
ATOM      2  O   UNL     1      -5.377 -12.853  18.959  0.00  0.00    -0.481 OA
ATOM     34  H   UNL     1      -6.161 -12.379  19.312  0.00  0.00    +0.295 HD
ENDBRANCH  23   2
ENDBRANCH  16  23
ENDBRANCH  10  16
BRANCH  21  24
ATOM     24  C   UNL     1      -3.063 -11.582  11.600  0.00  0.00    +0.131 C 
BRANCH  24  25
ATOM     25  C   UNL     1      -3.973 -10.577  10.964  0.00  0.00    -0.038 A 
ATOM     26  C   UNL     1      -4.817  -9.800  11.756  0.00  0.00    +0.007 A 
ATOM     27  C   UNL     1      -3.975 -10.418   9.577  0.00  0.00    +0.007 A 
ATOM     28  C   UNL     1      -5.664  -8.864  11.162  0.00  0.00    +0.046 A 
ATOM     29  C   UNL     1      -4.822  -9.483   8.983  0.00  0.00    +0.046 A 
ATOM     30  C   UNL     1      -5.667  -8.706   9.776  0.00  0.00    +0.120 A 
BRANCH  30   5
ATOM      5  O   UNL     1      -6.493  -7.792   9.197  0.00  0.00    -0.495 OA
ATOM     31  C   UNL     1      -7.384  -8.269   8.189  0.00  0.00    +0.277 C 
ENDBRANCH  30   5
ENDBRANCH  24  25
ENDBRANCH  21  24
TORSDOF 10
ENDMDL
