MODEL 1
REMARK VINA RESULT:      -7.2      0.000      0.000
REMARK  Name = 51137021
REMARK  4 active torsions:
REMARK  status: ('A' for Active; 'I' for Inactive)
REMARK    1  A    between atoms: O_3  and  C_18
REMARK    2  A    between atoms: O_3  and  C_26
REMARK    3  A    between atoms: N_7  and  C_20
REMARK    4  A    between atoms: C_8  and  C_12
REMARK                            x       y       z     vdW  Elec       q    Type
REMARK                         _______ _______ _______ _____ _____    ______ ____
ROOT
ATOM      2  O   UNL     1      15.449   5.903  21.200  0.00  0.00    -0.252 OA
ATOM      4  N   UNL     1      14.663   7.560  19.819  0.00  0.00    -0.285 N 
ATOM      7  N   UNL     1      16.965   7.355  20.183  0.00  0.00    -0.269 N 
ATOM      8  C   UNL     1      12.464   8.388  19.450  0.00  0.00    +0.074 C 
ATOM      9  C   UNL     1      13.398   8.916  18.351  0.00  0.00    +0.032 C 
ATOM     10  C   UNL     1      13.261   7.199  19.999  0.00  0.00    +0.120 C 
ATOM     11  C   UNL     1      14.795   8.705  18.921  0.00  0.00    +0.110 C 
ATOM     13  C   UNL     1      15.691   6.859  20.461  0.00  0.00    +0.306 C 
ATOM     28  H   UNL     1      17.035   8.168  19.577  0.00  0.00    +0.156 HD
ENDROOT
BRANCH   8  12
ATOM      5  N   UNL     1      11.706   9.178  21.717  0.00  0.00    -0.341 N 
ATOM      6  N   UNL     1      12.102  10.775  20.222  0.00  0.00    -0.232 NA
ATOM     12  C   UNL     1      12.096   9.479  20.441  0.00  0.00    +0.113 A 
ATOM     14  C   UNL     1      11.443  10.358  22.364  0.00  0.00    +0.070 A 
ATOM     15  C   UNL     1      11.697  11.339  21.409  0.00  0.00    +0.089 A 
ATOM     16  C   UNL     1      11.017  10.642  23.661  0.00  0.00    +0.073 A 
ATOM     17  C   UNL     1      11.521  12.690  21.753  0.00  0.00    +0.033 A 
ATOM     18  C   UNL     1      10.847  11.992  23.986  0.00  0.00    +0.122 A 
ATOM     19  C   UNL     1      11.094  13.000  23.051  0.00  0.00    +0.048 A 
ATOM     27  H   UNL     1      11.625   8.252  22.114  0.00  0.00    +0.167 HD
BRANCH  18   3
ATOM      3  O   UNL     1      10.433  12.329  25.241  0.00  0.00    -0.495 OA
ATOM     26  C   UNL     1      10.501  13.708  25.597  0.00  0.00    +0.277 C 
ENDBRANCH  18   3
ENDBRANCH   8  12
BRANCH   7  20
ATOM      1  F   UNL     1      21.833   5.489  22.072  0.00  0.00    -0.205 F 
ATOM     20  C   UNL     1      18.209   6.879  20.665  0.00  0.00    +0.035 A 
ATOM     21  C   UNL     1      18.822   7.505  21.750  0.00  0.00    +0.026 A 
ATOM     22  C   UNL     1      18.820   5.784  20.055  0.00  0.00    +0.026 A 
ATOM     23  C   UNL     1      20.046   7.035  22.225  0.00  0.00    +0.040 A 
ATOM     24  C   UNL     1      20.045   5.314  20.531  0.00  0.00    +0.040 A 
ATOM     25  C   UNL     1      20.658   5.940  21.616  0.00  0.00    +0.124 A 
ENDBRANCH   7  20
TORSDOF 3
ENDMDL
MODEL 2
REMARK VINA RESULT:      -6.9     27.797     29.487
REMARK  Name = 51137021
REMARK  4 active torsions:
REMARK  status: ('A' for Active; 'I' for Inactive)
REMARK    1  A    between atoms: O_3  and  C_18
REMARK    2  A    between atoms: O_3  and  C_26
REMARK    3  A    between atoms: N_7  and  C_20
REMARK    4  A    between atoms: C_8  and  C_12
REMARK                            x       y       z     vdW  Elec       q    Type
REMARK                         _______ _______ _______ _____ _____    ______ ____
ROOT
ATOM      2  O   UNL     1      -3.111  -9.187  10.079  0.00  0.00    -0.252 OA
ATOM      4  N   UNL     1      -2.846 -11.042  11.406  0.00  0.00    -0.285 N 
ATOM      7  N   UNL     1      -4.188 -11.172   9.494  0.00  0.00    -0.269 N 
ATOM      8  C   UNL     1      -1.925 -11.299  13.584  0.00  0.00    +0.074 C 
ATOM      9  C   UNL     1      -2.091 -12.681  12.934  0.00  0.00    +0.032 C 
ATOM     10  C   UNL     1      -1.979 -10.368  12.366  0.00  0.00    +0.120 C 
ATOM     11  C   UNL     1      -3.062 -12.435  11.786  0.00  0.00    +0.110 C 
ATOM     13  C   UNL     1      -3.369 -10.373  10.292  0.00  0.00    +0.306 C 
ATOM     28  H   UNL     1      -4.348 -12.130   9.789  0.00  0.00    +0.156 HD
ENDROOT
BRANCH   8  12
ATOM      5  N   UNL     1      -4.094 -10.336  14.423  0.00  0.00    -0.341 N 
ATOM      6  N   UNL     1      -2.918 -11.499  15.907  0.00  0.00    -0.232 NA
ATOM     12  C   UNL     1      -2.963 -11.064  14.668  0.00  0.00    +0.113 A 
ATOM     14  C   UNL     1      -4.827 -10.299  15.581  0.00  0.00    +0.070 A 
ATOM     15  C   UNL     1      -4.071 -11.032  16.492  0.00  0.00    +0.089 A 
ATOM     16  C   UNL     1      -6.048  -9.705  15.900  0.00  0.00    +0.073 A 
ATOM     17  C   UNL     1      -4.548 -11.193  17.804  0.00  0.00    +0.033 A 
ATOM     18  C   UNL     1      -6.507  -9.875  17.211  0.00  0.00    +0.122 A 
ATOM     19  C   UNL     1      -5.772 -10.605  18.147  0.00  0.00    +0.048 A 
ATOM     27  H   UNL     1      -4.346  -9.901  13.546  0.00  0.00    +0.167 HD
BRANCH  18   3
ATOM      3  O   UNL     1      -7.696  -9.316  17.578  0.00  0.00    -0.495 OA
ATOM     26  C   UNL     1      -8.654  -9.095  16.546  0.00  0.00    +0.277 C 
ENDBRANCH  18   3
ENDBRANCH   8  12
BRANCH   7  20
ATOM      1  F   UNL     1      -6.844  -9.743   4.840  0.00  0.00    -0.205 F 
ATOM     20  C   UNL     1      -4.868 -10.807   8.306  0.00  0.00    +0.035 A 
ATOM     21  C   UNL     1      -5.835  -9.804   8.335  0.00  0.00    +0.026 A 
ATOM     22  C   UNL     1      -4.567 -11.452   7.106  0.00  0.00    +0.026 A 
ATOM     23  C   UNL     1      -6.504  -9.445   7.164  0.00  0.00    +0.040 A 
ATOM     24  C   UNL     1      -5.235 -11.092   5.934  0.00  0.00    +0.040 A 
ATOM     25  C   UNL     1      -6.204 -10.088   5.964  0.00  0.00    +0.124 A 
ENDBRANCH   7  20
TORSDOF 3
ENDMDL
MODEL 3
REMARK VINA RESULT:      -6.9     27.549     30.328
REMARK  Name = 51137021
REMARK  4 active torsions:
REMARK  status: ('A' for Active; 'I' for Inactive)
REMARK    1  A    between atoms: O_3  and  C_18
REMARK    2  A    between atoms: O_3  and  C_26
REMARK    3  A    between atoms: N_7  and  C_20
REMARK    4  A    between atoms: C_8  and  C_12
REMARK                            x       y       z     vdW  Elec       q    Type
REMARK                         _______ _______ _______ _____ _____    ______ ____
ROOT
ATOM      2  O   UNL     1      -9.696 -10.848  15.933  0.00  0.00    -0.252 OA
ATOM      4  N   UNL     1      -8.014 -10.659  17.483  0.00  0.00    -0.285 N 
ATOM      7  N   UNL     1      -9.501  -8.880  17.170  0.00  0.00    -0.269 N 
ATOM      8  C   UNL     1      -6.086 -11.994  17.883  0.00  0.00    +0.074 C 
ATOM      9  C   UNL     1      -6.300 -11.040  19.067  0.00  0.00    +0.032 C 
ATOM     10  C   UNL     1      -7.467 -11.985  17.216  0.00  0.00    +0.120 C 
ATOM     11  C   UNL     1      -7.244  -9.976  18.520  0.00  0.00    +0.110 C 
ATOM     13  C   UNL     1      -9.129 -10.171  16.792  0.00  0.00    +0.306 C 
ATOM     28  H   UNL     1      -8.937  -8.412  17.874  0.00  0.00    +0.156 HD
ENDROOT
BRANCH   8  12
ATOM      5  N   UNL     1      -5.039 -11.404  15.671  0.00  0.00    -0.341 N 
ATOM      6  N   UNL     1      -3.691 -11.298  17.435  0.00  0.00    -0.232 NA
ATOM     12  C   UNL     1      -4.910 -11.562  17.023  0.00  0.00    +0.113 A 
ATOM     14  C   UNL     1      -3.820 -11.013  15.178  0.00  0.00    +0.070 A 
ATOM     15  C   UNL     1      -2.997 -10.954  16.299  0.00  0.00    +0.089 A 
ATOM     16  C   UNL     1      -3.382 -10.715  13.888  0.00  0.00    +0.073 A 
ATOM     17  C   UNL     1      -1.652 -10.577  16.141  0.00  0.00    +0.033 A 
ATOM     18  C   UNL     1      -2.041 -10.342  13.749  0.00  0.00    +0.122 A 
ATOM     19  C   UNL     1      -1.190 -10.274  14.854  0.00  0.00    +0.048 A 
ATOM     27  H   UNL     1      -5.880 -11.551  15.130  0.00  0.00    +0.167 HD
BRANCH  18   3
ATOM      3  O   UNL     1      -1.558 -10.039  12.510  0.00  0.00    -0.495 OA
ATOM     26  C   UNL     1      -2.412 -10.305  11.400  0.00  0.00    +0.277 C 
ENDBRANCH  18   3
ENDBRANCH   8  12
BRANCH   7  20
ATOM      1  F   UNL     1     -13.703  -5.834  15.219  0.00  0.00    -0.205 F 
ATOM     20  C   UNL     1     -10.575  -8.103  16.671  0.00  0.00    +0.035 A 
ATOM     21  C   UNL     1     -11.890  -8.515  16.879  0.00  0.00    +0.026 A 
ATOM     22  C   UNL     1     -10.315  -6.923  15.972  0.00  0.00    +0.026 A 
ATOM     23  C   UNL     1     -12.947  -7.749  16.387  0.00  0.00    +0.040 A 
ATOM     24  C   UNL     1     -11.372  -6.157  15.481  0.00  0.00    +0.040 A 
ATOM     25  C   UNL     1     -12.689  -6.570  15.689  0.00  0.00    +0.124 A 
ENDBRANCH   7  20
TORSDOF 3
ENDMDL
MODEL 4
REMARK VINA RESULT:      -6.7     27.882     30.150
REMARK  Name = 51137021
REMARK  4 active torsions:
REMARK  status: ('A' for Active; 'I' for Inactive)
REMARK    1  A    between atoms: O_3  and  C_18
REMARK    2  A    between atoms: O_3  and  C_26
REMARK    3  A    between atoms: N_7  and  C_20
REMARK    4  A    between atoms: C_8  and  C_12
REMARK                            x       y       z     vdW  Elec       q    Type
REMARK                         _______ _______ _______ _____ _____    ______ ____
ROOT
ATOM      2  O   UNL     1      -7.287 -12.572  16.711  0.00  0.00    -0.252 OA
ATOM      4  N   UNL     1      -5.309 -11.414  16.575  0.00  0.00    -0.285 N 
ATOM      7  N   UNL     1      -7.130 -10.462  17.695  0.00  0.00    -0.269 N 
ATOM      8  C   UNL     1      -3.360 -11.778  15.261  0.00  0.00    +0.074 C 
ATOM      9  C   UNL     1      -3.051 -10.748  16.357  0.00  0.00    +0.032 C 
ATOM     10  C   UNL     1      -4.627 -12.449  15.806  0.00  0.00    +0.120 C 
ATOM     11  C   UNL     1      -4.424 -10.278  16.822  0.00  0.00    +0.110 C 
ATOM     13  C   UNL     1      -6.641 -11.558  16.983  0.00  0.00    +0.306 C 
ATOM     28  H   UNL     1      -6.508  -9.672  17.833  0.00  0.00    +0.156 HD
ENDROOT
BRANCH   8  12
ATOM      5  N   UNL     1      -4.685 -10.883  13.317  0.00  0.00    -0.341 N 
ATOM      6  N   UNL     1      -2.475 -10.728  13.131  0.00  0.00    -0.232 NA
ATOM     12  C   UNL     1      -3.469 -11.124  13.895  0.00  0.00    +0.113 A 
ATOM     14  C   UNL     1      -4.460 -10.292  12.100  0.00  0.00    +0.070 A 
ATOM     15  C   UNL     1      -3.074 -10.207  12.008  0.00  0.00    +0.089 A 
ATOM     16  C   UNL     1      -5.324  -9.840  11.103  0.00  0.00    +0.073 A 
ATOM     17  C   UNL     1      -2.498  -9.638  10.860  0.00  0.00    +0.033 A 
ATOM     18  C   UNL     1      -4.734  -9.276   9.967  0.00  0.00    +0.122 A 
ATOM     19  C   UNL     1      -3.346  -9.177   9.845  0.00  0.00    +0.048 A 
ATOM     27  H   UNL     1      -5.588 -11.102  13.714  0.00  0.00    +0.167 HD
BRANCH  18   3
ATOM      3  O   UNL     1      -5.531  -8.816   8.960  0.00  0.00    -0.495 OA
ATOM     26  C   UNL     1      -5.723  -9.679   7.841  0.00  0.00    +0.277 C 
ENDBRANCH  18   3
ENDBRANCH   8  12
BRANCH   7  20
ATOM      1  F   UNL     1     -12.195  -9.781  19.846  0.00  0.00    -0.205 F 
ATOM     20  C   UNL     1      -8.424 -10.289  18.245  0.00  0.00    +0.035 A 
ATOM     21  C   UNL     1      -8.783 -10.964  19.411  0.00  0.00    +0.026 A 
ATOM     22  C   UNL     1      -9.340  -9.443  17.618  0.00  0.00    +0.026 A 
ATOM     23  C   UNL     1     -10.057 -10.793  19.952  0.00  0.00    +0.040 A 
ATOM     24  C   UNL     1     -10.614  -9.271  18.160  0.00  0.00    +0.040 A 
ATOM     25  C   UNL     1     -10.972  -9.947  19.327  0.00  0.00    +0.124 A 
ENDBRANCH   7  20
TORSDOF 3
ENDMDL
MODEL 5
REMARK VINA RESULT:      -6.6      4.150      6.786
REMARK  Name = 51137021
REMARK  4 active torsions:
REMARK  status: ('A' for Active; 'I' for Inactive)
REMARK    1  A    between atoms: O_3  and  C_18
REMARK    2  A    between atoms: O_3  and  C_26
REMARK    3  A    between atoms: N_7  and  C_20
REMARK    4  A    between atoms: C_8  and  C_12
REMARK                            x       y       z     vdW  Elec       q    Type
REMARK                         _______ _______ _______ _____ _____    ______ ____
ROOT
ATOM      2  O   UNL     1      22.428   5.492  20.159  0.00  0.00    -0.252 OA
ATOM      4  N   UNL     1      21.260   6.626  21.778  0.00  0.00    -0.285 N 
ATOM      7  N   UNL     1      22.246   4.567  22.293  0.00  0.00    -0.269 N 
ATOM      8  C   UNL     1      19.804   8.502  21.643  0.00  0.00    +0.074 C 
ATOM      9  C   UNL     1      20.175   8.249  23.111  0.00  0.00    +0.032 C 
ATOM     10  C   UNL     1      20.908   7.738  20.901  0.00  0.00    +0.120 C 
ATOM     11  C   UNL     1      20.712   6.823  23.117  0.00  0.00    +0.110 C 
ATOM     13  C   UNL     1      22.021   5.542  21.321  0.00  0.00    +0.306 C 
ATOM     28  H   UNL     1      21.835   4.710  23.211  0.00  0.00    +0.156 HD
ENDROOT
BRANCH   8  12
ATOM      5  N   UNL     1      17.320   8.639  22.025  0.00  0.00    -0.341 N 
ATOM      6  N   UNL     1      17.977   7.199  20.465  0.00  0.00    -0.232 NA
ATOM     12  C   UNL     1      18.372   8.087  21.349  0.00  0.00    +0.113 A 
ATOM     14  C   UNL     1      16.169   8.069  21.544  0.00  0.00    +0.070 A 
ATOM     15  C   UNL     1      16.606   7.174  20.572  0.00  0.00    +0.089 A 
ATOM     16  C   UNL     1      14.825   8.254  21.867  0.00  0.00    +0.073 A 
ATOM     17  C   UNL     1      15.660   6.410  19.869  0.00  0.00    +0.033 A 
ATOM     18  C   UNL     1      13.895   7.485  21.158  0.00  0.00    +0.122 A 
ATOM     19  C   UNL     1      14.303   6.579  20.177  0.00  0.00    +0.048 A 
ATOM     27  H   UNL     1      17.378   9.341  22.751  0.00  0.00    +0.167 HD
BRANCH  18   3
ATOM      3  O   UNL     1      12.567   7.625  21.432  0.00  0.00    -0.495 OA
ATOM     26  C   UNL     1      11.737   6.486  21.213  0.00  0.00    +0.277 C 
ENDBRANCH  18   3
ENDBRANCH   8  12
BRANCH   7  20
ATOM      1  F   UNL     1      25.087  -0.167  21.777  0.00  0.00    -0.205 F 
ATOM     20  C   UNL     1      22.971   3.358  22.161  0.00  0.00    +0.035 A 
ATOM     21  C   UNL     1      23.330   2.894  20.896  0.00  0.00    +0.026 A 
ATOM     22  C   UNL     1      23.327   2.631  23.297  0.00  0.00    +0.026 A 
ATOM     23  C   UNL     1      24.044   1.703  20.766  0.00  0.00    +0.040 A 
ATOM     24  C   UNL     1      24.042   1.440  23.167  0.00  0.00    +0.040 A 
ATOM     25  C   UNL     1      24.401   0.976  21.902  0.00  0.00    +0.124 A 
ENDBRANCH   7  20
TORSDOF 3
ENDMDL
MODEL 6
REMARK VINA RESULT:      -6.6     28.130     30.803
REMARK  Name = 51137021
REMARK  4 active torsions:
REMARK  status: ('A' for Active; 'I' for Inactive)
REMARK    1  A    between atoms: O_3  and  C_18
REMARK    2  A    between atoms: O_3  and  C_26
REMARK    3  A    between atoms: N_7  and  C_20
REMARK    4  A    between atoms: C_8  and  C_12
REMARK                            x       y       z     vdW  Elec       q    Type
REMARK                         _______ _______ _______ _____ _____    ______ ____
ROOT
ATOM      2  O   UNL     1      -9.224 -12.639  18.443  0.00  0.00    -0.252 OA
ATOM      4  N   UNL     1      -7.231 -11.581  18.866  0.00  0.00    -0.285 N 
ATOM      7  N   UNL     1      -9.240 -10.417  19.154  0.00  0.00    -0.269 N 
ATOM      8  C   UNL     1      -4.987 -12.197  18.371  0.00  0.00    +0.074 C 
ATOM      9  C   UNL     1      -4.987 -11.032  19.371  0.00  0.00    +0.032 C 
ATOM     10  C   UNL     1      -6.415 -12.739  18.517  0.00  0.00    +0.120 C 
ATOM     11  C   UNL     1      -6.393 -10.454  19.266  0.00  0.00    +0.110 C 
ATOM     13  C   UNL     1      -8.629 -11.619  18.797  0.00  0.00    +0.306 C 
ATOM     28  H   UNL     1      -8.639  -9.636  19.404  0.00  0.00    +0.156 HD
ENDROOT
BRANCH   8  12
ATOM      5  N   UNL     1      -3.267 -11.440  16.697  0.00  0.00    -0.341 N 
ATOM      6  N   UNL     1      -5.351 -11.587  15.939  0.00  0.00    -0.232 NA
ATOM     12  C   UNL     1      -4.569 -11.742  16.983  0.00  0.00    +0.113 A 
ATOM     14  C   UNL     1      -3.204 -11.064  15.380  0.00  0.00    +0.070 A 
ATOM     15  C   UNL     1      -4.518 -11.164  14.929  0.00  0.00    +0.089 A 
ATOM     16  C   UNL     1      -2.145 -10.659  14.569  0.00  0.00    +0.073 A 
ATOM     17  C   UNL     1      -4.809 -10.844  13.593  0.00  0.00    +0.033 A 
ATOM     18  C   UNL     1      -2.452 -10.343  13.241  0.00  0.00    +0.122 A 
ATOM     19  C   UNL     1      -3.760 -10.434  12.760  0.00  0.00    +0.048 A 
ATOM     27  H   UNL     1      -2.488 -11.483  17.341  0.00  0.00    +0.167 HD
BRANCH  18   3
ATOM      3  O   UNL     1      -1.454  -9.941  12.403  0.00  0.00    -0.495 OA
ATOM     26  C   UNL     1      -1.835  -9.545  11.087  0.00  0.00    +0.277 C 
ENDBRANCH  18   3
ENDBRANCH   8  12
BRANCH   7  20
ATOM      1  F   UNL     1     -14.661  -9.260  19.300  0.00  0.00    -0.205 F 
ATOM     20  C   UNL     1     -10.625 -10.122  19.192  0.00  0.00    +0.035 A 
ATOM     21  C   UNL     1     -11.338 -10.268  20.381  0.00  0.00    +0.026 A 
ATOM     22  C   UNL     1     -11.276  -9.685  18.038  0.00  0.00    +0.026 A 
ATOM     23  C   UNL     1     -12.701  -9.978  20.417  0.00  0.00    +0.040 A 
ATOM     24  C   UNL     1     -12.640  -9.393  18.075  0.00  0.00    +0.040 A 
ATOM     25  C   UNL     1     -13.352  -9.540  19.265  0.00  0.00    +0.124 A 
ENDBRANCH   7  20
TORSDOF 3
ENDMDL
MODEL 7
REMARK VINA RESULT:      -6.5     27.760     30.104
REMARK  Name = 51137021
REMARK  4 active torsions:
REMARK  status: ('A' for Active; 'I' for Inactive)
REMARK    1  A    between atoms: O_3  and  C_18
REMARK    2  A    between atoms: O_3  and  C_26
REMARK    3  A    between atoms: N_7  and  C_20
REMARK    4  A    between atoms: C_8  and  C_12
REMARK                            x       y       z     vdW  Elec       q    Type
REMARK                         _______ _______ _______ _____ _____    ______ ____
ROOT
ATOM      2  O   UNL     1      -5.466 -13.590  16.032  0.00  0.00    -0.252 OA
ATOM      4  N   UNL     1      -3.748 -12.167  15.492  0.00  0.00    -0.285 N 
ATOM      7  N   UNL     1      -5.347 -11.501  17.065  0.00  0.00    -0.269 N 
ATOM      8  C   UNL     1      -2.148 -12.229  13.732  0.00  0.00    +0.074 C 
ATOM      9  C   UNL     1      -1.716 -11.190  14.778  0.00  0.00    +0.032 C 
ATOM     10  C   UNL     1      -3.146 -13.080  14.526  0.00  0.00    +0.120 C 
ATOM     11  C   UNL     1      -2.983 -10.926  15.582  0.00  0.00    +0.110 C 
ATOM     13  C   UNL     1      -4.910 -12.503  16.198  0.00  0.00    +0.306 C 
ATOM     28  H   UNL     1      -4.817 -10.635  17.094  0.00  0.00    +0.156 HD
ENDROOT
BRANCH   8  12
ATOM      5  N   UNL     1      -3.311 -12.288  11.501  0.00  0.00    -0.341 N 
ATOM      6  N   UNL     1      -2.584 -10.292  12.157  0.00  0.00    -0.232 NA
ATOM     12  C   UNL     1      -2.671 -11.566  12.470  0.00  0.00    +0.113 A 
ATOM     14  C   UNL     1      -3.660 -11.423  10.496  0.00  0.00    +0.070 A 
ATOM     15  C   UNL     1      -3.195 -10.184  10.930  0.00  0.00    +0.089 A 
ATOM     16  C   UNL     1      -4.321 -11.612   9.283  0.00  0.00    +0.073 A 
ATOM     17  C   UNL     1      -3.394  -9.056  10.117  0.00  0.00    +0.033 A 
ATOM     18  C   UNL     1      -4.511 -10.478   8.486  0.00  0.00    +0.122 A 
ATOM     19  C   UNL     1      -4.057  -9.222   8.893  0.00  0.00    +0.048 A 
ATOM     27  H   UNL     1      -3.493 -13.282  11.519  0.00  0.00    +0.167 HD
BRANCH  18   3
ATOM      3  O   UNL     1      -5.153 -10.604   7.289  0.00  0.00    -0.495 OA
ATOM     26  C   UNL     1      -4.658 -11.594   6.390  0.00  0.00    +0.277 C 
ENDBRANCH  18   3
ENDBRANCH   8  12
BRANCH   7  20
ATOM      1  F   UNL     1      -9.777 -11.583  20.399  0.00  0.00    -0.205 F 
ATOM     20  C   UNL     1      -6.479 -11.521  17.917  0.00  0.00    +0.035 A 
ATOM     21  C   UNL     1      -7.543 -10.651  17.684  0.00  0.00    +0.026 A 
ATOM     22  C   UNL     1      -6.528 -12.412  18.989  0.00  0.00    +0.026 A 
ATOM     23  C   UNL     1      -8.657 -10.672  18.523  0.00  0.00    +0.040 A 
ATOM     24  C   UNL     1      -7.643 -12.433  19.828  0.00  0.00    +0.040 A 
ATOM     25  C   UNL     1      -8.707 -11.563  19.594  0.00  0.00    +0.124 A 
ENDBRANCH   7  20
TORSDOF 3
ENDMDL
MODEL 8
REMARK VINA RESULT:      -6.5     28.851     31.688
REMARK  Name = 51137021
REMARK  4 active torsions:
REMARK  status: ('A' for Active; 'I' for Inactive)
REMARK    1  A    between atoms: O_3  and  C_18
REMARK    2  A    between atoms: O_3  and  C_26
REMARK    3  A    between atoms: N_7  and  C_20
REMARK    4  A    between atoms: C_8  and  C_12
REMARK                            x       y       z     vdW  Elec       q    Type
REMARK                         _______ _______ _______ _____ _____    ______ ____
ROOT
ATOM      2  O   UNL     1      -9.925  -4.289   8.959  0.00  0.00    -0.252 OA
ATOM      4  N   UNL     1      -9.763  -6.508   8.396  0.00  0.00    -0.285 N 
ATOM      7  N   UNL     1     -11.572  -5.774   9.684  0.00  0.00    -0.269 N 
ATOM      8  C   UNL     1      -7.974  -7.767   7.460  0.00  0.00    +0.074 C 
ATOM      9  C   UNL     1      -9.269  -8.589   7.387  0.00  0.00    +0.032 C 
ATOM     10  C   UNL     1      -8.513  -6.345   7.660  0.00  0.00    +0.120 C 
ATOM     11  C   UNL     1     -10.200  -7.902   8.378  0.00  0.00    +0.110 C 
ATOM     13  C   UNL     1     -10.398  -5.425   9.016  0.00  0.00    +0.306 C 
ATOM     28  H   UNL     1     -11.846  -6.752   9.683  0.00  0.00    +0.156 HD
ENDROOT
BRANCH   8  12
ATOM      5  N   UNL     1      -5.733  -8.600   8.245  0.00  0.00    -0.341 N 
ATOM      6  N   UNL     1      -7.329  -8.523   9.791  0.00  0.00    -0.232 NA
ATOM     12  C   UNL     1      -7.035  -8.297   8.530  0.00  0.00    +0.113 A 
ATOM     14  C   UNL     1      -5.146  -9.051   9.400  0.00  0.00    +0.070 A 
ATOM     15  C   UNL     1      -6.163  -8.994  10.350  0.00  0.00    +0.089 A 
ATOM     16  C   UNL     1      -3.854  -9.491   9.687  0.00  0.00    +0.073 A 
ATOM     17  C   UNL     1      -5.892  -9.395  11.669  0.00  0.00    +0.033 A 
ATOM     18  C   UNL     1      -3.601  -9.887  11.004  0.00  0.00    +0.122 A 
ATOM     19  C   UNL     1      -4.601  -9.841  11.979  0.00  0.00    +0.048 A 
ATOM     27  H   UNL     1      -5.281  -8.510   7.346  0.00  0.00    +0.167 HD
BRANCH  18   3
ATOM      3  O   UNL     1      -2.355 -10.326  11.341  0.00  0.00    -0.495 OA
ATOM     26  C   UNL     1      -2.086 -10.507  12.730  0.00  0.00    +0.277 C 
ENDBRANCH  18   3
ENDBRANCH   8  12
BRANCH   7  20
ATOM      1  F   UNL     1     -14.993  -2.453  12.516  0.00  0.00    -0.205 F 
ATOM     20  C   UNL     1     -12.446  -4.925  10.407  0.00  0.00    +0.035 A 
ATOM     21  C   UNL     1     -13.574  -4.391   9.785  0.00  0.00    +0.026 A 
ATOM     22  C   UNL     1     -12.178  -4.623  11.742  0.00  0.00    +0.026 A 
ATOM     23  C   UNL     1     -14.434  -3.556  10.497  0.00  0.00    +0.040 A 
ATOM     24  C   UNL     1     -13.039  -3.788  12.455  0.00  0.00    +0.040 A 
ATOM     25  C   UNL     1     -14.167  -3.254  11.832  0.00  0.00    +0.124 A 
ENDBRANCH   7  20
TORSDOF 3
ENDMDL
MODEL 9
REMARK VINA RESULT:      -6.4     17.705     21.034
REMARK  Name = 51137021
REMARK  4 active torsions:
REMARK  status: ('A' for Active; 'I' for Inactive)
REMARK    1  A    between atoms: O_3  and  C_18
REMARK    2  A    between atoms: O_3  and  C_26
REMARK    3  A    between atoms: N_7  and  C_20
REMARK    4  A    between atoms: C_8  and  C_12
REMARK                            x       y       z     vdW  Elec       q    Type
REMARK                         _______ _______ _______ _____ _____    ______ ____
ROOT
ATOM      2  O   UNL     1      11.937   6.821   5.245  0.00  0.00    -0.252 OA
ATOM      4  N   UNL     1      10.554   7.270   3.469  0.00  0.00    -0.285 N 
ATOM      7  N   UNL     1       9.656   6.367   5.432  0.00  0.00    -0.269 N 
ATOM      8  C   UNL     1      11.030   7.813   1.202  0.00  0.00    +0.074 C 
ATOM      9  C   UNL     1       9.550   8.100   1.495  0.00  0.00    +0.032 C 
ATOM     10  C   UNL     1      11.628   7.764   2.614  0.00  0.00    +0.120 C 
ATOM     11  C   UNL     1       9.269   7.324   2.776  0.00  0.00    +0.110 C 
ATOM     13  C   UNL     1      10.800   6.815   4.770  0.00  0.00    +0.306 C 
ATOM     28  H   UNL     1       8.777   6.388   4.924  0.00  0.00    +0.156 HD
ENDROOT
BRANCH   8  12
ATOM      5  N   UNL     1      10.414   6.351  -0.751  0.00  0.00    -0.341 N 
ATOM      6  N   UNL     1      12.067   5.600   0.533  0.00  0.00    -0.232 NA
ATOM     12  C   UNL     1      11.200   6.570   0.347  0.00  0.00    +0.113 A 
ATOM     14  C   UNL     1      10.801   5.159  -1.310  0.00  0.00    +0.070 A 
ATOM     15  C   UNL     1      11.833   4.711  -0.490  0.00  0.00    +0.089 A 
ATOM     16  C   UNL     1      10.349   4.458  -2.428  0.00  0.00    +0.073 A 
ATOM     17  C   UNL     1      12.464   3.492  -0.789  0.00  0.00    +0.033 A 
ATOM     18  C   UNL     1      10.988   3.246  -2.710  0.00  0.00    +0.122 A 
ATOM     19  C   UNL     1      12.027   2.770  -1.907  0.00  0.00    +0.048 A 
ATOM     27  H   UNL     1       9.679   6.956  -1.090  0.00  0.00    +0.167 HD
BRANCH  18   3
ATOM      3  O   UNL     1      10.588   2.517  -3.792  0.00  0.00    -0.495 OA
ATOM     26  C   UNL     1       9.332   1.849  -3.693  0.00  0.00    +0.277 C 
ENDBRANCH  18   3
ENDBRANCH   8  12
BRANCH   7  20
ATOM      1  F   UNL     1       9.275   4.341  10.579  0.00  0.00    -0.205 F 
ATOM     20  C   UNL     1       9.558   5.849   6.746  0.00  0.00    +0.035 A 
ATOM     21  C   UNL     1       9.868   4.513   6.994  0.00  0.00    +0.026 A 
ATOM     22  C   UNL     1       9.152   6.677   7.793  0.00  0.00    +0.026 A 
ATOM     23  C   UNL     1       9.772   4.003   8.289  0.00  0.00    +0.040 A 
ATOM     24  C   UNL     1       9.056   6.167   9.088  0.00  0.00    +0.040 A 
ATOM     25  C   UNL     1       9.366   4.830   9.336  0.00  0.00    +0.124 A 
ENDBRANCH   7  20
TORSDOF 3
ENDMDL
MODEL 10
REMARK VINA RESULT:      -6.3     28.755     31.529
REMARK  Name = 51137021
REMARK  4 active torsions:
REMARK  status: ('A' for Active; 'I' for Inactive)
REMARK    1  A    between atoms: O_3  and  C_18
REMARK    2  A    between atoms: O_3  and  C_26
REMARK    3  A    between atoms: N_7  and  C_20
REMARK    4  A    between atoms: C_8  and  C_12
REMARK                            x       y       z     vdW  Elec       q    Type
REMARK                         _______ _______ _______ _____ _____    ______ ____
ROOT
ATOM      2  O   UNL     1     -12.937  -7.723  13.648  0.00  0.00    -0.252 OA
ATOM      4  N   UNL     1     -11.420  -7.525  15.359  0.00  0.00    -0.285 N 
ATOM      7  N   UNL     1     -12.099  -5.614  14.192  0.00  0.00    -0.269 N 
ATOM      8  C   UNL     1     -10.171  -9.161  16.552  0.00  0.00    +0.074 C 
ATOM      9  C   UNL     1     -10.092  -7.819  17.293  0.00  0.00    +0.032 C 
ATOM     10  C   UNL     1     -11.397  -8.954  15.653  0.00  0.00    +0.120 C 
ATOM     11  C   UNL     1     -10.523  -6.794  16.251  0.00  0.00    +0.110 C 
ATOM     13  C   UNL     1     -12.218  -6.997  14.336  0.00  0.00    +0.306 C 
ATOM     28  H   UNL     1     -11.451  -5.128  14.804  0.00  0.00    +0.156 HD
ENDROOT
BRANCH   8  12
ATOM      5  N   UNL     1      -7.698  -9.628  16.558  0.00  0.00    -0.341 N 
ATOM      6  N   UNL     1      -8.685  -9.682  14.567  0.00  0.00    -0.232 NA
ATOM     12  C   UNL     1      -8.863  -9.493  15.855  0.00  0.00    +0.113 A 
ATOM     14  C   UNL     1      -6.702  -9.924  15.664  0.00  0.00    +0.070 A 
ATOM     15  C   UNL     1      -7.343  -9.952  14.428  0.00  0.00    +0.089 A 
ATOM     16  C   UNL     1      -5.337 -10.163  15.824  0.00  0.00    +0.073 A 
ATOM     17  C   UNL     1      -6.593 -10.233  13.274  0.00  0.00    +0.033 A 
ATOM     18  C   UNL     1      -4.605 -10.440  14.665  0.00  0.00    +0.122 A 
ATOM     19  C   UNL     1      -5.220 -10.475  13.411  0.00  0.00    +0.048 A 
ATOM     27  H   UNL     1      -7.589  -9.527  17.558  0.00  0.00    +0.167 HD
BRANCH  18   3
ATOM      3  O   UNL     1      -3.267 -10.681  14.762  0.00  0.00    -0.495 OA
ATOM     26  C   UNL     1      -2.712 -10.726  16.075  0.00  0.00    +0.277 C 
ENDBRANCH  18   3
ENDBRANCH   8  12
BRANCH   7  20
ATOM      1  F   UNL     1     -14.699  -2.339  10.550  0.00  0.00    -0.205 F 
ATOM     20  C   UNL     1     -12.763  -4.777  13.262  0.00  0.00    +0.035 A 
ATOM     21  C   UNL     1     -12.096  -4.338  12.119  0.00  0.00    +0.026 A 
ATOM     22  C   UNL     1     -14.084  -4.393  13.489  0.00  0.00    +0.026 A 
ATOM     23  C   UNL     1     -12.750  -3.513  11.203  0.00  0.00    +0.040 A 
ATOM     24  C   UNL     1     -14.739  -3.569  12.572  0.00  0.00    +0.040 A 
ATOM     25  C   UNL     1     -14.071  -3.129  11.429  0.00  0.00    +0.124 A 
ENDBRANCH   7  20
TORSDOF 3
ENDMDL
