MODEL 1
REMARK VINA RESULT:      -6.8      0.000      0.000
REMARK  Name = 7135225
REMARK  15 active torsions:
REMARK  status: ('A' for Active; 'I' for Inactive)
REMARK    1  A    between atoms: O_3  and  C_16
REMARK    2  A    between atoms: O_4  and  C_21
REMARK    3  A    between atoms: O_6  and  C_29
REMARK    4  A    between atoms: N_9  and  CA_27
REMARK    5  A    between atoms: C_11  and  C_19
REMARK    6  A    between atoms: C_13  and  C_21
REMARK    7  A    between atoms: C_13  and  C_22
REMARK    8  A    between atoms: C_14  and  C_24
REMARK    9  A    between atoms: C_24  and  C_25
REMARK   10  A    between atoms: CA_27  and  CB_28
REMARK   11  A    between atoms: CA_27  and  C_29
REMARK   12  A    between atoms: CB_28  and  CG_31
REMARK   13  A    between atoms: C_30  and  C_32
REMARK   14  A    between atoms: CG_31  and  CD1_33
REMARK   15  A    between atoms: CG_31  and  CD2_34
REMARK                            x       y       z     vdW  Elec       q    Type
REMARK                         _______ _______ _______ _____ _____    ______ ____
ROOT
ATOM      1  S   UNL     1      15.209   8.282   6.215  0.00  0.00    -0.057 S 
ATOM      7  O   UNL     1      12.264   6.620   3.014  0.00  0.00    -0.270 OA
ATOM      8  N   UNL     1      14.995   7.475   3.767  0.00  0.00    -0.229 NA
ATOM     10  N   UNL     1      12.989   7.436   5.104  0.00  0.00    -0.261 N 
ATOM     11  C   UNL     1      18.652   8.567   3.224  0.00  0.00    -0.019 C 
ATOM     12  C   UNL     1      19.051   8.261   4.734  0.00  0.00    +0.011 C 
ATOM     13  C   UNL     1      20.513   8.649   5.182  0.00  0.00    +0.021 C 
ATOM     14  C   UNL     1      17.343   7.719   2.878  0.00  0.00    +0.054 C 
ATOM     15  C   UNL     1      19.796   8.103   2.284  0.00  0.00    +0.010 C 
ATOM     16  C   UNL     1      21.525   8.152   4.111  0.00  0.00    +0.123 C 
ATOM     17  C   UNL     1      17.945   8.737   5.721  0.00  0.00    +0.049 C 
ATOM     18  C   UNL     1      21.173   8.602   2.698  0.00  0.00    +0.032 C 
ATOM     19  C   UNL     1      18.376  10.069   2.967  0.00  0.00    +0.012 C 
ATOM     20  C   UNL     1      16.311   7.847   3.968  0.00  0.00    +0.058 A 
ATOM     22  C   UNL     1      20.848   7.914   6.511  0.00  0.00    +0.016 C 
ATOM     23  C   UNL     1      16.606   8.288   5.242  0.00  0.00    +0.015 A 
ATOM     26  C   UNL     1      14.320   7.669   4.879  0.00  0.00    +0.165 A 
ATOM     30  C   UNL     1      12.056   6.937   4.181  0.00  0.00    +0.250 C 
ATOM     43  H   UNL     1      12.705   7.617   6.061  0.00  0.00    +0.157 HD
ENDROOT
BRANCH  30  32
ATOM      2  F   UNL     1       9.013   5.236   7.533  0.00  0.00    -0.205 F 
ATOM     32  C   UNL     1      10.676   6.752   4.706  0.00  0.00    +0.040 A 
ATOM     35  C   UNL     1      10.503   6.069   5.891  0.00  0.00    +0.051 A 
ATOM     36  C   UNL     1       9.618   7.271   3.991  0.00  0.00    +0.013 A 
ATOM     37  C   UNL     1       9.210   5.897   6.384  0.00  0.00    +0.124 A 
ATOM     38  C   UNL     1       8.325   7.099   4.484  0.00  0.00    +0.004 A 
ATOM     39  C   UNL     1       8.121   6.412   5.681  0.00  0.00    +0.038 A 
ENDBRANCH  30  32
BRANCH  16   3
ATOM      3  O   UNL     1      22.845   8.599   4.422  0.00  0.00    -0.391 OA
ATOM     40  H   UNL     1      22.914   8.683   5.386  0.00  0.00    +0.210 HD
ENDBRANCH  16   3
BRANCH  13  21
ATOM     21  C   UNL     1      20.714  10.152   5.476  0.00  0.00    +0.165 C 
BRANCH  21   4
ATOM      4  O   UNL     1      21.561  10.261   6.599  0.00  0.00    -0.394 OA
ATOM     41  H   UNL     1      21.588   9.396   7.041  0.00  0.00    +0.209 HD
ENDBRANCH  21   4
ENDBRANCH  13  21
BRANCH  14  24
ATOM     24  C   UNL     1      16.740   8.012   1.497  0.00  0.00    +0.106 C 
BRANCH  24  25
ATOM      5  O   UNL     1      17.324   6.488  -0.289  0.00  0.00    -0.276 OA
ATOM      9  N   UNL     1      15.548   5.976   1.120  0.00  0.00    -0.310 N 
ATOM     25  C   ACE A   0      16.599   6.759   0.663  0.00  0.00    +0.214 C 
ATOM     42  H   UNL     1      15.011   6.287   1.921  0.00  0.00    +0.149 HD
BRANCH   9  27
ATOM     27  CA  UNL     1      15.178   4.719   0.512  0.00  0.00    +0.098 C 
BRANCH  27  28
ATOM     28  CB  UNL     1      14.192   4.938  -0.650  0.00  0.00    +0.027 C 
BRANCH  28  31
ATOM     31  CG  UNL     1      12.928   4.052  -0.610  0.00  0.00    -0.015 C 
ATOM     33  CD1 UNL     1      11.651   4.862  -0.382  0.00  0.00    +0.007 C 
ATOM     34  CD2 UNL     1      12.810   3.265  -1.919  0.00  0.00    +0.007 C 
ENDBRANCH  28  31
ENDBRANCH  27  28
BRANCH  27  29
ATOM     29  C   UNL     1      14.609   3.770   1.572  0.00  0.00    +0.178 C 
BRANCH  29   6
ATOM      6  O   UNL     1      15.650   3.236   2.380  0.00  0.00    -0.393 OA
ATOM     44  H   UNL     1      15.240   2.703   3.082  0.00  0.00    +0.209 HD
ENDBRANCH  29   6
ENDBRANCH  27  29
ENDBRANCH   9  27
ENDBRANCH  24  25
ENDBRANCH  14  24
TORSDOF 11
ENDMDL
MODEL 2
REMARK VINA RESULT:      -6.2      3.186      9.065
REMARK  Name = 7135225
REMARK  15 active torsions:
REMARK  status: ('A' for Active; 'I' for Inactive)
REMARK    1  A    between atoms: O_3  and  C_16
REMARK    2  A    between atoms: O_4  and  C_21
REMARK    3  A    between atoms: O_6  and  C_29
REMARK    4  A    between atoms: N_9  and  CA_27
REMARK    5  A    between atoms: C_11  and  C_19
REMARK    6  A    between atoms: C_13  and  C_21
REMARK    7  A    between atoms: C_13  and  C_22
REMARK    8  A    between atoms: C_14  and  C_24
REMARK    9  A    between atoms: C_24  and  C_25
REMARK   10  A    between atoms: CA_27  and  CB_28
REMARK   11  A    between atoms: CA_27  and  C_29
REMARK   12  A    between atoms: CB_28  and  CG_31
REMARK   13  A    between atoms: C_30  and  C_32
REMARK   14  A    between atoms: CG_31  and  CD1_33
REMARK   15  A    between atoms: CG_31  and  CD2_34
REMARK                            x       y       z     vdW  Elec       q    Type
REMARK                         _______ _______ _______ _____ _____    ______ ____
ROOT
ATOM      1  S   UNL     1      16.424   6.960   0.623  0.00  0.00    -0.057 S 
ATOM      7  O   UNL     1      16.290   8.041   5.150  0.00  0.00    -0.270 OA
ATOM      8  N   UNL     1      14.911   7.071   2.718  0.00  0.00    -0.229 NA
ATOM     10  N   UNL     1      17.205   7.758   2.996  0.00  0.00    -0.261 N 
ATOM     11  C   UNL     1      11.931   6.139   0.457  0.00  0.00    -0.019 C 
ATOM     12  C   UNL     1      12.843   5.282  -0.527  0.00  0.00    +0.011 C 
ATOM     13  C   UNL     1      12.151   4.695  -1.817  0.00  0.00    +0.021 C 
ATOM     14  C   UNL     1      12.686   6.248   1.861  0.00  0.00    +0.054 C 
ATOM     15  C   UNL     1      10.584   5.404   0.684  0.00  0.00    +0.010 C 
ATOM     16  C   UNL     1      10.799   4.038  -1.419  0.00  0.00    +0.123 C 
ATOM     17  C   UNL     1      14.198   5.994  -0.810  0.00  0.00    +0.049 C 
ATOM     18  C   UNL     1       9.901   4.960  -0.603  0.00  0.00    +0.032 C 
ATOM     19  C   UNL     1      11.636   7.561  -0.082  0.00  0.00    +0.012 C 
ATOM     20  C   UNL     1      14.135   6.614   1.669  0.00  0.00    +0.058 A 
ATOM     22  C   UNL     1      13.052   3.575  -2.411  0.00  0.00    +0.016 C 
ATOM     23  C   UNL     1      14.799   6.475   0.467  0.00  0.00    +0.015 A 
ATOM     26  C   UNL     1      16.132   7.293   2.282  0.00  0.00    +0.165 A 
ATOM     30  C   UNL     1      17.224   8.098   4.358  0.00  0.00    +0.250 C 
ATOM     43  H   UNL     1      18.060   7.803   2.452  0.00  0.00    +0.157 HD
ENDROOT
BRANCH  30  32
ATOM      2  F   UNL     1      20.269   8.827   8.044  0.00  0.00    -0.205 F 
ATOM     32  C   UNL     1      18.542   8.548   4.883  0.00  0.00    +0.040 A 
ATOM     35  C   UNL     1      18.778   8.470   6.239  0.00  0.00    +0.051 A 
ATOM     36  C   UNL     1      19.481   9.029   3.996  0.00  0.00    +0.013 A 
ATOM     37  C   UNL     1      20.013   8.891   6.731  0.00  0.00    +0.124 A 
ATOM     38  C   UNL     1      20.717   9.450   4.488  0.00  0.00    +0.004 A 
ATOM     39  C   UNL     1      20.982   9.381   5.855  0.00  0.00    +0.038 A 
ENDBRANCH  30  32
BRANCH  16   3
ATOM      3  O   UNL     1      10.087   3.611  -2.580  0.00  0.00    -0.391 OA
ATOM     40  H   UNL     1      10.717   3.171  -3.174  0.00  0.00    +0.210 HD
ENDBRANCH  16   3
BRANCH  13  21
ATOM     21  C   UNL     1      11.953   5.717  -2.958  0.00  0.00    +0.165 C 
BRANCH  21   4
ATOM      4  O   UNL     1      12.906   5.437  -3.958  0.00  0.00    -0.394 OA
ATOM     41  H   UNL     1      13.696   5.975  -3.781  0.00  0.00    +0.209 HD
ENDBRANCH  21   4
ENDBRANCH  13  21
BRANCH  14  24
ATOM     24  C   UNL     1      12.004   7.170   2.882  0.00  0.00    +0.106 C 
BRANCH  24  25
ATOM      5  O   UNL     1      10.932   5.407   4.146  0.00  0.00    -0.276 OA
ATOM      9  N   UNL     1      12.119   7.063   5.265  0.00  0.00    -0.310 N 
ATOM     25  C   ACE A   0      11.611   6.429   4.140  0.00  0.00    +0.214 C 
ATOM     42  H   UNL     1      12.675   7.902   5.152  0.00  0.00    +0.149 HD
BRANCH   9  27
ATOM     27  CA  UNL     1      11.900   6.579   6.609  0.00  0.00    +0.098 C 
BRANCH  27  28
ATOM     28  CB  UNL     1      10.742   7.334   7.285  0.00  0.00    +0.027 C 
BRANCH  28  31
ATOM     31  CG  UNL     1       9.448   6.515   7.472  0.00  0.00    -0.015 C 
ATOM     33  CD1 UNL     1       8.452   6.722   6.330  0.00  0.00    +0.007 C 
ATOM     34  CD2 UNL     1       9.792   5.027   7.590  0.00  0.00    +0.007 C 
ENDBRANCH  28  31
ENDBRANCH  27  28
BRANCH  27  29
ATOM     29  C   UNL     1      13.197   6.677   7.419  0.00  0.00    +0.178 C 
BRANCH  29   6
ATOM      6  O   UNL     1      14.332   6.577   6.568  0.00  0.00    -0.393 OA
ATOM     44  H   UNL     1      14.276   5.731   6.094  0.00  0.00    +0.209 HD
ENDBRANCH  29   6
ENDBRANCH  27  29
ENDBRANCH   9  27
ENDBRANCH  24  25
ENDBRANCH  14  24
TORSDOF 11
ENDMDL
MODEL 3
REMARK VINA RESULT:      -6.2     31.231     35.001
REMARK  Name = 7135225
REMARK  15 active torsions:
REMARK  status: ('A' for Active; 'I' for Inactive)
REMARK    1  A    between atoms: O_3  and  C_16
REMARK    2  A    between atoms: O_4  and  C_21
REMARK    3  A    between atoms: O_6  and  C_29
REMARK    4  A    between atoms: N_9  and  CA_27
REMARK    5  A    between atoms: C_11  and  C_19
REMARK    6  A    between atoms: C_13  and  C_21
REMARK    7  A    between atoms: C_13  and  C_22
REMARK    8  A    between atoms: C_14  and  C_24
REMARK    9  A    between atoms: C_24  and  C_25
REMARK   10  A    between atoms: CA_27  and  CB_28
REMARK   11  A    between atoms: CA_27  and  C_29
REMARK   12  A    between atoms: CB_28  and  CG_31
REMARK   13  A    between atoms: C_30  and  C_32
REMARK   14  A    between atoms: CG_31  and  CD1_33
REMARK   15  A    between atoms: CG_31  and  CD2_34
REMARK                            x       y       z     vdW  Elec       q    Type
REMARK                         _______ _______ _______ _____ _____    ______ ____
ROOT
ATOM      1  S   UNL     1     -10.126 -12.778  20.433  0.00  0.00    -0.057 S 
ATOM      7  O   UNL     1     -13.428  -9.566  19.754  0.00  0.00    -0.270 OA
ATOM      8  N   UNL     1     -10.770 -10.673  19.074  0.00  0.00    -0.229 NA
ATOM     10  N   UNL     1     -12.375 -11.455  20.692  0.00  0.00    -0.261 N 
ATOM     11  C   UNL     1      -7.225 -10.727  17.558  0.00  0.00    -0.019 C 
ATOM     12  C   UNL     1      -7.122 -12.313  17.655  0.00  0.00    +0.011 C 
ATOM     13  C   UNL     1      -5.743 -12.966  17.257  0.00  0.00    +0.021 C 
ATOM     14  C   UNL     1      -8.773 -10.332  17.570  0.00  0.00    +0.054 C 
ATOM     15  C   UNL     1      -6.611 -10.251  16.215  0.00  0.00    +0.010 C 
ATOM     16  C   UNL     1      -5.250 -12.347  15.918  0.00  0.00    +0.123 C 
ATOM     17  C   UNL     1      -7.699 -12.837  19.002  0.00  0.00    +0.049 C 
ATOM     18  C   UNL     1      -5.228 -10.823  15.934  0.00  0.00    +0.032 C 
ATOM     19  C   UNL     1      -6.500 -10.004  18.719  0.00  0.00    +0.012 C 
ATOM     20  C   UNL     1      -9.511 -11.068  18.658  0.00  0.00    +0.058 A 
ATOM     22  C   UNL     1      -5.954 -14.488  17.012  0.00  0.00    +0.016 C 
ATOM     23  C   UNL     1      -9.020 -12.200  19.274  0.00  0.00    +0.015 A 
ATOM     26  C   UNL     1     -11.188 -11.495  20.011  0.00  0.00    +0.165 A 
ATOM     30  C   UNL     1     -13.406 -10.514  20.530  0.00  0.00    +0.250 C 
ATOM     43  H   UNL     1     -12.495 -12.228  21.338  0.00  0.00    +0.157 HD
ENDROOT
BRANCH  30  32
ATOM      2  F   UNL     1     -15.744 -12.983  23.969  0.00  0.00    -0.205 F 
ATOM     32  C   UNL     1     -14.604 -10.729  21.385  0.00  0.00    +0.040 A 
ATOM     35  C   UNL     1     -14.599 -11.774  22.285  0.00  0.00    +0.051 A 
ATOM     36  C   UNL     1     -15.679  -9.877  21.249  0.00  0.00    +0.013 A 
ATOM     37  C   UNL     1     -15.722 -11.975  23.087  0.00  0.00    +0.124 A 
ATOM     38  C   UNL     1     -16.802 -10.078  22.051  0.00  0.00    +0.004 A 
ATOM     39  C   UNL     1     -16.823 -11.127  22.970  0.00  0.00    +0.038 A 
ENDBRANCH  30  32
BRANCH  16   3
ATOM      3  O   UNL     1      -3.944 -12.823  15.595  0.00  0.00    -0.391 OA
ATOM     40  H   UNL     1      -3.643 -13.392  16.322  0.00  0.00    +0.210 HD
ENDBRANCH  16   3
BRANCH  13  21
ATOM     21  C   UNL     1      -4.650 -12.869  18.345  0.00  0.00    +0.165 C 
BRANCH  21   4
ATOM      4  O   UNL     1      -4.038 -14.135  18.456  0.00  0.00    -0.394 OA
ATOM     41  H   UNL     1      -3.148 -14.008  18.825  0.00  0.00    +0.209 HD
ENDBRANCH  21   4
ENDBRANCH  13  21
BRANCH  14  24
ATOM     24  C   UNL     1      -9.046  -8.822  17.628  0.00  0.00    +0.106 C 
BRANCH  24  25
ATOM      5  O   UNL     1      -9.596  -7.796  15.507  0.00  0.00    -0.276 OA
ATOM      9  N   UNL     1     -11.290  -8.694  16.820  0.00  0.00    -0.310 N 
ATOM     25  C   ACE A   0      -9.974  -8.371  16.523  0.00  0.00    +0.214 C 
ATOM     42  H   UNL     1     -11.498  -9.177  17.687  0.00  0.00    +0.149 HD
BRANCH   9  27
ATOM     27  CA  UNL     1     -12.396  -8.381  15.944  0.00  0.00    +0.098 C 
BRANCH  27  28
ATOM     28  CB  UNL     1     -12.838  -6.917  16.116  0.00  0.00    +0.027 C 
BRANCH  28  31
ATOM     31  CG  UNL     1     -13.150  -6.170  14.801  0.00  0.00    -0.015 C 
ATOM     33  CD1 UNL     1     -12.410  -6.761  13.601  0.00  0.00    +0.007 C 
ATOM     34  CD2 UNL     1     -14.659  -6.199  14.539  0.00  0.00    +0.007 C 
ENDBRANCH  28  31
ENDBRANCH  27  28
BRANCH  27  29
ATOM     29  C   UNL     1     -13.551  -9.358  16.189  0.00  0.00    +0.178 C 
BRANCH  29   6
ATOM      6  O   UNL     1     -13.120 -10.461  16.976  0.00  0.00    -0.393 OA
ATOM     44  H   UNL     1     -13.804 -11.149  16.927  0.00  0.00    +0.209 HD
ENDBRANCH  29   6
ENDBRANCH  27  29
ENDBRANCH   9  27
ENDBRANCH  24  25
ENDBRANCH  14  24
TORSDOF 11
ENDMDL
MODEL 4
REMARK VINA RESULT:      -6.2     31.101     34.878
REMARK  Name = 7135225
REMARK  15 active torsions:
REMARK  status: ('A' for Active; 'I' for Inactive)
REMARK    1  A    between atoms: O_3  and  C_16
REMARK    2  A    between atoms: O_4  and  C_21
REMARK    3  A    between atoms: O_6  and  C_29
REMARK    4  A    between atoms: N_9  and  CA_27
REMARK    5  A    between atoms: C_11  and  C_19
REMARK    6  A    between atoms: C_13  and  C_21
REMARK    7  A    between atoms: C_13  and  C_22
REMARK    8  A    between atoms: C_14  and  C_24
REMARK    9  A    between atoms: C_24  and  C_25
REMARK   10  A    between atoms: CA_27  and  CB_28
REMARK   11  A    between atoms: CA_27  and  C_29
REMARK   12  A    between atoms: CB_28  and  CG_31
REMARK   13  A    between atoms: C_30  and  C_32
REMARK   14  A    between atoms: CG_31  and  CD1_33
REMARK   15  A    between atoms: CG_31  and  CD2_34
REMARK                            x       y       z     vdW  Elec       q    Type
REMARK                         _______ _______ _______ _____ _____    ______ ____
ROOT
ATOM      1  S   UNL     1     -10.073 -12.939  20.383  0.00  0.00    -0.057 S 
ATOM      7  O   UNL     1     -13.224  -9.541  19.939  0.00  0.00    -0.270 OA
ATOM      8  N   UNL     1     -10.616 -10.714  19.181  0.00  0.00    -0.229 NA
ATOM     10  N   UNL     1     -12.261 -11.539  20.738  0.00  0.00    -0.261 N 
ATOM     11  C   UNL     1      -7.072 -10.818  17.665  0.00  0.00    -0.019 C 
ATOM     12  C   UNL     1      -7.041 -12.410  17.647  0.00  0.00    +0.011 C 
ATOM     13  C   UNL     1      -5.691 -13.094  17.202  0.00  0.00    +0.021 C 
ATOM     14  C   UNL     1      -8.601 -10.355  17.706  0.00  0.00    +0.054 C 
ATOM     15  C   UNL     1      -6.432 -10.274  16.361  0.00  0.00    +0.010 C 
ATOM     16  C   UNL     1      -5.167 -12.403  15.913  0.00  0.00    +0.123 C 
ATOM     17  C   UNL     1      -7.646 -13.005  18.952  0.00  0.00    +0.049 C 
ATOM     18  C   UNL     1      -5.076 -10.886  16.040  0.00  0.00    +0.032 C 
ATOM     19  C   UNL     1      -6.319 -10.215  18.877  0.00  0.00    +0.012 C 
ATOM     20  C   UNL     1      -9.375 -11.134  18.737  0.00  0.00    +0.058 A 
ATOM     22  C   UNL     1      -5.971 -14.583  16.847  0.00  0.00    +0.016 C 
ATOM     23  C   UNL     1      -8.938 -12.330  19.269  0.00  0.00    +0.015 A 
ATOM     26  C   UNL     1     -11.074 -11.583  20.055  0.00  0.00    +0.165 A 
ATOM     30  C   UNL     1     -13.247 -10.543  20.644  0.00  0.00    +0.250 C 
ATOM     43  H   UNL     1     -12.418 -12.351  21.325  0.00  0.00    +0.157 HD
ENDROOT
BRANCH  30  32
ATOM      2  F   UNL     1     -17.754  -9.359  21.940  0.00  0.00    -0.205 F 
ATOM     32  C   UNL     1     -14.457 -10.765  21.481  0.00  0.00    +0.040 A 
ATOM     35  C   UNL     1     -15.547  -9.939  21.305  0.00  0.00    +0.051 A 
ATOM     36  C   UNL     1     -14.448 -11.788  22.405  0.00  0.00    +0.013 A 
ATOM     37  C   UNL     1     -16.681 -10.147  22.090  0.00  0.00    +0.124 A 
ATOM     38  C   UNL     1     -15.582 -11.997  23.189  0.00  0.00    +0.004 A 
ATOM     39  C   UNL     1     -16.699 -11.176  23.031  0.00  0.00    +0.038 A 
ENDBRANCH  30  32
BRANCH  16   3
ATOM      3  O   UNL     1      -3.882 -12.912  15.556  0.00  0.00    -0.391 OA
ATOM     40  H   UNL     1      -3.938 -13.881  15.535  0.00  0.00    +0.210 HD
ENDBRANCH  16   3
BRANCH  13  21
ATOM     21  C   UNL     1      -4.599 -13.126  18.295  0.00  0.00    +0.165 C 
BRANCH  21   4
ATOM      4  O   UNL     1      -4.046 -14.424  18.313  0.00  0.00    -0.394 OA
ATOM     41  H   UNL     1      -4.551 -14.957  18.949  0.00  0.00    +0.209 HD
ENDBRANCH  21   4
ENDBRANCH  13  21
BRANCH  14  24
ATOM     24  C   UNL     1      -8.805  -8.844  17.874  0.00  0.00    +0.106 C 
BRANCH  24  25
ATOM      5  O   UNL     1      -9.454  -8.548  15.562  0.00  0.00    -0.276 OA
ATOM      9  N   UNL     1     -10.544  -7.341  17.222  0.00  0.00    -0.310 N 
ATOM     25  C   ACE A   0      -9.614  -8.252  16.742  0.00  0.00    +0.214 C 
ATOM     42  H   UNL     1     -10.601  -7.171  18.220  0.00  0.00    +0.149 HD
BRANCH   9  27
ATOM     27  CA  UNL     1     -11.455  -6.617  16.365  0.00  0.00    +0.098 C 
BRANCH  27  28
ATOM     28  CB  UNL     1     -12.503  -7.562  15.751  0.00  0.00    +0.027 C 
BRANCH  28  31
ATOM     31  CG  UNL     1     -13.199  -8.507  16.753  0.00  0.00    -0.015 C 
ATOM     33  CD1 UNL     1     -14.712  -8.287  16.814  0.00  0.00    +0.007 C 
ATOM     34  CD2 UNL     1     -12.907  -9.963  16.379  0.00  0.00    +0.007 C 
ENDBRANCH  28  31
ENDBRANCH  27  28
BRANCH  27  29
ATOM     29  C   UNL     1     -10.671  -5.857  15.290  0.00  0.00    +0.178 C 
BRANCH  29   6
ATOM      6  O   UNL     1     -11.555  -5.185  14.402  0.00  0.00    -0.393 OA
ATOM     44  H   UNL     1     -12.311  -5.771  14.233  0.00  0.00    +0.209 HD
ENDBRANCH  29   6
ENDBRANCH  27  29
ENDBRANCH   9  27
ENDBRANCH  24  25
ENDBRANCH  14  24
TORSDOF 11
ENDMDL
MODEL 5
REMARK VINA RESULT:      -6.2     28.646     31.695
REMARK  Name = 7135225
REMARK  15 active torsions:
REMARK  status: ('A' for Active; 'I' for Inactive)
REMARK    1  A    between atoms: O_3  and  C_16
REMARK    2  A    between atoms: O_4  and  C_21
REMARK    3  A    between atoms: O_6  and  C_29
REMARK    4  A    between atoms: N_9  and  CA_27
REMARK    5  A    between atoms: C_11  and  C_19
REMARK    6  A    between atoms: C_13  and  C_21
REMARK    7  A    between atoms: C_13  and  C_22
REMARK    8  A    between atoms: C_14  and  C_24
REMARK    9  A    between atoms: C_24  and  C_25
REMARK   10  A    between atoms: CA_27  and  CB_28
REMARK   11  A    between atoms: CA_27  and  C_29
REMARK   12  A    between atoms: CB_28  and  CG_31
REMARK   13  A    between atoms: C_30  and  C_32
REMARK   14  A    between atoms: CG_31  and  CD1_33
REMARK   15  A    between atoms: CG_31  and  CD2_34
REMARK                            x       y       z     vdW  Elec       q    Type
REMARK                         _______ _______ _______ _____ _____    ______ ____
ROOT
ATOM      1  S   UNL     1      -5.787 -10.725  12.567  0.00  0.00    -0.057 S 
ATOM      7  O   UNL     1      -9.327  -8.730  10.295  0.00  0.00    -0.270 OA
ATOM      8  N   UNL     1      -8.178  -9.770  12.815  0.00  0.00    -0.229 NA
ATOM     10  N   UNL     1      -7.202  -9.700  10.612  0.00  0.00    -0.261 N 
ATOM     11  C   UNL     1      -8.161 -11.023  16.461  0.00  0.00    -0.019 C 
ATOM     12  C   UNL     1      -6.587 -10.825  16.605  0.00  0.00    +0.011 C 
ATOM     13  C   UNL     1      -5.924 -11.315  17.949  0.00  0.00    +0.021 C 
ATOM     14  C   UNL     1      -8.669 -10.088  15.269  0.00  0.00    +0.054 C 
ATOM     15  C   UNL     1      -8.860 -10.569  17.769  0.00  0.00    +0.010 C 
ATOM     16  C   UNL     1      -6.772 -10.813  19.152  0.00  0.00    +0.123 C 
ATOM     17  C   UNL     1      -5.836 -11.296  15.326  0.00  0.00    +0.049 C 
ATOM     18  C   UNL     1      -8.251 -11.163  19.031  0.00  0.00    +0.032 C 
ATOM     19  C   UNL     1      -8.558 -12.491  16.170  0.00  0.00    +0.012 C 
ATOM     20  C   UNL     1      -7.780 -10.223  14.059  0.00  0.00    +0.058 A 
ATOM     22  C   UNL     1      -4.512 -10.675  18.081  0.00  0.00    +0.016 C 
ATOM     23  C   UNL     1      -6.506 -10.750  14.110  0.00  0.00    +0.015 A 
ATOM     26  C   UNL     1      -7.212  -9.990  11.950  0.00  0.00    +0.165 A 
ATOM     30  C   UNL     1      -8.236  -9.100   9.875  0.00  0.00    +0.250 C 
ATOM     43  H   UNL     1      -6.321  -9.919  10.159  0.00  0.00    +0.157 HD
ENDROOT
BRANCH  30  32
ATOM      2  F   UNL     1      -9.112  -6.817   5.702  0.00  0.00    -0.205 F 
ATOM     32  C   UNL     1      -7.942  -8.872   8.434  0.00  0.00    +0.040 A 
ATOM     35  C   UNL     1      -8.683  -7.935   7.746  0.00  0.00    +0.051 A 
ATOM     36  C   UNL     1      -6.941  -9.606   7.837  0.00  0.00    +0.013 A 
ATOM     37  C   UNL     1      -8.407  -7.722   6.395  0.00  0.00    +0.124 A 
ATOM     38  C   UNL     1      -6.664  -9.393   6.487  0.00  0.00    +0.004 A 
ATOM     39  C   UNL     1      -7.398  -8.450   5.766  0.00  0.00    +0.038 A 
ENDBRANCH  30  32
BRANCH  16   3
ATOM      3  O   UNL     1      -6.271 -11.347  20.377  0.00  0.00    -0.391 OA
ATOM     40  H   UNL     1      -6.003 -12.266  20.217  0.00  0.00    +0.210 HD
ENDBRANCH  16   3
BRANCH  13  21
ATOM     21  C   UNL     1      -5.698 -12.841  18.032  0.00  0.00    +0.165 C 
BRANCH  21   4
ATOM      4  O   UNL     1      -4.412 -13.057  18.571  0.00  0.00    -0.394 OA
ATOM     41  H   UNL     1      -3.888 -12.251  18.433  0.00  0.00    +0.209 HD
ENDBRANCH  21   4
ENDBRANCH  13  21
BRANCH  14  24
ATOM     24  C   UNL     1     -10.148 -10.270  14.902  0.00  0.00    +0.106 C 
BRANCH  24  25
ATOM      5  O   UNL     1     -11.559  -9.138  16.509  0.00  0.00    -0.276 OA
ATOM      9  N   UNL     1     -11.067  -8.105  14.485  0.00  0.00    -0.310 N 
ATOM     25  C   ACE A   0     -11.002  -9.133  15.415  0.00  0.00    +0.214 C 
ATOM     42  H   UNL     1     -10.564  -8.196  13.610  0.00  0.00    +0.149 HD
BRANCH   9  27
ATOM     27  CA  UNL     1     -11.817  -6.889  14.704  0.00  0.00    +0.098 C 
BRANCH  27  28
ATOM     28  CB  UNL     1     -12.367  -6.334  13.379  0.00  0.00    +0.027 C 
BRANCH  28  31
ATOM     31  CG  UNL     1     -12.794  -4.851  13.419  0.00  0.00    -0.015 C 
ATOM     33  CD1 UNL     1     -12.218  -4.043  12.255  0.00  0.00    +0.007 C 
ATOM     34  CD2 UNL     1     -14.323  -4.755  13.402  0.00  0.00    +0.007 C 
ENDBRANCH  28  31
ENDBRANCH  27  28
BRANCH  27  29
ATOM     29  C   UNL     1     -10.947  -5.862  15.437  0.00  0.00    +0.178 C 
BRANCH  29   6
ATOM      6  O   UNL     1     -11.083  -6.001  16.846  0.00  0.00    -0.393 OA
ATOM     44  H   UNL     1     -10.376  -5.483  17.266  0.00  0.00    +0.209 HD
ENDBRANCH  29   6
ENDBRANCH  27  29
ENDBRANCH   9  27
ENDBRANCH  24  25
ENDBRANCH  14  24
TORSDOF 11
ENDMDL
MODEL 6
REMARK VINA RESULT:      -6.1     23.283     25.855
REMARK  Name = 7135225
REMARK  15 active torsions:
REMARK  status: ('A' for Active; 'I' for Inactive)
REMARK    1  A    between atoms: O_3  and  C_16
REMARK    2  A    between atoms: O_4  and  C_21
REMARK    3  A    between atoms: O_6  and  C_29
REMARK    4  A    between atoms: N_9  and  CA_27
REMARK    5  A    between atoms: C_11  and  C_19
REMARK    6  A    between atoms: C_13  and  C_21
REMARK    7  A    between atoms: C_13  and  C_22
REMARK    8  A    between atoms: C_14  and  C_24
REMARK    9  A    between atoms: C_24  and  C_25
REMARK   10  A    between atoms: CA_27  and  CB_28
REMARK   11  A    between atoms: CA_27  and  C_29
REMARK   12  A    between atoms: CB_28  and  CG_31
REMARK   13  A    between atoms: C_30  and  C_32
REMARK   14  A    between atoms: CG_31  and  CD1_33
REMARK   15  A    between atoms: CG_31  and  CD2_34
REMARK                            x       y       z     vdW  Elec       q    Type
REMARK                         _______ _______ _______ _____ _____    ______ ____
ROOT
ATOM      1  S   UNL     1      19.646  -5.975  20.304  0.00  0.00    -0.057 S 
ATOM      7  O   UNL     1      21.778  -9.898  21.626  0.00  0.00    -0.270 OA
ATOM      8  N   UNL     1      20.394  -7.383  22.342  0.00  0.00    -0.229 NA
ATOM     10  N   UNL     1      20.907  -8.270  20.160  0.00  0.00    -0.261 N 
ATOM     11  C   UNL     1      19.237  -4.484  24.605  0.00  0.00    -0.019 C 
ATOM     12  C   UNL     1      18.088  -4.047  23.592  0.00  0.00    +0.011 C 
ATOM     13  C   UNL     1      17.280  -2.739  23.947  0.00  0.00    +0.021 C 
ATOM     14  C   UNL     1      19.604  -6.010  24.305  0.00  0.00    +0.054 C 
ATOM     15  C   UNL     1      18.706  -4.387  26.059  0.00  0.00    +0.010 C 
ATOM     16  C   UNL     1      16.867  -2.784  25.445  0.00  0.00    +0.123 C 
ATOM     17  C   UNL     1      18.582  -4.099  22.117  0.00  0.00    +0.049 C 
ATOM     18  C   UNL     1      18.037  -3.058  26.382  0.00  0.00    +0.032 C 
ATOM     19  C   UNL     1      20.511  -3.613  24.482  0.00  0.00    +0.012 C 
ATOM     20  C   UNL     1      19.776  -6.245  22.826  0.00  0.00    +0.058 A 
ATOM     22  C   UNL     1      15.972  -2.709  23.106  0.00  0.00    +0.016 C 
ATOM     23  C   UNL     1      19.294  -5.384  21.862  0.00  0.00    +0.015 A 
ATOM     26  C   UNL     1      20.390  -7.344  21.027  0.00  0.00    +0.165 A 
ATOM     30  C   UNL     1      21.558  -9.468  20.499  0.00  0.00    +0.250 C 
ATOM     43  H   UNL     1      20.741  -8.045  19.185  0.00  0.00    +0.157 HD
ENDROOT
BRANCH  30  32
ATOM      2  F   UNL     1      24.857 -10.680  17.178  0.00  0.00    -0.205 F 
ATOM     32  C   UNL     1      21.993 -10.304  19.348  0.00  0.00    +0.040 A 
ATOM     35  C   UNL     1      23.241 -10.086  18.804  0.00  0.00    +0.051 A 
ATOM     36  C   UNL     1      21.134 -11.267  18.864  0.00  0.00    +0.013 A 
ATOM     37  C   UNL     1      23.649 -10.870  17.726  0.00  0.00    +0.124 A 
ATOM     38  C   UNL     1      21.542 -12.051  17.786  0.00  0.00    +0.004 A 
ATOM     39  C   UNL     1      22.800 -11.853  17.216  0.00  0.00    +0.038 A 
ENDBRANCH  30  32
BRANCH  16   3
ATOM      3  O   UNL     1      16.246  -1.557  25.831  0.00  0.00    -0.391 OA
ATOM     40  H   UNL     1      16.447  -1.401  26.768  0.00  0.00    +0.210 HD
ENDBRANCH  16   3
BRANCH  13  21
ATOM     21  C   UNL     1      18.017  -1.422  23.616  0.00  0.00    +0.165 C 
BRANCH  21   4
ATOM      4  O   UNL     1      17.495  -0.929  22.402  0.00  0.00    -0.394 OA
ATOM     41  H   UNL     1      17.765   0.001  22.314  0.00  0.00    +0.209 HD
ENDBRANCH  21   4
ENDBRANCH  13  21
BRANCH  14  24
ATOM     24  C   UNL     1      20.801  -6.546  25.102  0.00  0.00    +0.106 C 
BRANCH  24  25
ATOM      5  O   UNL     1      21.134  -8.850  25.762  0.00  0.00    -0.276 OA
ATOM      9  N   UNL     1      19.314  -7.669  26.596  0.00  0.00    -0.310 N 
ATOM     25  C   ACE A   0      20.466  -7.823  25.838  0.00  0.00    +0.214 C 
ATOM     42  H   UNL     1      18.837  -6.775  26.596  0.00  0.00    +0.149 HD
BRANCH   9  27
ATOM     27  CA  UNL     1      18.753  -8.728  27.404  0.00  0.00    +0.098 C 
BRANCH  27  28
ATOM     28  CB  UNL     1      17.221  -8.607  27.486  0.00  0.00    +0.027 C 
BRANCH  28  31
ATOM     31  CG  UNL     1      16.555  -7.905  26.284  0.00  0.00    -0.015 C 
ATOM     33  CD1 UNL     1      15.544  -8.801  25.567  0.00  0.00    +0.007 C 
ATOM     34  CD2 UNL     1      15.862  -6.623  26.755  0.00  0.00    +0.007 C 
ENDBRANCH  28  31
ENDBRANCH  27  28
BRANCH  27  29
ATOM     29  C   UNL     1      19.402  -8.727  28.792  0.00  0.00    +0.178 C 
BRANCH  29   6
ATOM      6  O   UNL     1      20.610  -9.477  28.784  0.00  0.00    -0.393 OA
ATOM     44  H   UNL     1      21.341  -8.863  28.606  0.00  0.00    +0.209 HD
ENDBRANCH  29   6
ENDBRANCH  27  29
ENDBRANCH   9  27
ENDBRANCH  24  25
ENDBRANCH  14  24
TORSDOF 11
ENDMDL
MODEL 7
REMARK VINA RESULT:      -6.1      5.131     10.914
REMARK  Name = 7135225
REMARK  15 active torsions:
REMARK  status: ('A' for Active; 'I' for Inactive)
REMARK    1  A    between atoms: O_3  and  C_16
REMARK    2  A    between atoms: O_4  and  C_21
REMARK    3  A    between atoms: O_6  and  C_29
REMARK    4  A    between atoms: N_9  and  CA_27
REMARK    5  A    between atoms: C_11  and  C_19
REMARK    6  A    between atoms: C_13  and  C_21
REMARK    7  A    between atoms: C_13  and  C_22
REMARK    8  A    between atoms: C_14  and  C_24
REMARK    9  A    between atoms: C_24  and  C_25
REMARK   10  A    between atoms: CA_27  and  CB_28
REMARK   11  A    between atoms: CA_27  and  C_29
REMARK   12  A    between atoms: CB_28  and  CG_31
REMARK   13  A    between atoms: C_30  and  C_32
REMARK   14  A    between atoms: CG_31  and  CD1_33
REMARK   15  A    between atoms: CG_31  and  CD2_34
REMARK                            x       y       z     vdW  Elec       q    Type
REMARK                         _______ _______ _______ _____ _____    ______ ____
ROOT
ATOM      1  S   UNL     1       9.583   8.105  -0.016  0.00  0.00    -0.057 S 
ATOM      7  O   UNL     1      12.323   6.309   3.293  0.00  0.00    -0.270 OA
ATOM      8  N   UNL     1       9.910   7.845   2.537  0.00  0.00    -0.229 NA
ATOM     10  N   UNL     1      11.574   6.830   1.119  0.00  0.00    -0.261 N 
ATOM     11  C   UNL     1       6.899  10.202   3.032  0.00  0.00    -0.019 C 
ATOM     12  C   UNL     1       6.198   9.718   1.686  0.00  0.00    +0.011 C 
ATOM     13  C   UNL     1       4.878  10.467   1.257  0.00  0.00    +0.021 C 
ATOM     14  C   UNL     1       7.918   9.062   3.495  0.00  0.00    +0.054 C 
ATOM     15  C   UNL     1       5.827  10.376   4.139  0.00  0.00    +0.010 C 
ATOM     16  C   UNL     1       3.939  10.595   2.489  0.00  0.00    +0.123 C 
ATOM     17  C   UNL     1       7.232   9.557   0.534  0.00  0.00    +0.049 C 
ATOM     18  C   UNL     1       4.625  11.205   3.706  0.00  0.00    +0.032 C 
ATOM     19  C   UNL     1       7.662  11.539   2.865  0.00  0.00    +0.012 C 
ATOM     20  C   UNL     1       8.759   8.585   2.338  0.00  0.00    +0.058 A 
ATOM     22  C   UNL     1       4.132   9.610   0.195  0.00  0.00    +0.016 C 
ATOM     23  C   UNL     1       8.423   8.802   1.018  0.00  0.00    +0.015 A 
ATOM     26  C   UNL     1      10.432   7.544   1.368  0.00  0.00    +0.165 A 
ATOM     30  C   UNL     1      12.437   6.265   2.073  0.00  0.00    +0.250 C 
ATOM     43  H   UNL     1      11.750   6.685   0.131  0.00  0.00    +0.157 HD
ENDROOT
BRANCH  30  32
ATOM      2  F   UNL     1      16.617   6.147  -0.357  0.00  0.00    -0.205 F 
ATOM     32  C   UNL     1      13.594   5.513   1.518  0.00  0.00    +0.040 A 
ATOM     35  C   UNL     1      14.570   6.205   0.833  0.00  0.00    +0.051 A 
ATOM     36  C   UNL     1      13.651   4.148   1.706  0.00  0.00    +0.013 A 
ATOM     37  C   UNL     1      15.655   5.499   0.313  0.00  0.00    +0.124 A 
ATOM     38  C   UNL     1      14.735   3.442   1.187  0.00  0.00    +0.004 A 
ATOM     39  C   UNL     1      15.737   4.118   0.490  0.00  0.00    +0.038 A 
ENDBRANCH  30  32
BRANCH  16   3
ATOM      3  O   UNL     1       2.791  11.381   2.167  0.00  0.00    -0.391 OA
ATOM     40  H   UNL     1       2.037  10.780   2.058  0.00  0.00    +0.210 HD
ENDBRANCH  16   3
BRANCH  13  21
ATOM     21  C   UNL     1       5.109  11.842   0.593  0.00  0.00    +0.165 C 
BRANCH  21   4
ATOM      4  O   UNL     1       4.109  12.022  -0.385  0.00  0.00    -0.394 OA
ATOM     41  H   UNL     1       4.344  12.802  -0.915  0.00  0.00    +0.209 HD
ENDBRANCH  21   4
ENDBRANCH  13  21
BRANCH  14  24
ATOM     24  C   UNL     1       8.787   9.435   4.704  0.00  0.00    +0.106 C 
BRANCH  24  25
ATOM      5  O   UNL     1       7.883   8.215   6.588  0.00  0.00    -0.276 OA
ATOM      9  N   UNL     1       9.915   7.562   5.666  0.00  0.00    -0.310 N 
ATOM     25  C   ACE A   0       8.780   8.355   5.762  0.00  0.00    +0.214 C 
ATOM     42  H   UNL     1      10.596   7.758   4.942  0.00  0.00    +0.149 HD
BRANCH   9  27
ATOM     27  CA  UNL     1      10.178   6.451   6.552  0.00  0.00    +0.098 C 
BRANCH  27  28
ATOM     28  CB  UNL     1      11.550   6.601   7.232  0.00  0.00    +0.027 C 
BRANCH  28  31
ATOM     31  CG  UNL     1      12.516   7.588   6.544  0.00  0.00    -0.015 C 
ATOM     33  CD1 UNL     1      12.483   8.980   7.177  0.00  0.00    +0.007 C 
ATOM     34  CD2 UNL     1      13.943   7.035   6.598  0.00  0.00    +0.007 C 
ENDBRANCH  28  31
ENDBRANCH  27  28
BRANCH  27  29
ATOM     29  C   UNL     1      10.062   5.130   5.784  0.00  0.00    +0.178 C 
BRANCH  29   6
ATOM      6  O   UNL     1       9.905   5.369   4.391  0.00  0.00    -0.393 OA
ATOM     44  H   UNL     1      10.594   4.869   3.922  0.00  0.00    +0.209 HD
ENDBRANCH  29   6
ENDBRANCH  27  29
ENDBRANCH   9  27
ENDBRANCH  24  25
ENDBRANCH  14  24
TORSDOF 11
ENDMDL
MODEL 8
REMARK VINA RESULT:      -6.0      6.962      9.207
REMARK  Name = 7135225
REMARK  15 active torsions:
REMARK  status: ('A' for Active; 'I' for Inactive)
REMARK    1  A    between atoms: O_3  and  C_16
REMARK    2  A    between atoms: O_4  and  C_21
REMARK    3  A    between atoms: O_6  and  C_29
REMARK    4  A    between atoms: N_9  and  CA_27
REMARK    5  A    between atoms: C_11  and  C_19
REMARK    6  A    between atoms: C_13  and  C_21
REMARK    7  A    between atoms: C_13  and  C_22
REMARK    8  A    between atoms: C_14  and  C_24
REMARK    9  A    between atoms: C_24  and  C_25
REMARK   10  A    between atoms: CA_27  and  CB_28
REMARK   11  A    between atoms: CA_27  and  C_29
REMARK   12  A    between atoms: CB_28  and  CG_31
REMARK   13  A    between atoms: C_30  and  C_32
REMARK   14  A    between atoms: CG_31  and  CD1_33
REMARK   15  A    between atoms: CG_31  and  CD2_34
REMARK                            x       y       z     vdW  Elec       q    Type
REMARK                         _______ _______ _______ _____ _____    ______ ____
ROOT
ATOM      1  S   UNL     1      11.192   3.940   2.155  0.00  0.00    -0.057 S 
ATOM      7  O   UNL     1       8.946   7.442   4.244  0.00  0.00    -0.270 OA
ATOM      8  N   UNL     1       9.939   6.169   1.765  0.00  0.00    -0.229 NA
ATOM     10  N   UNL     1      10.142   5.421   4.047  0.00  0.00    -0.261 N 
ATOM     11  C   UNL     1      10.927   5.924  -1.954  0.00  0.00    -0.019 C 
ATOM     12  C   UNL     1      10.911   4.332  -1.935  0.00  0.00    +0.011 C 
ATOM     13  C   UNL     1      11.383   3.596  -3.247  0.00  0.00    +0.021 C 
ATOM     14  C   UNL     1      10.023   6.441  -0.741  0.00  0.00    +0.054 C 
ATOM     15  C   UNL     1      10.300   6.430  -3.279  0.00  0.00    +0.010 C 
ATOM     16  C   UNL     1      10.698   4.254  -4.478  0.00  0.00    +0.123 C 
ATOM     17  C   UNL     1      11.558   3.773  -0.634  0.00  0.00    +0.049 C 
ATOM     18  C   UNL     1      10.874   5.768  -4.524  0.00  0.00    +0.032 C 
ATOM     19  C   UNL     1      12.353   6.513  -1.821  0.00  0.00    +0.012 C 
ATOM     20  C   UNL     1      10.349   5.701   0.530  0.00  0.00    +0.058 A 
ATOM     22  C   UNL     1      10.912   2.114  -3.194  0.00  0.00    +0.016 C 
ATOM     23  C   UNL     1      11.022   4.497   0.555  0.00  0.00    +0.015 A 
ATOM     26  C   UNL     1      10.335   5.327   2.695  0.00  0.00    +0.165 A 
ATOM     30  C   UNL     1       9.475   6.449   4.732  0.00  0.00    +0.250 C 
ATOM     43  H   UNL     1      10.498   4.621   4.561  0.00  0.00    +0.157 HD
ENDROOT
BRANCH  30  32
ATOM      2  F   UNL     1       9.931   3.717   8.696  0.00  0.00    -0.205 F 
ATOM     32  C   UNL     1       9.386   6.279   6.207  0.00  0.00    +0.040 A 
ATOM     35  C   UNL     1       9.707   5.055   6.755  0.00  0.00    +0.051 A 
ATOM     36  C   UNL     1       8.985   7.350   6.977  0.00  0.00    +0.013 A 
ATOM     37  C   UNL     1       9.625   4.896   8.138  0.00  0.00    +0.124 A 
ATOM     38  C   UNL     1       8.903   7.191   8.360  0.00  0.00    +0.004 A 
ATOM     39  C   UNL     1       9.223   5.964   8.940  0.00  0.00    +0.038 A 
ENDBRANCH  30  32
BRANCH  16   3
ATOM      3  O   UNL     1      11.202   3.696  -5.692  0.00  0.00    -0.391 OA
ATOM     40  H   UNL     1      11.628   2.850  -5.479  0.00  0.00    +0.210 HD
ENDBRANCH  16   3
BRANCH  13  21
ATOM     21  C   UNL     1      12.915   3.537  -3.433  0.00  0.00    +0.165 C 
BRANCH  21   4
ATOM      4  O   UNL     1      13.210   2.413  -4.232  0.00  0.00    -0.394 OA
ATOM     41  H   UNL     1      14.174   2.376  -4.356  0.00  0.00    +0.209 HD
ENDBRANCH  21   4
ENDBRANCH  13  21
BRANCH  14  24
ATOM     24  C   UNL     1      10.049   7.961  -0.529  0.00  0.00    +0.106 C 
BRANCH  24  25
ATOM      5  O   UNL     1       8.091   9.025   0.413  0.00  0.00    -0.276 OA
ATOM      9  N   UNL     1       8.140   8.514  -1.854  0.00  0.00    -0.310 N 
ATOM     25  C   ACE A   0       8.663   8.562  -0.570  0.00  0.00    +0.214 C 
ATOM     42  H   UNL     1       8.697   8.115  -2.601  0.00  0.00    +0.149 HD
BRANCH   9  27
ATOM     27  CA  UNL     1       6.827   9.015  -2.191  0.00  0.00    +0.098 C 
BRANCH  27  28
ATOM     28  CB  UNL     1       6.438   8.621  -3.627  0.00  0.00    +0.027 C 
BRANCH  28  31
ATOM     31  CG  UNL     1       5.690   7.277  -3.755  0.00  0.00    -0.015 C 
ATOM     33  CD1 UNL     1       6.636   6.102  -4.011  0.00  0.00    +0.007 C 
ATOM     34  CD2 UNL     1       4.879   7.015  -2.483  0.00  0.00    +0.007 C 
ENDBRANCH  28  31
ENDBRANCH  27  28
BRANCH  27  29
ATOM     29  C   UNL     1       6.777  10.533  -1.982  0.00  0.00    +0.178 C 
BRANCH  29   6
ATOM      6  O   UNL     1       5.969  10.860  -0.858  0.00  0.00    -0.393 OA
ATOM     44  H   UNL     1       5.212  10.251  -0.847  0.00  0.00    +0.209 HD
ENDBRANCH  29   6
ENDBRANCH  27  29
ENDBRANCH   9  27
ENDBRANCH  24  25
ENDBRANCH  14  24
TORSDOF 11
ENDMDL
MODEL 9
REMARK VINA RESULT:      -5.9     32.872     36.551
REMARK  Name = 7135225
REMARK  15 active torsions:
REMARK  status: ('A' for Active; 'I' for Inactive)
REMARK    1  A    between atoms: O_3  and  C_16
REMARK    2  A    between atoms: O_4  and  C_21
REMARK    3  A    between atoms: O_6  and  C_29
REMARK    4  A    between atoms: N_9  and  CA_27
REMARK    5  A    between atoms: C_11  and  C_19
REMARK    6  A    between atoms: C_13  and  C_21
REMARK    7  A    between atoms: C_13  and  C_22
REMARK    8  A    between atoms: C_14  and  C_24
REMARK    9  A    between atoms: C_24  and  C_25
REMARK   10  A    between atoms: CA_27  and  CB_28
REMARK   11  A    between atoms: CA_27  and  C_29
REMARK   12  A    between atoms: CB_28  and  CG_31
REMARK   13  A    between atoms: C_30  and  C_32
REMARK   14  A    between atoms: CG_31  and  CD1_33
REMARK   15  A    between atoms: CG_31  and  CD2_34
REMARK                            x       y       z     vdW  Elec       q    Type
REMARK                         _______ _______ _______ _____ _____    ______ ____
ROOT
ATOM      1  S   UNL     1       9.566  -4.091  36.697  0.00  0.00    -0.057 S 
ATOM      7  O   UNL     1       9.656  -7.296  33.320  0.00  0.00    -0.270 OA
ATOM      8  N   UNL     1       8.376  -6.181  35.744  0.00  0.00    -0.229 NA
ATOM     10  N   UNL     1      10.338  -5.417  34.570  0.00  0.00    -0.261 N 
ATOM     11  C   UNL     1       6.063  -6.109  38.827  0.00  0.00    -0.019 C 
ATOM     12  C   UNL     1       6.150  -4.525  38.955  0.00  0.00    +0.011 C 
ATOM     13  C   UNL     1       5.443  -3.866  40.201  0.00  0.00    +0.021 C 
ATOM     14  C   UNL     1       6.438  -6.505  37.325  0.00  0.00    +0.054 C 
ATOM     15  C   UNL     1       4.608  -6.570  39.104  0.00  0.00    +0.010 C 
ATOM     16  C   UNL     1       4.019  -4.470  40.360  0.00  0.00    +0.123 C 
ATOM     17  C   UNL     1       7.601  -4.015  38.714  0.00  0.00    +0.049 C 
ATOM     18  C   UNL     1       4.013  -5.995  40.382  0.00  0.00    +0.032 C 
ATOM     19  C   UNL     1       7.011  -6.845  39.806  0.00  0.00    +0.012 C 
ATOM     20  C   UNL     1       7.678  -5.781  36.868  0.00  0.00    +0.058 A 
ATOM     22  C   UNL     1       5.272  -2.342  39.941  0.00  0.00    +0.016 C 
ATOM     23  C   UNL     1       8.172  -4.655  37.495  0.00  0.00    +0.015 A 
ATOM     26  C   UNL     1       9.395  -5.369  35.562  0.00  0.00    +0.165 A 
ATOM     30  C   UNL     1      10.415  -6.356  33.528  0.00  0.00    +0.250 C 
ATOM     43  H   UNL     1      11.003  -4.651  34.609  0.00  0.00    +0.157 HD
ENDROOT
BRANCH  30  32
ATOM      2  F   UNL     1      14.303  -3.891  32.047  0.00  0.00    -0.205 F 
ATOM     32  C   UNL     1      11.533  -6.151  32.568  0.00  0.00    +0.040 A 
ATOM     35  C   UNL     1      12.399  -5.098  32.772  0.00  0.00    +0.051 A 
ATOM     36  C   UNL     1      11.663  -7.019  31.506  0.00  0.00    +0.013 A 
ATOM     37  C   UNL     1      13.447  -4.907  31.872  0.00  0.00    +0.124 A 
ATOM     38  C   UNL     1      12.711  -6.828  30.605  0.00  0.00    +0.004 A 
ATOM     39  C   UNL     1      13.603  -5.771  30.789  0.00  0.00    +0.038 A 
ENDBRANCH  30  32
BRANCH  16   3
ATOM      3  O   UNL     1       3.400  -3.991  41.554  0.00  0.00    -0.391 OA
ATOM     40  H   UNL     1       3.975  -3.309  41.937  0.00  0.00    +0.210 HD
ENDBRANCH  16   3
BRANCH  13  21
ATOM     21  C   UNL     1       6.239  -3.975  41.521  0.00  0.00    +0.165 C 
BRANCH  21   4
ATOM      4  O   UNL     1       6.578  -2.668  41.929  0.00  0.00    -0.394 OA
ATOM     41  H   UNL     1       5.823  -2.087  41.737  0.00  0.00    +0.209 HD
ENDBRANCH  21   4
ENDBRANCH  13  21
BRANCH  14  24
ATOM     24  C   UNL     1       6.543  -8.015  37.071  0.00  0.00    +0.106 C 
BRANCH  24  25
ATOM      5  O   UNL     1       4.679  -8.864  35.783  0.00  0.00    -0.276 OA
ATOM      9  N   UNL     1       6.638  -8.247  34.695  0.00  0.00    -0.310 N 
ATOM     25  C   ACE A   0       5.825  -8.427  35.806  0.00  0.00    +0.214 C 
ATOM     42  H   UNL     1       7.571  -7.873  34.820  0.00  0.00    +0.149 HD
BRANCH   9  27
ATOM     27  CA  UNL     1       6.215  -8.560  33.349  0.00  0.00    +0.098 C 
BRANCH  27  28
ATOM     28  CB  UNL     1       7.076  -9.686  32.749  0.00  0.00    +0.027 C 
BRANCH  28  31
ATOM     31  CG  UNL     1       6.418 -10.465  31.590  0.00  0.00    -0.015 C 
ATOM     33  CD1 UNL     1       7.118 -10.227  30.252  0.00  0.00    +0.007 C 
ATOM     34  CD2 UNL     1       6.417 -11.962  31.911  0.00  0.00    +0.007 C 
ENDBRANCH  28  31
ENDBRANCH  27  28
BRANCH  27  29
ATOM     29  C   UNL     1       6.243  -7.296  32.483  0.00  0.00    +0.178 C 
BRANCH  29   6
ATOM      6  O   UNL     1       6.756  -6.192  33.219  0.00  0.00    -0.393 OA
ATOM     44  H   UNL     1       7.433  -6.529  33.829  0.00  0.00    +0.209 HD
ENDBRANCH  29   6
ENDBRANCH  27  29
ENDBRANCH   9  27
ENDBRANCH  24  25
ENDBRANCH  14  24
TORSDOF 11
ENDMDL
MODEL 10
REMARK VINA RESULT:      -5.9     30.954     35.041
REMARK  Name = 7135225
REMARK  15 active torsions:
REMARK  status: ('A' for Active; 'I' for Inactive)
REMARK    1  A    between atoms: O_3  and  C_16
REMARK    2  A    between atoms: O_4  and  C_21
REMARK    3  A    between atoms: O_6  and  C_29
REMARK    4  A    between atoms: N_9  and  CA_27
REMARK    5  A    between atoms: C_11  and  C_19
REMARK    6  A    between atoms: C_13  and  C_21
REMARK    7  A    between atoms: C_13  and  C_22
REMARK    8  A    between atoms: C_14  and  C_24
REMARK    9  A    between atoms: C_24  and  C_25
REMARK   10  A    between atoms: CA_27  and  CB_28
REMARK   11  A    between atoms: CA_27  and  C_29
REMARK   12  A    between atoms: CB_28  and  CG_31
REMARK   13  A    between atoms: C_30  and  C_32
REMARK   14  A    between atoms: CG_31  and  CD1_33
REMARK   15  A    between atoms: CG_31  and  CD2_34
REMARK                            x       y       z     vdW  Elec       q    Type
REMARK                         _______ _______ _______ _____ _____    ______ ____
ROOT
ATOM      1  S   UNL     1     -11.745 -10.470  18.849  0.00  0.00    -0.057 S 
ATOM      7  O   UNL     1      -7.929  -8.993  16.628  0.00  0.00    -0.270 OA
ATOM      8  N   UNL     1     -10.865  -8.914  16.979  0.00  0.00    -0.229 NA
ATOM     10  N   UNL     1      -9.224 -10.210  18.177  0.00  0.00    -0.261 N 
ATOM     11  C   UNL     1     -14.533  -8.147  16.071  0.00  0.00    -0.019 C 
ATOM     12  C   UNL     1     -15.027  -8.336  17.572  0.00  0.00    +0.011 C 
ATOM     13  C   UNL     1     -16.581  -8.254  17.831  0.00  0.00    +0.021 C 
ATOM     14  C   UNL     1     -12.967  -7.829  16.103  0.00  0.00    +0.054 C 
ATOM     15  C   UNL     1     -15.264  -6.935  15.436  0.00  0.00    +0.010 C 
ATOM     16  C   UNL     1     -17.158  -7.015  17.090  0.00  0.00    +0.123 C 
ATOM     17  C   UNL     1     -14.343  -9.562  18.245  0.00  0.00    +0.049 C 
ATOM     18  C   UNL     1     -16.776  -6.965  15.615  0.00  0.00    +0.032 C 
ATOM     19  C   UNL     1     -14.787  -9.396  15.192  0.00  0.00    +0.012 C 
ATOM     20  C   UNL     1     -12.241  -8.778  17.020  0.00  0.00    +0.058 A 
ATOM     22  C   UNL     1     -16.832  -8.042  19.351  0.00  0.00    +0.016 C 
ATOM     23  C   UNL     1     -12.875  -9.532  17.986  0.00  0.00    +0.015 A 
ATOM     26  C   UNL     1     -10.494  -9.784  17.892  0.00  0.00    +0.165 A 
ATOM     30  C   UNL     1      -8.038  -9.801  17.543  0.00  0.00    +0.250 C 
ATOM     43  H   UNL     1      -9.181 -10.853  18.960  0.00  0.00    +0.157 HD
ENDROOT
BRANCH  30  32
ATOM      2  F   UNL     1      -3.386 -11.015  17.029  0.00  0.00    -0.205 F 
ATOM     32  C   UNL     1      -6.789 -10.406  18.078  0.00  0.00    +0.040 A 
ATOM     35  C   UNL     1      -5.664 -10.420  17.281  0.00  0.00    +0.051 A 
ATOM     36  C   UNL     1      -6.798 -10.932  19.352  0.00  0.00    +0.013 A 
ATOM     37  C   UNL     1      -4.493 -10.987  17.783  0.00  0.00    +0.124 A 
ATOM     38  C   UNL     1      -5.627 -11.498  19.854  0.00  0.00    +0.004 A 
ATOM     39  C   UNL     1      -4.474 -11.526  19.069  0.00  0.00    +0.038 A 
ENDBRANCH  30  32
BRANCH  16   3
ATOM      3  O   UNL     1     -18.582  -6.984  17.197  0.00  0.00    -0.391 OA
ATOM     40  H   UNL     1     -18.951  -7.002  16.299  0.00  0.00    +0.210 HD
ENDBRANCH  16   3
BRANCH  13  21
ATOM     21  C   UNL     1     -17.361  -9.534  17.456  0.00  0.00    +0.165 C 
BRANCH  21   4
ATOM      4  O   UNL     1     -18.442  -9.658  18.353  0.00  0.00    -0.394 OA
ATOM     41  H   UNL     1     -18.885 -10.505  18.176  0.00  0.00    +0.209 HD
ENDBRANCH  21   4
ENDBRANCH  13  21
BRANCH  14  24
ATOM     24  C   UNL     1     -12.302  -7.761  14.722  0.00  0.00    +0.106 C 
BRANCH  24  25
ATOM      5  O   UNL     1     -11.479  -5.509  15.048  0.00  0.00    -0.276 OA
ATOM      9  N   UNL     1     -12.387  -6.113  12.995  0.00  0.00    -0.310 N 
ATOM     25  C   ACE A   0     -11.998  -6.339  14.308  0.00  0.00    +0.214 C 
ATOM     42  H   UNL     1     -12.804  -6.869  12.465  0.00  0.00    +0.149 HD
BRANCH   9  27
ATOM     27  CA  UNL     1     -12.221  -4.840  12.332  0.00  0.00    +0.098 C 
BRANCH  27  28
ATOM     28  CB  UNL     1     -13.427  -3.919  12.595  0.00  0.00    +0.027 C 
BRANCH  28  31
ATOM     31  CG  UNL     1     -14.623  -4.120  11.642  0.00  0.00    -0.015 C 
ATOM     33  CD1 UNL     1     -15.623  -5.154  12.164  0.00  0.00    +0.007 C 
ATOM     34  CD2 UNL     1     -15.336  -2.783  11.420  0.00  0.00    +0.007 C 
ENDBRANCH  28  31
ENDBRANCH  27  28
BRANCH  27  29
ATOM     29  C   UNL     1     -11.985  -5.056  10.833  0.00  0.00    +0.178 C 
BRANCH  29   6
ATOM      6  O   UNL     1     -11.447  -3.885  10.234  0.00  0.00    -0.393 OA
ATOM     44  H   UNL     1     -10.787  -3.514  10.842  0.00  0.00    +0.209 HD
ENDBRANCH  29   6
ENDBRANCH  27  29
ENDBRANCH   9  27
ENDBRANCH  24  25
ENDBRANCH  14  24
TORSDOF 11
ENDMDL
