MODEL 1
REMARK VINA RESULT:      -7.7      0.000      0.000
REMARK  Name = 7663812
REMARK  8 active torsions:
REMARK  status: ('A' for Active; 'I' for Inactive)
REMARK    1  A    between atoms: O_5  and  C_28
REMARK    2  A    between atoms: O_5  and  C_32
REMARK    3  A    between atoms: N_9  and  C_23
REMARK    4  A    between atoms: C_10  and  C_17
REMARK    5  A    between atoms: C_15  and  C_21
REMARK    6  A    between atoms: C_22  and  C_24
REMARK    7  A    between atoms: C_23  and  C_25
REMARK    8  A    between atoms: C_23  and  C_28
REMARK                            x       y       z     vdW  Elec       q    Type
REMARK                         _______ _______ _______ _____ _____    ______ ____
ROOT
ATOM      2  O   UNL     1      16.272   5.718  19.117  0.00  0.00    -0.275 OA
ATOM      4  O   UNL     1      10.549   9.262  20.352  0.00  0.00    -0.270 OA
ATOM      7  N   UNL     1      15.049   7.299  20.307  0.00  0.00    -0.287 N 
ATOM      8  N   UNL     1      12.527   8.310  21.150  0.00  0.00    -0.294 N 
ATOM     15  C   UNL     1      13.884   7.181  19.419  0.00  0.00    +0.179 C 
ATOM     17  C   UNL     1      16.205   6.573  20.003  0.00  0.00    +0.219 C 
ATOM     18  C   UNL     1      14.968   8.322  21.367  0.00  0.00    +0.127 C 
ATOM     19  C   UNL     1      12.548   7.234  20.161  0.00  0.00    +0.140 C 
ATOM     20  C   UNL     1      13.638   8.265  22.105  0.00  0.00    +0.127 C 
ATOM     22  C   UNL     1      11.478   9.230  21.157  0.00  0.00    +0.247 C 
ENDROOT
BRANCH  22  24
ATOM      1  F   UNL     1      12.587  13.697  22.679  0.00  0.00    -0.205 F 
ATOM     24  C   UNL     1      11.475  10.267  22.195  0.00  0.00    +0.040 A 
ATOM     26  C   UNL     1      12.044  11.515  21.938  0.00  0.00    +0.051 A 
ATOM     27  C   UNL     1      10.901  10.006  23.440  0.00  0.00    +0.013 A 
ATOM     29  C   UNL     1      12.040  12.500  22.925  0.00  0.00    +0.124 A 
ATOM     30  C   UNL     1      10.897  10.991  24.427  0.00  0.00    +0.004 A 
ATOM     31  C   UNL     1      11.467  12.238  24.170  0.00  0.00    +0.038 A 
ENDBRANCH  22  24
BRANCH  17  10
ATOM     10  C   UNL     1      17.423   6.872  20.826  0.00  0.00    +0.075 C 
ATOM     11  C   UNL     1      17.735   8.369  20.771  0.00  0.00    +0.013 C 
ATOM     12  C   UNL     1      18.605   6.036  20.332  0.00  0.00    +0.013 C 
ATOM     13  C   UNL     1      19.023   8.705  21.519  0.00  0.00    +0.001 C 
ATOM     14  C   UNL     1      19.891   6.377  21.081  0.00  0.00    +0.001 C 
ATOM     16  C   UNL     1      20.197   7.870  21.020  0.00  0.00    +0.000 C 
ENDBRANCH  17  10
BRANCH  15  21
ATOM      3  O   UNL     1      14.990   9.018  18.364  0.00  0.00    -0.274 OA
ATOM      9  N   UNL     1      12.882   8.387  17.605  0.00  0.00    -0.301 N 
ATOM     21  C   UNL     1      14.001   8.291  18.413  0.00  0.00    +0.236 C 
ATOM     33  H   UNL     1      12.135   7.705  17.702  0.00  0.00    +0.150 HD
BRANCH   9  23
ATOM     23  C   UNL     1      12.735   9.387  16.573  0.00  0.00    +0.179 C 
ATOM     25  C   UNL     1      11.402   9.222  15.860  0.00  0.00    +0.040 C 
BRANCH  23  28
ATOM      6  O   UNL     1      14.212   8.310  14.995  0.00  0.00    -0.249 OA
ATOM     28  C   UNL     1      13.880   9.340  15.572  0.00  0.00    +0.327 C 
BRANCH  28   5
ATOM      5  O   UNL     1      14.466  10.558  15.400  0.00  0.00    -0.467 OA
ATOM     32  C   UNL     1      15.621  10.579  14.554  0.00  0.00    +0.280 C 
ENDBRANCH  28   5
ENDBRANCH  23  28
ENDBRANCH   9  23
ENDBRANCH  15  21
TORSDOF 6
ENDMDL
MODEL 2
REMARK VINA RESULT:      -7.1     26.919     29.079
REMARK  Name = 7663812
REMARK  8 active torsions:
REMARK  status: ('A' for Active; 'I' for Inactive)
REMARK    1  A    between atoms: O_5  and  C_28
REMARK    2  A    between atoms: O_5  and  C_32
REMARK    3  A    between atoms: N_9  and  C_23
REMARK    4  A    between atoms: C_10  and  C_17
REMARK    5  A    between atoms: C_15  and  C_21
REMARK    6  A    between atoms: C_22  and  C_24
REMARK    7  A    between atoms: C_23  and  C_25
REMARK    8  A    between atoms: C_23  and  C_28
REMARK                            x       y       z     vdW  Elec       q    Type
REMARK                         _______ _______ _______ _____ _____    ______ ____
ROOT
ATOM      2  O   UNL     1      -1.714 -10.654  11.913  0.00  0.00    -0.275 OA
ATOM      4  O   UNL     1      -3.989 -11.948  18.237  0.00  0.00    -0.270 OA
ATOM      7  N   UNL     1      -3.415 -10.833  13.490  0.00  0.00    -0.287 N 
ATOM      8  N   UNL     1      -4.235 -10.807  16.214  0.00  0.00    -0.294 N 
ATOM     15  C   UNL     1      -2.506 -11.338  14.529  0.00  0.00    +0.179 C 
ATOM     17  C   UNL     1      -2.911 -10.604  12.206  0.00  0.00    +0.219 C 
ATOM     18  C   UNL     1      -4.847 -10.773  13.840  0.00  0.00    +0.127 C 
ATOM     19  C   UNL     1      -2.804 -10.777  15.920  0.00  0.00    +0.140 C 
ATOM     20  C   UNL     1      -5.067 -10.140  15.208  0.00  0.00    +0.127 C 
ATOM     22  C   UNL     1      -4.692 -11.389  17.397  0.00  0.00    +0.247 C 
ENDROOT
BRANCH  22  24
ATOM      1  F   UNL     1      -9.168 -13.124  16.717  0.00  0.00    -0.205 F 
ATOM     24  C   UNL     1      -6.134 -11.358  17.672  0.00  0.00    +0.040 A 
ATOM     26  C   UNL     1      -6.983 -12.275  17.051  0.00  0.00    +0.051 A 
ATOM     27  C   UNL     1      -6.655 -10.412  18.554  0.00  0.00    +0.013 A 
ATOM     29  C   UNL     1      -8.353 -12.244  17.313  0.00  0.00    +0.124 A 
ATOM     30  C   UNL     1      -8.024 -10.381  18.816  0.00  0.00    +0.004 A 
ATOM     31  C   UNL     1      -8.873 -11.298  18.195  0.00  0.00    +0.038 A 
ENDBRANCH  22  24
BRANCH  17  10
ATOM     10  C   UNL     1      -3.912 -10.275  11.139  0.00  0.00    +0.075 C 
ATOM     11  C   UNL     1      -4.203 -11.518  10.294  0.00  0.00    +0.013 C 
ATOM     12  C   UNL     1      -3.396  -9.121  10.277  0.00  0.00    +0.013 C 
ATOM     13  C   UNL     1      -5.147 -11.206   9.136  0.00  0.00    +0.001 C 
ATOM     14  C   UNL     1      -4.342  -8.814   9.118  0.00  0.00    +0.001 C 
ATOM     16  C   UNL     1      -4.626 -10.056   8.280  0.00  0.00    +0.000 C 
ENDBRANCH  17  10
BRANCH  15  21
ATOM      3  O   UNL     1      -3.502 -13.430  15.114  0.00  0.00    -0.274 OA
ATOM      9  N   UNL     1      -1.618 -13.422  13.747  0.00  0.00    -0.301 N 
ATOM     21  C   UNL     1      -2.617 -12.835  14.502  0.00  0.00    +0.236 C 
ATOM     33  H   UNL     1      -0.959 -12.835  13.246  0.00  0.00    +0.150 HD
BRANCH   9  23
ATOM     23  C   UNL     1      -1.489 -14.852  13.581  0.00  0.00    +0.179 C 
ATOM     25  C   UNL     1      -0.035 -15.228  13.338  0.00  0.00    +0.040 C 
BRANCH  23  28
ATOM      6  O   UNL     1      -2.609 -14.714  11.446  0.00  0.00    -0.249 OA
ATOM     28  C   UNL     1      -2.365 -15.373  12.452  0.00  0.00    +0.327 C 
BRANCH  28   5
ATOM      5  O   UNL     1      -2.824 -16.633  12.694  0.00  0.00    -0.467 OA
ATOM     32  C   UNL     1      -3.479 -16.825  13.954  0.00  0.00    +0.280 C 
ENDBRANCH  28   5
ENDBRANCH  23  28
ENDBRANCH   9  23
ENDBRANCH  15  21
TORSDOF 6
ENDMDL
MODEL 3
REMARK VINA RESULT:      -7.1     13.149     16.799
REMARK  Name = 7663812
REMARK  8 active torsions:
REMARK  status: ('A' for Active; 'I' for Inactive)
REMARK    1  A    between atoms: O_5  and  C_28
REMARK    2  A    between atoms: O_5  and  C_32
REMARK    3  A    between atoms: N_9  and  C_23
REMARK    4  A    between atoms: C_10  and  C_17
REMARK    5  A    between atoms: C_15  and  C_21
REMARK    6  A    between atoms: C_22  and  C_24
REMARK    7  A    between atoms: C_23  and  C_25
REMARK    8  A    between atoms: C_23  and  C_28
REMARK                            x       y       z     vdW  Elec       q    Type
REMARK                         _______ _______ _______ _____ _____    ______ ____
ROOT
ATOM      2  O   UNL     1      14.184  10.247   6.602  0.00  0.00    -0.275 OA
ATOM      4  O   UNL     1       9.434   6.383   3.545  0.00  0.00    -0.270 OA
ATOM      7  N   UNL     1      13.510   8.703   4.997  0.00  0.00    -0.287 N 
ATOM      8  N   UNL     1      11.436   7.579   3.408  0.00  0.00    -0.294 N 
ATOM     15  C   UNL     1      12.143   8.627   5.532  0.00  0.00    +0.179 C 
ATOM     17  C   UNL     1      14.454   9.488   5.667  0.00  0.00    +0.219 C 
ATOM     18  C   UNL     1      13.831   7.796   3.879  0.00  0.00    +0.127 C 
ATOM     19  C   UNL     1      11.071   8.541   4.445  0.00  0.00    +0.140 C 
ATOM     20  C   UNL     1      12.751   7.818   2.806  0.00  0.00    +0.127 C 
ATOM     22  C   UNL     1      10.536   6.579   3.036  0.00  0.00    +0.247 C 
ENDROOT
BRANCH  22  24
ATOM      1  F   UNL     1      13.040   2.745   1.444  0.00  0.00    -0.205 F 
ATOM     24  C   UNL     1      10.927   5.662   1.959  0.00  0.00    +0.040 A 
ATOM     26  C   UNL     1      11.816   4.618   2.219  0.00  0.00    +0.051 A 
ATOM     27  C   UNL     1      10.410   5.833   0.675  0.00  0.00    +0.013 A 
ATOM     29  C   UNL     1      12.188   3.746   1.195  0.00  0.00    +0.124 A 
ATOM     30  C   UNL     1      10.781   4.961  -0.349  0.00  0.00    +0.004 A 
ATOM     31  C   UNL     1      11.670   3.918  -0.089  0.00  0.00    +0.038 A 
ENDBRANCH  22  24
BRANCH  17  10
ATOM     10  C   UNL     1      15.874   9.383   5.195  0.00  0.00    +0.075 C 
ATOM     11  C   UNL     1      16.720   8.658   6.245  0.00  0.00    +0.013 C 
ATOM     12  C   UNL     1      16.428  10.776   4.895  0.00  0.00    +0.013 C 
ATOM     13  C   UNL     1      18.192   8.611   5.848  0.00  0.00    +0.001 C 
ATOM     14  C   UNL     1      17.903  10.724   4.501  0.00  0.00    +0.001 C 
ATOM     16  C   UNL     1      18.740  10.003   5.552  0.00  0.00    +0.000 C 
ENDBRANCH  17  10
BRANCH  15  21
ATOM      3  O   UNL     1      13.098   7.061   7.064  0.00  0.00    -0.274 OA
ATOM      9  N   UNL     1      10.865   6.820   6.452  0.00  0.00    -0.301 N 
ATOM     21  C   UNL     1      12.107   7.431   6.439  0.00  0.00    +0.236 C 
ATOM     33  H   UNL     1      10.099   7.233   5.930  0.00  0.00    +0.150 HD
BRANCH   9  23
ATOM     23  C   UNL     1      10.576   5.635   7.227  0.00  0.00    +0.179 C 
ATOM     25  C   UNL     1       9.869   4.599   6.367  0.00  0.00    +0.040 C 
BRANCH  23  28
ATOM      6  O   UNL     1       8.861   6.805   8.461  0.00  0.00    -0.249 OA
ATOM     28  C   UNL     1       9.745   5.954   8.461  0.00  0.00    +0.327 C 
BRANCH  28   5
ATOM      5  O   UNL     1      10.094   5.187   9.531  0.00  0.00    -0.467 OA
ATOM     32  C   UNL     1       9.010   4.569  10.234  0.00  0.00    +0.280 C 
ENDBRANCH  28   5
ENDBRANCH  23  28
ENDBRANCH   9  23
ENDBRANCH  15  21
TORSDOF 6
ENDMDL
MODEL 4
REMARK VINA RESULT:      -7.1      2.788      7.394
REMARK  Name = 7663812
REMARK  8 active torsions:
REMARK  status: ('A' for Active; 'I' for Inactive)
REMARK    1  A    between atoms: O_5  and  C_28
REMARK    2  A    between atoms: O_5  and  C_32
REMARK    3  A    between atoms: N_9  and  C_23
REMARK    4  A    between atoms: C_10  and  C_17
REMARK    5  A    between atoms: C_15  and  C_21
REMARK    6  A    between atoms: C_22  and  C_24
REMARK    7  A    between atoms: C_23  and  C_25
REMARK    8  A    between atoms: C_23  and  C_28
REMARK                            x       y       z     vdW  Elec       q    Type
REMARK                         _______ _______ _______ _____ _____    ______ ____
ROOT
ATOM      2  O   UNL     1      12.985  11.510  24.937  0.00  0.00    -0.275 OA
ATOM      4  O   UNL     1      14.390   7.548  19.536  0.00  0.00    -0.270 OA
ATOM      7  N   UNL     1      12.889  11.022  22.664  0.00  0.00    -0.287 N 
ATOM      8  N   UNL     1      12.981   9.096  20.572  0.00  0.00    -0.294 N 
ATOM     15  C   UNL     1      13.748   9.837  22.802  0.00  0.00    +0.179 C 
ATOM     17  C   UNL     1      12.647  11.815  23.790  0.00  0.00    +0.219 C 
ATOM     18  C   UNL     1      12.485  11.385  21.293  0.00  0.00    +0.127 C 
ATOM     19  C   UNL     1      13.306   8.662  21.929  0.00  0.00    +0.140 C 
ATOM     20  C   UNL     1      11.992  10.176  20.510  0.00  0.00    +0.127 C 
ATOM     22  C   UNL     1      13.560   8.453  19.477  0.00  0.00    +0.247 C 
ENDROOT
BRANCH  22  24
ATOM      1  F   UNL     1      10.358   8.620  15.841  0.00  0.00    -0.205 F 
ATOM     24  C   UNL     1      13.171   8.893  18.132  0.00  0.00    +0.040 A 
ATOM     26  C   UNL     1      11.924   8.540  17.616  0.00  0.00    +0.051 A 
ATOM     27  C   UNL     1      14.048   9.664  17.370  0.00  0.00    +0.013 A 
ATOM     29  C   UNL     1      11.555   8.958  16.337  0.00  0.00    +0.124 A 
ATOM     30  C   UNL     1      13.679  10.083  16.092  0.00  0.00    +0.004 A 
ATOM     31  C   UNL     1      12.432   9.729  15.575  0.00  0.00    +0.038 A 
ENDBRANCH  22  24
BRANCH  17  10
ATOM     10  C   UNL     1      11.926  13.110  23.559  0.00  0.00    +0.075 C 
ATOM     11  C   UNL     1      12.676  14.254  24.246  0.00  0.00    +0.013 C 
ATOM     12  C   UNL     1      10.486  13.003  24.063  0.00  0.00    +0.013 C 
ATOM     13  C   UNL     1      11.927  15.577  24.116  0.00  0.00    +0.001 C 
ATOM     14  C   UNL     1       9.742  14.330  23.933  0.00  0.00    +0.001 C 
ATOM     16  C   UNL     1      10.493  15.465  24.622  0.00  0.00    +0.000 C 
ENDBRANCH  17  10
BRANCH  15  21
ATOM      3  O   UNL     1      15.480  11.460  22.528  0.00  0.00    -0.274 OA
ATOM      9  N   UNL     1      15.948   9.226  22.071  0.00  0.00    -0.301 N 
ATOM     21  C   UNL     1      15.143  10.280  22.465  0.00  0.00    +0.236 C 
ATOM     33  H   UNL     1      15.580   8.280  22.095  0.00  0.00    +0.150 HD
BRANCH   9  23
ATOM     23  C   UNL     1      17.326   9.391  21.672  0.00  0.00    +0.179 C 
ATOM     25  C   UNL     1      17.414  10.205  20.390  0.00  0.00    +0.040 C 
BRANCH  23  28
ATOM      6  O   UNL     1      19.172   7.850  21.896  0.00  0.00    -0.249 OA
ATOM     28  C   UNL     1      18.030   8.053  21.499  0.00  0.00    +0.327 C 
BRANCH  28   5
ATOM      5  O   UNL     1      17.244   7.135  20.870  0.00  0.00    -0.467 OA
ATOM     32  C   UNL     1      17.900   6.319  19.893  0.00  0.00    +0.280 C 
ENDBRANCH  28   5
ENDBRANCH  23  28
ENDBRANCH   9  23
ENDBRANCH  15  21
TORSDOF 6
ENDMDL
MODEL 5
REMARK VINA RESULT:      -6.9      2.918      6.936
REMARK  Name = 7663812
REMARK  8 active torsions:
REMARK  status: ('A' for Active; 'I' for Inactive)
REMARK    1  A    between atoms: O_5  and  C_28
REMARK    2  A    between atoms: O_5  and  C_32
REMARK    3  A    between atoms: N_9  and  C_23
REMARK    4  A    between atoms: C_10  and  C_17
REMARK    5  A    between atoms: C_15  and  C_21
REMARK    6  A    between atoms: C_22  and  C_24
REMARK    7  A    between atoms: C_23  and  C_25
REMARK    8  A    between atoms: C_23  and  C_28
REMARK                            x       y       z     vdW  Elec       q    Type
REMARK                         _______ _______ _______ _____ _____    ______ ____
ROOT
ATOM      2  O   UNL     1      14.725  11.108  24.557  0.00  0.00    -0.275 OA
ATOM      4  O   UNL     1      13.865   6.842  19.275  0.00  0.00    -0.270 OA
ATOM      7  N   UNL     1      14.008  10.629  22.396  0.00  0.00    -0.287 N 
ATOM      8  N   UNL     1      13.151   8.715  20.473  0.00  0.00    -0.294 N 
ATOM     15  C   UNL     1      14.555   9.265  22.433  0.00  0.00    +0.179 C 
ATOM     17  C   UNL     1      14.228  11.473  23.489  0.00  0.00    +0.219 C 
ATOM     18  C   UNL     1      13.412  11.065  21.119  0.00  0.00    +0.127 C 
ATOM     19  C   UNL     1      13.651   8.231  21.758  0.00  0.00    +0.140 C 
ATOM     20  C   UNL     1      12.473  10.013  20.546  0.00  0.00    +0.127 C 
ATOM     22  C   UNL     1      13.294   7.930  19.329  0.00  0.00    +0.247 C 
ENDROOT
BRANCH  22  24
ATOM      1  F   UNL     1      13.807  10.270  15.115  0.00  0.00    -0.205 F 
ATOM     24  C   UNL     1      12.737   8.436  18.069  0.00  0.00    +0.040 A 
ATOM     26  C   UNL     1      13.553   9.126  17.172  0.00  0.00    +0.051 A 
ATOM     27  C   UNL     1      11.392   8.225  17.766  0.00  0.00    +0.013 A 
ATOM     29  C   UNL     1      13.024   9.607  15.975  0.00  0.00    +0.124 A 
ATOM     30  C   UNL     1      10.863   8.705  16.568  0.00  0.00    +0.004 A 
ATOM     31  C   UNL     1      11.679   9.396  15.673  0.00  0.00    +0.038 A 
ENDBRANCH  22  24
BRANCH  17  10
ATOM     10  C   UNL     1      13.818  12.907  23.325  0.00  0.00    +0.075 C 
ATOM     11  C   UNL     1      14.883  13.826  23.929  0.00  0.00    +0.013 C 
ATOM     12  C   UNL     1      12.450  13.136  23.970  0.00  0.00    +0.013 C 
ATOM     13  C   UNL     1      14.463  15.292  23.868  0.00  0.00    +0.001 C 
ATOM     14  C   UNL     1      12.036  14.604  23.909  0.00  0.00    +0.001 C 
ATOM     16  C   UNL     1      13.100  15.514  24.514  0.00  0.00    +0.000 C 
ENDBRANCH  17  10
BRANCH  15  21
ATOM      3  O   UNL     1      16.419  10.398  21.459  0.00  0.00    -0.274 OA
ATOM      9  N   UNL     1      16.449   8.073  21.575  0.00  0.00    -0.301 N 
ATOM     21  C   UNL     1      15.905   9.329  21.778  0.00  0.00    +0.236 C 
ATOM     33  H   UNL     1      15.958   7.253  21.916  0.00  0.00    +0.150 HD
BRANCH   9  23
ATOM     23  C   UNL     1      17.730   7.861  20.941  0.00  0.00    +0.179 C 
ATOM     25  C   UNL     1      17.688   6.620  20.062  0.00  0.00    +0.040 C 
BRANCH  23  28
ATOM      6  O   UNL     1      19.319   6.672  22.318  0.00  0.00    -0.249 OA
ATOM     28  C   UNL     1      18.855   7.750  21.959  0.00  0.00    +0.327 C 
BRANCH  28   5
ATOM      5  O   UNL     1      19.273   8.969  22.402  0.00  0.00    -0.467 OA
ATOM     32  C   UNL     1      20.084   9.718  21.490  0.00  0.00    +0.280 C 
ENDBRANCH  28   5
ENDBRANCH  23  28
ENDBRANCH   9  23
ENDBRANCH  15  21
TORSDOF 6
ENDMDL
MODEL 6
REMARK VINA RESULT:      -6.8      2.749      6.994
REMARK  Name = 7663812
REMARK  8 active torsions:
REMARK  status: ('A' for Active; 'I' for Inactive)
REMARK    1  A    between atoms: O_5  and  C_28
REMARK    2  A    between atoms: O_5  and  C_32
REMARK    3  A    between atoms: N_9  and  C_23
REMARK    4  A    between atoms: C_10  and  C_17
REMARK    5  A    between atoms: C_15  and  C_21
REMARK    6  A    between atoms: C_22  and  C_24
REMARK    7  A    between atoms: C_23  and  C_25
REMARK    8  A    between atoms: C_23  and  C_28
REMARK                            x       y       z     vdW  Elec       q    Type
REMARK                         _______ _______ _______ _____ _____    ______ ____
ROOT
ATOM      2  O   UNL     1      10.635  13.235  21.955  0.00  0.00    -0.275 OA
ATOM      4  O   UNL     1      15.363   9.591  18.607  0.00  0.00    -0.270 OA
ATOM      7  N   UNL     1      12.619  12.022  21.873  0.00  0.00    -0.287 N 
ATOM      8  N   UNL     1      14.817  11.032  20.363  0.00  0.00    -0.294 N 
ATOM     15  C   UNL     1      12.426  11.653  20.463  0.00  0.00    +0.179 C 
ATOM     17  C   UNL     1      11.616  12.748  22.523  0.00  0.00    +0.219 C 
ATOM     18  C   UNL     1      13.791  11.440  22.552  0.00  0.00    +0.127 C 
ATOM     19  C   UNL     1      13.720  11.680  19.648  0.00  0.00    +0.140 C 
ATOM     20  C   UNL     1      15.052  11.566  21.707  0.00  0.00    +0.127 C 
ATOM     22  C   UNL     1      15.566  10.036  19.736  0.00  0.00    +0.247 C 
ENDROOT
BRANCH  22  24
ATOM      1  F   UNL     1      17.762   6.205  21.736  0.00  0.00    -0.205 F 
ATOM     24  C   UNL     1      16.687   9.444  20.476  0.00  0.00    +0.040 A 
ATOM     26  C   UNL     1      16.692   8.078  20.760  0.00  0.00    +0.051 A 
ATOM     27  C   UNL     1      17.748  10.246  20.895  0.00  0.00    +0.013 A 
ATOM     29  C   UNL     1      17.757   7.516  21.464  0.00  0.00    +0.124 A 
ATOM     30  C   UNL     1      18.814   9.685  21.597  0.00  0.00    +0.004 A 
ATOM     31  C   UNL     1      18.818   8.319  21.882  0.00  0.00    +0.038 A 
ENDBRANCH  22  24
BRANCH  17  10
ATOM     10  C   UNL     1      11.771  12.934  24.003  0.00  0.00    +0.075 C 
ATOM     11  C   UNL     1      10.416  13.266  24.632  0.00  0.00    +0.013 C 
ATOM     12  C   UNL     1      12.803  14.027  24.287  0.00  0.00    +0.013 C 
ATOM     13  C   UNL     1      10.543  13.556  26.125  0.00  0.00    +0.001 C 
ATOM     14  C   UNL     1      12.924  14.315  25.781  0.00  0.00    +0.001 C 
ATOM     16  C   UNL     1      11.571  14.648  26.402  0.00  0.00    +0.000 C 
ENDBRANCH  17  10
BRANCH  15  21
ATOM      3  O   UNL     1      10.960   9.960  21.295  0.00  0.00    -0.274 OA
ATOM      9  N   UNL     1      12.298   9.484  19.451  0.00  0.00    -0.301 N 
ATOM     21  C   UNL     1      11.801  10.288  20.461  0.00  0.00    +0.236 C 
ATOM     33  H   UNL     1      12.963   9.869  18.787  0.00  0.00    +0.150 HD
BRANCH   9  23
ATOM     23  C   UNL     1      11.876   8.117  19.249  0.00  0.00    +0.179 C 
ATOM     25  C   UNL     1      12.614   7.188  20.201  0.00  0.00    +0.040 C 
BRANCH  23  28
ATOM      6  O   UNL     1      13.173   7.331  17.369  0.00  0.00    -0.249 OA
ATOM     28  C   UNL     1      12.079   7.669  17.809  0.00  0.00    +0.327 C 
BRANCH  28   5
ATOM      5  O   UNL     1      10.918   7.684  17.095  0.00  0.00    -0.467 OA
ATOM     32  C   UNL     1      10.716   8.829  16.259  0.00  0.00    +0.280 C 
ENDBRANCH  28   5
ENDBRANCH  23  28
ENDBRANCH   9  23
ENDBRANCH  15  21
TORSDOF 6
ENDMDL
MODEL 7
REMARK VINA RESULT:      -6.7     28.028     30.255
REMARK  Name = 7663812
REMARK  8 active torsions:
REMARK  status: ('A' for Active; 'I' for Inactive)
REMARK    1  A    between atoms: O_5  and  C_28
REMARK    2  A    between atoms: O_5  and  C_32
REMARK    3  A    between atoms: N_9  and  C_23
REMARK    4  A    between atoms: C_10  and  C_17
REMARK    5  A    between atoms: C_15  and  C_21
REMARK    6  A    between atoms: C_22  and  C_24
REMARK    7  A    between atoms: C_23  and  C_25
REMARK    8  A    between atoms: C_23  and  C_28
REMARK                            x       y       z     vdW  Elec       q    Type
REMARK                         _______ _______ _______ _____ _____    ______ ____
ROOT
ATOM      2  O   UNL     1      -3.809 -12.053  18.398  0.00  0.00    -0.275 OA
ATOM      4  O   UNL     1     -10.442 -10.488  19.026  0.00  0.00    -0.270 OA
ATOM      7  N   UNL     1      -5.764 -11.040  17.644  0.00  0.00    -0.287 N 
ATOM      8  N   UNL     1      -8.322  -9.936  18.217  0.00  0.00    -0.294 N 
ATOM     15  C   UNL     1      -6.569 -11.598  18.740  0.00  0.00    +0.179 C 
ATOM     17  C   UNL     1      -4.418 -11.405  17.542  0.00  0.00    +0.219 C 
ATOM     18  C   UNL     1      -6.491 -10.266  16.621  0.00  0.00    +0.127 C 
ATOM     19  C   UNL     1      -7.604 -10.617  19.292  0.00  0.00    +0.140 C 
ATOM     20  C   UNL     1      -7.451  -9.264  17.248  0.00  0.00    +0.127 C 
ATOM     22  C   UNL     1      -9.717  -9.922  18.210  0.00  0.00    +0.247 C 
ENDROOT
BRANCH  22  24
ATOM      1  F   UNL     1     -11.458  -5.798  16.348  0.00  0.00    -0.205 F 
ATOM     24  C   UNL     1     -10.396  -9.187  17.136  0.00  0.00    +0.040 A 
ATOM     26  C   UNL     1     -10.609  -7.813  17.255  0.00  0.00    +0.051 A 
ATOM     27  C   UNL     1     -10.828  -9.863  15.995  0.00  0.00    +0.013 A 
ATOM     29  C   UNL     1     -11.254  -7.116  16.234  0.00  0.00    +0.124 A 
ATOM     30  C   UNL     1     -11.473  -9.166  14.973  0.00  0.00    +0.004 A 
ATOM     31  C   UNL     1     -11.686  -7.792  15.093  0.00  0.00    +0.038 A 
ENDBRANCH  22  24
BRANCH  17  10
ATOM     10  C   UNL     1      -3.693 -10.965  16.305  0.00  0.00    +0.075 C 
ATOM     11  C   UNL     1      -3.818 -12.034  15.217  0.00  0.00    +0.013 C 
ATOM     12  C   UNL     1      -2.228 -10.672  16.635  0.00  0.00    +0.013 C 
ATOM     13  C   UNL     1      -3.016 -11.669  13.972  0.00  0.00    +0.001 C 
ATOM     14  C   UNL     1      -1.429 -10.310  15.385  0.00  0.00    +0.001 C 
ATOM     16  C   UNL     1      -1.557 -11.381  14.306  0.00  0.00    +0.000 C 
ENDBRANCH  17  10
BRANCH  15  21
ATOM      3  O   UNL     1      -6.709 -13.496  17.295  0.00  0.00    -0.274 OA
ATOM      9  N   UNL     1      -8.421 -13.117  18.827  0.00  0.00    -0.301 N 
ATOM     21  C   UNL     1      -7.217 -12.841  18.202  0.00  0.00    +0.236 C 
ATOM     33  H   UNL     1      -8.730 -12.533  19.597  0.00  0.00    +0.150 HD
BRANCH   9  23
ATOM     23  C   UNL     1      -9.253 -14.245  18.476  0.00  0.00    +0.179 C 
ATOM     25  C   UNL     1     -10.572 -13.768  17.887  0.00  0.00    +0.040 C 
BRANCH  23  28
ATOM      6  O   UNL     1      -9.671 -16.366  19.553  0.00  0.00    -0.249 OA
ATOM     28  C   UNL     1      -9.505 -15.156  19.669  0.00  0.00    +0.327 C 
BRANCH  28   5
ATOM      5  O   UNL     1      -9.513 -14.472  20.848  0.00  0.00    -0.467 OA
ATOM     32  C   UNL     1      -8.961 -15.166  21.972  0.00  0.00    +0.280 C 
ENDBRANCH  28   5
ENDBRANCH  23  28
ENDBRANCH   9  23
ENDBRANCH  15  21
TORSDOF 6
ENDMDL
MODEL 8
REMARK VINA RESULT:      -6.6     15.232     18.230
REMARK  Name = 7663812
REMARK  8 active torsions:
REMARK  status: ('A' for Active; 'I' for Inactive)
REMARK    1  A    between atoms: O_5  and  C_28
REMARK    2  A    between atoms: O_5  and  C_32
REMARK    3  A    between atoms: N_9  and  C_23
REMARK    4  A    between atoms: C_10  and  C_17
REMARK    5  A    between atoms: C_15  and  C_21
REMARK    6  A    between atoms: C_22  and  C_24
REMARK    7  A    between atoms: C_23  and  C_25
REMARK    8  A    between atoms: C_23  and  C_28
REMARK                            x       y       z     vdW  Elec       q    Type
REMARK                         _______ _______ _______ _____ _____    ______ ____
ROOT
ATOM      2  O   UNL     1      16.938  -9.993  27.754  0.00  0.00    -0.275 OA
ATOM      4  O   UNL     1      18.006  -3.251  27.262  0.00  0.00    -0.270 OA
ATOM      7  N   UNL     1      16.956  -7.995  26.562  0.00  0.00    -0.287 N 
ATOM      8  N   UNL     1      17.951  -5.350  26.240  0.00  0.00    -0.294 N 
ATOM     15  C   UNL     1      17.305  -7.200  27.747  0.00  0.00    +0.179 C 
ATOM     17  C   UNL     1      16.725  -9.366  26.713  0.00  0.00    +0.219 C 
ATOM     18  C   UNL     1      16.701  -7.246  25.317  0.00  0.00    +0.127 C 
ATOM     19  C   UNL     1      18.307  -6.082  27.453  0.00  0.00    +0.140 C 
ATOM     20  C   UNL     1      17.777  -6.200  25.058  0.00  0.00    +0.127 C 
ATOM     22  C   UNL     1      17.859  -3.958  26.267  0.00  0.00    +0.247 C 
ENDROOT
BRANCH  22  24
ATOM      1  F   UNL     1      14.767  -2.870  22.694  0.00  0.00    -0.205 F 
ATOM     24  C   UNL     1      17.543  -3.261  25.014  0.00  0.00    +0.040 A 
ATOM     26  C   UNL     1      16.280  -3.400  24.438  0.00  0.00    +0.051 A 
ATOM     27  C   UNL     1      18.504  -2.460  24.401  0.00  0.00    +0.013 A 
ATOM     29  C   UNL     1      15.979  -2.737  23.248  0.00  0.00    +0.124 A 
ATOM     30  C   UNL     1      18.205  -1.796  23.211  0.00  0.00    +0.004 A 
ATOM     31  C   UNL     1      16.942  -1.935  22.634  0.00  0.00    +0.038 A 
ENDBRANCH  22  24
BRANCH  17  10
ATOM     10  C   UNL     1      16.188 -10.095  25.517  0.00  0.00    +0.075 C 
ATOM     11  C   UNL     1      14.661 -10.173  25.597  0.00  0.00    +0.013 C 
ATOM     12  C   UNL     1      16.815 -11.487  25.429  0.00  0.00    +0.013 C 
ATOM     13  C   UNL     1      14.077 -10.989  24.446  0.00  0.00    +0.001 C 
ATOM     14  C   UNL     1      16.226 -12.300  24.278  0.00  0.00    +0.001 C 
ATOM     16  C   UNL     1      14.705 -12.376  24.364  0.00  0.00    +0.000 C 
ENDBRANCH  17  10
BRANCH  15  21
ATOM      3  O   UNL     1      14.984  -6.646  27.623  0.00  0.00    -0.274 OA
ATOM      9  N   UNL     1      16.152  -6.171  29.579  0.00  0.00    -0.301 N 
ATOM     21  C   UNL     1      16.016  -6.656  28.291  0.00  0.00    +0.236 C 
ATOM     33  H   UNL     1      17.042  -6.266  30.058  0.00  0.00    +0.150 HD
BRANCH   9  23
ATOM     23  C   UNL     1      15.064  -5.573  30.318  0.00  0.00    +0.179 C 
ATOM     25  C   UNL     1      15.433  -4.166  30.762  0.00  0.00    +0.040 C 
BRANCH  23  28
ATOM      6  O   UNL     1      15.486  -6.950  32.257  0.00  0.00    -0.249 OA
ATOM     28  C   UNL     1      14.663  -6.418  31.519  0.00  0.00    +0.327 C 
BRANCH  28   5
ATOM      5  O   UNL     1      13.311  -6.497  31.666  0.00  0.00    -0.467 OA
ATOM     32  C   UNL     1      12.562  -6.665  30.457  0.00  0.00    +0.280 C 
ENDBRANCH  28   5
ENDBRANCH  23  28
ENDBRANCH   9  23
ENDBRANCH  15  21
TORSDOF 6
ENDMDL
MODEL 9
REMARK VINA RESULT:      -6.6      2.744      7.398
REMARK  Name = 7663812
REMARK  8 active torsions:
REMARK  status: ('A' for Active; 'I' for Inactive)
REMARK    1  A    between atoms: O_5  and  C_28
REMARK    2  A    between atoms: O_5  and  C_32
REMARK    3  A    between atoms: N_9  and  C_23
REMARK    4  A    between atoms: C_10  and  C_17
REMARK    5  A    between atoms: C_15  and  C_21
REMARK    6  A    between atoms: C_22  and  C_24
REMARK    7  A    between atoms: C_23  and  C_25
REMARK    8  A    between atoms: C_23  and  C_28
REMARK                            x       y       z     vdW  Elec       q    Type
REMARK                         _______ _______ _______ _____ _____    ______ ____
ROOT
ATOM      2  O   UNL     1      11.497  10.706  24.157  0.00  0.00    -0.275 OA
ATOM      4  O   UNL     1      14.355   8.502  18.342  0.00  0.00    -0.270 OA
ATOM      7  N   UNL     1      12.416  11.069  22.050  0.00  0.00    -0.287 N 
ATOM      8  N   UNL     1      13.050  10.085  19.458  0.00  0.00    -0.294 N 
ATOM     15  C   UNL     1      12.774   9.654  21.876  0.00  0.00    +0.179 C 
ATOM     17  C   UNL     1      11.855  11.479  23.264  0.00  0.00    +0.219 C 
ATOM     18  C   UNL     1      12.844  11.993  20.983  0.00  0.00    +0.127 C 
ATOM     19  C   UNL     1      12.545   9.142  20.454  0.00  0.00    +0.140 C 
ATOM     20  C   UNL     1      12.521  11.444  19.600  0.00  0.00    +0.127 C 
ATOM     22  C   UNL     1      13.914   9.644  18.455  0.00  0.00    +0.247 C 
ENDROOT
BRANCH  22  24
ATOM      1  F   UNL     1      13.531  11.673  14.069  0.00  0.00    -0.205 F 
ATOM     24  C   UNL     1      14.361  10.616  17.450  0.00  0.00    +0.040 A 
ATOM     26  C   UNL     1      13.721  10.684  16.212  0.00  0.00    +0.051 A 
ATOM     27  C   UNL     1      15.424  11.473  17.732  0.00  0.00    +0.013 A 
ATOM     29  C   UNL     1      14.145  11.608  15.257  0.00  0.00    +0.124 A 
ATOM     30  C   UNL     1      15.848  12.397  16.779  0.00  0.00    +0.004 A 
ATOM     31  C   UNL     1      15.209  12.465  15.540  0.00  0.00    +0.038 A 
ENDBRANCH  22  24
BRANCH  17  10
ATOM     10  C   UNL     1      11.686  12.956  23.463  0.00  0.00    +0.075 C 
ATOM     11  C   UNL     1      12.721  13.468  24.468  0.00  0.00    +0.013 C 
ATOM     12  C   UNL     1      10.260  13.260  23.925  0.00  0.00    +0.013 C 
ATOM     13  C   UNL     1      12.525  14.951  24.772  0.00  0.00    +0.001 C 
ATOM     14  C   UNL     1      10.070  14.744  24.231  0.00  0.00    +0.001 C 
ATOM     16  C   UNL     1      11.103  15.248  25.234  0.00  0.00    +0.000 C 
ENDBRANCH  17  10
BRANCH  15  21
ATOM      3  O   UNL     1      14.675  10.152  23.235  0.00  0.00    -0.274 OA
ATOM      9  N   UNL     1      14.915   8.658  21.466  0.00  0.00    -0.301 N 
ATOM     21  C   UNL     1      14.213   9.524  22.285  0.00  0.00    +0.236 C 
ATOM     33  H   UNL     1      14.425   8.156  20.733  0.00  0.00    +0.150 HD
BRANCH   9  23
ATOM     23  C   UNL     1      16.322   8.378  21.634  0.00  0.00    +0.179 C 
ATOM     25  C   UNL     1      17.160   9.425  20.916  0.00  0.00    +0.040 C 
BRANCH  23  28
ATOM      6  O   UNL     1      15.925   6.304  20.462  0.00  0.00    -0.249 OA
ATOM     28  C   UNL     1      16.685   6.984  21.144  0.00  0.00    +0.327 C 
BRANCH  28   5
ATOM      5  O   UNL     1      17.932   6.605  21.542  0.00  0.00    -0.467 OA
ATOM     32  C   UNL     1      18.833   6.231  20.493  0.00  0.00    +0.280 C 
ENDBRANCH  28   5
ENDBRANCH  23  28
ENDBRANCH   9  23
ENDBRANCH  15  21
TORSDOF 6
ENDMDL
MODEL 10
REMARK VINA RESULT:      -6.5     15.076     18.254
REMARK  Name = 7663812
REMARK  8 active torsions:
REMARK  status: ('A' for Active; 'I' for Inactive)
REMARK    1  A    between atoms: O_5  and  C_28
REMARK    2  A    between atoms: O_5  and  C_32
REMARK    3  A    between atoms: N_9  and  C_23
REMARK    4  A    between atoms: C_10  and  C_17
REMARK    5  A    between atoms: C_15  and  C_21
REMARK    6  A    between atoms: C_22  and  C_24
REMARK    7  A    between atoms: C_23  and  C_25
REMARK    8  A    between atoms: C_23  and  C_28
REMARK                            x       y       z     vdW  Elec       q    Type
REMARK                         _______ _______ _______ _____ _____    ______ ____
ROOT
ATOM      2  O   UNL     1      19.352  -3.850  26.206  0.00  0.00    -0.275 OA
ATOM      4  O   UNL     1      17.758 -10.318  27.778  0.00  0.00    -0.270 OA
ATOM      7  N   UNL     1      18.087  -5.782  25.927  0.00  0.00    -0.287 N 
ATOM      8  N   UNL     1      17.087  -8.224  26.990  0.00  0.00    -0.294 N 
ATOM     15  C   UNL     1      18.901  -6.548  26.882  0.00  0.00    +0.179 C 
ATOM     17  C   UNL     1      18.463  -4.471  25.619  0.00  0.00    +0.219 C 
ATOM     18  C   UNL     1      17.023  -6.524  25.225  0.00  0.00    +0.127 C 
ATOM     19  C   UNL     1      18.076  -7.481  27.769  0.00  0.00    +0.140 C 
ATOM     20  C   UNL     1      16.203  -7.377  26.184  0.00  0.00    +0.127 C 
ATOM     22  C   UNL     1      17.013  -9.613  27.100  0.00  0.00    +0.247 C 
ENDROOT
BRANCH  22  24
ATOM      1  F   UNL     1      15.341 -11.446  22.935  0.00  0.00    -0.205 F 
ATOM     24  C   UNL     1      15.975 -10.313  26.333  0.00  0.00    +0.040 A 
ATOM     26  C   UNL     1      16.155 -10.552  24.970  0.00  0.00    +0.051 A 
ATOM     27  C   UNL     1      14.809 -10.740  26.967  0.00  0.00    +0.013 A 
ATOM     29  C   UNL     1      15.168 -11.217  24.242  0.00  0.00    +0.124 A 
ATOM     30  C   UNL     1      13.823 -11.406  26.241  0.00  0.00    +0.004 A 
ATOM     31  C   UNL     1      14.002 -11.644  24.878  0.00  0.00    +0.038 A 
ENDBRANCH  22  24
BRANCH  17  10
ATOM     10  C   UNL     1      17.718  -3.801  24.502  0.00  0.00    +0.075 C 
ATOM     11  C   UNL     1      18.697  -3.362  23.412  0.00  0.00    +0.013 C 
ATOM     12  C   UNL     1      16.917  -2.616  25.046  0.00  0.00    +0.013 C 
ATOM     13  C   UNL     1      17.993  -2.592  22.298  0.00  0.00    +0.001 C 
ATOM     14  C   UNL     1      16.217  -1.848  23.928  0.00  0.00    +0.001 C 
ATOM     16  C   UNL     1      17.199  -1.411  22.846  0.00  0.00    +0.000 C 
ENDBRANCH  17  10
BRANCH  15  21
ATOM      3  O   UNL     1      20.087  -8.513  26.220  0.00  0.00    -0.274 OA
ATOM      9  N   UNL     1      20.595  -6.489  25.188  0.00  0.00    -0.301 N 
ATOM     21  C   UNL     1      19.910  -7.306  26.070  0.00  0.00    +0.236 C 
ATOM     33  H   UNL     1      20.340  -5.509  25.113  0.00  0.00    +0.150 HD
BRANCH   9  23
ATOM     23  C   UNL     1      21.635  -6.971  24.308  0.00  0.00    +0.179 C 
ATOM     25  C   UNL     1      22.776  -5.968  24.236  0.00  0.00    +0.040 C 
BRANCH  23  28
ATOM      6  O   UNL     1      21.275  -8.351  22.359  0.00  0.00    -0.249 OA
ATOM     28  C   UNL     1      21.104  -7.270  22.914  0.00  0.00    +0.327 C 
BRANCH  28   5
ATOM      5  O   UNL     1      20.428  -6.214  22.382  0.00  0.00    -0.467 OA
ATOM     32  C   UNL     1      19.245  -6.541  21.643  0.00  0.00    +0.280 C 
ENDBRANCH  28   5
ENDBRANCH  23  28
ENDBRANCH   9  23
ENDBRANCH  15  21
TORSDOF 6
ENDMDL
