MODEL 1
REMARK VINA RESULT:      -6.7      0.000      0.000
REMARK  Name = 25314799
REMARK  6 active torsions:
REMARK  status: ('A' for Active; 'I' for Inactive)
REMARK    1  A    between atoms: O_3  and  C_9
REMARK    2  A    between atoms: O_4  and  C_19
REMARK    3  A    between atoms: O_4  and  C_24
REMARK    4  A    between atoms: N_5  and  C_8
REMARK    5  A    between atoms: N_6  and  C_18
REMARK    6  A    between atoms: N_7  and  C_10
REMARK                            x       y       z     vdW  Elec       q    Type
REMARK                         _______ _______ _______ _____ _____    ______ ____
ROOT
ATOM      5  N   UNL     1      12.272   9.367  21.003  0.00  0.00    -0.290 NA
ATOM      6  N   UNL     1      11.328  11.487  22.669  0.00  0.00    -0.325 N 
ATOM     14  C   UNL     1      12.449  10.765  20.595  0.00  0.00    +0.104 C 
ATOM     15  C   UNL     1      11.020   9.220  21.756  0.00  0.00    +0.104 C 
ATOM     16  C   UNL     1      12.505  11.690  21.813  0.00  0.00    +0.120 C 
ATOM     17  C   UNL     1      11.028  10.094  23.012  0.00  0.00    +0.120 C 
ENDROOT
BRANCH   5   8
ATOM      1  O   UNL     1      14.595   8.934  19.342  0.00  0.00    -0.343 OA
ATOM      2  O   UNL     1      13.233   8.138  17.642  0.00  0.00    -0.347 OA
ATOM      8  C   UNL     1      12.275   8.486  19.834  0.00  0.00    +0.143 C 
ATOM      9  C   UNL     1      12.626   7.037  20.241  0.00  0.00    +0.156 C 
ATOM     10  C   UNL     1      14.145   6.735  20.239  0.00  0.00    +0.113 C 
ATOM     11  C   UNL     1      13.276   9.008  18.786  0.00  0.00    +0.270 C 
ATOM     12  C   UNL     1      14.908   7.547  19.169  0.00  0.00    +0.166 C 
ATOM     13  C   UNL     1      14.414   7.329  17.751  0.00  0.00    +0.196 C 
BRANCH  10   7
ATOM      7  N   UNL     1      14.732   7.038  21.550  0.00  0.00    -0.323 NA
ATOM     25  H   UNL     1      15.566   7.610  21.428  0.00  0.00    +0.119 HD
ATOM     26  H   UNL     1      15.037   6.174  21.995  0.00  0.00    +0.119 HD
ENDBRANCH  10   7
BRANCH   9   3
ATOM      3  O   UNL     1      11.985   6.157  19.306  0.00  0.00    -0.388 OA
ATOM     27  H   UNL     1      11.083   5.985  19.630  0.00  0.00    +0.210 HD
ENDBRANCH   9   3
ENDBRANCH   5   8
BRANCH   6  18
ATOM     18  C   UNL     1      10.973  12.513  23.552  0.00  0.00    +0.072 A 
ATOM     19  C   UNL     1      10.359  13.673  23.082  0.00  0.00    +0.141 A 
ATOM     20  C   UNL     1      11.238  12.366  24.914  0.00  0.00    +0.027 A 
ATOM     21  C   UNL     1      10.009  14.687  23.974  0.00  0.00    +0.047 A 
ATOM     22  C   UNL     1      10.887  13.379  25.806  0.00  0.00    +0.002 A 
ATOM     23  C   UNL     1      10.273  14.540  25.336  0.00  0.00    +0.004 A 
BRANCH  19   4
ATOM      4  O   UNL     1      10.093  13.837  21.756  0.00  0.00    -0.493 OA
ATOM     24  C   UNL     1       9.138  14.837  21.405  0.00  0.00    +0.277 C 
ENDBRANCH  19   4
ENDBRANCH   6  18
TORSDOF 5
ENDMDL
MODEL 2
REMARK VINA RESULT:      -6.3     15.976     19.111
REMARK  Name = 25314799
REMARK  6 active torsions:
REMARK  status: ('A' for Active; 'I' for Inactive)
REMARK    1  A    between atoms: O_3  and  C_9
REMARK    2  A    between atoms: O_4  and  C_19
REMARK    3  A    between atoms: O_4  and  C_24
REMARK    4  A    between atoms: N_5  and  C_8
REMARK    5  A    between atoms: N_6  and  C_18
REMARK    6  A    between atoms: N_7  and  C_10
REMARK                            x       y       z     vdW  Elec       q    Type
REMARK                         _______ _______ _______ _____ _____    ______ ____
ROOT
ATOM      5  N   UNL     1      12.338   5.086   2.267  0.00  0.00    -0.290 NA
ATOM      6  N   UNL     1      10.777   6.008   4.474  0.00  0.00    -0.325 N 
ATOM     14  C   UNL     1      12.260   6.519   2.573  0.00  0.00    +0.104 C 
ATOM     15  C   UNL     1      11.066   4.434   2.602  0.00  0.00    +0.104 C 
ATOM     16  C   UNL     1      11.976   6.749   4.059  0.00  0.00    +0.120 C 
ATOM     17  C   UNL     1      10.741   4.594   4.089  0.00  0.00    +0.120 C 
ENDROOT
BRANCH   5   8
ATOM      1  O   UNL     1      14.811   5.966   1.060  0.00  0.00    -0.343 OA
ATOM      2  O   UNL     1      13.843   5.804  -1.043  0.00  0.00    -0.347 OA
ATOM      8  C   UNL     1      12.664   4.879   0.854  0.00  0.00    +0.143 C 
ATOM      9  C   UNL     1      13.359   3.514   0.647  0.00  0.00    +0.156 C 
ATOM     10  C   UNL     1      14.899   3.564   0.804  0.00  0.00    +0.113 C 
ATOM     11  C   UNL     1      13.565   6.023   0.351  0.00  0.00    +0.270 C 
ATOM     12  C   UNL     1      15.496   4.919   0.362  0.00  0.00    +0.166 C 
ATOM     13  C   UNL     1      15.186   5.298  -1.074  0.00  0.00    +0.196 C 
BRANCH  10   7
ATOM      7  N   UNL     1      15.283   3.327   2.200  0.00  0.00    -0.323 NA
ATOM     25  H   UNL     1      14.914   2.429   2.510  0.00  0.00    +0.119 HD
ATOM     26  H   UNL     1      14.856   4.035   2.796  0.00  0.00    +0.119 HD
ENDBRANCH  10   7
BRANCH   9   3
ATOM      3  O   UNL     1      13.050   3.068  -0.681  0.00  0.00    -0.388 OA
ATOM     27  H   UNL     1      13.888   2.980  -1.168  0.00  0.00    +0.210 HD
ENDBRANCH   9   3
ENDBRANCH   5   8
BRANCH   6  18
ATOM     18  C   UNL     1      10.112   6.430   5.630  0.00  0.00    +0.072 A 
ATOM     19  C   UNL     1       8.839   6.997   5.550  0.00  0.00    +0.141 A 
ATOM     20  C   UNL     1      10.731   6.279   6.871  0.00  0.00    +0.027 A 
ATOM     21  C   UNL     1       8.187   7.413   6.710  0.00  0.00    +0.047 A 
ATOM     22  C   UNL     1      10.078   6.694   8.032  0.00  0.00    +0.002 A 
ATOM     23  C   UNL     1       8.806   7.261   7.951  0.00  0.00    +0.004 A 
BRANCH  19   4
ATOM      4  O   UNL     1       8.218   7.155   4.348  0.00  0.00    -0.493 OA
ATOM     24  C   UNL     1       8.111   8.486   3.845  0.00  0.00    +0.277 C 
ENDBRANCH  19   4
ENDBRANCH   6  18
TORSDOF 5
ENDMDL
MODEL 3
REMARK VINA RESULT:      -6.3     15.449     19.873
REMARK  Name = 25314799
REMARK  6 active torsions:
REMARK  status: ('A' for Active; 'I' for Inactive)
REMARK    1  A    between atoms: O_3  and  C_9
REMARK    2  A    between atoms: O_4  and  C_19
REMARK    3  A    between atoms: O_4  and  C_24
REMARK    4  A    between atoms: N_5  and  C_8
REMARK    5  A    between atoms: N_6  and  C_18
REMARK    6  A    between atoms: N_7  and  C_10
REMARK                            x       y       z     vdW  Elec       q    Type
REMARK                         _______ _______ _______ _____ _____    ______ ____
ROOT
ATOM      5  N   UNL     1      10.950   6.371   4.456  0.00  0.00    -0.290 NA
ATOM      6  N   UNL     1      11.549   5.004   2.021  0.00  0.00    -0.325 N 
ATOM     14  C   UNL     1      12.170   6.693   3.705  0.00  0.00    +0.104 C 
ATOM     15  C   UNL     1      10.632   4.946   4.307  0.00  0.00    +0.104 C 
ATOM     16  C   UNL     1      11.994   6.390   2.216  0.00  0.00    +0.120 C 
ATOM     17  C   UNL     1      10.405   4.585   2.837  0.00  0.00    +0.120 C 
ENDROOT
BRANCH   5   8
ATOM      1  O   UNL     1       9.891   8.785   5.637  0.00  0.00    -0.343 OA
ATOM      2  O   UNL     1      11.346   8.549   7.428  0.00  0.00    -0.347 OA
ATOM      8  C   UNL     1      11.112   6.716   5.870  0.00  0.00    +0.143 C 
ATOM      9  C   UNL     1       9.964   6.117   6.714  0.00  0.00    +0.156 C 
ATOM     10  C   UNL     1       8.721   7.034   6.824  0.00  0.00    +0.113 C 
ATOM     11  C   UNL     1      11.159   8.247   6.035  0.00  0.00    +0.270 C 
ATOM     12  C   UNL     1       9.089   8.535   6.797  0.00  0.00    +0.166 C 
ATOM     13  C   UNL     1      10.051   8.960   7.892  0.00  0.00    +0.196 C 
BRANCH  10   7
ATOM      7  N   UNL     1       7.788   6.772   5.724  0.00  0.00    -0.323 NA
ATOM     25  H   UNL     1       8.040   7.340   4.917  0.00  0.00    +0.119 HD
ATOM     26  H   UNL     1       6.849   7.059   5.996  0.00  0.00    +0.119 HD
ENDBRANCH  10   7
BRANCH   9   3
ATOM      3  O   UNL     1      10.475   5.879   8.034  0.00  0.00    -0.388 OA
ATOM     27  H   UNL     1       9.732   5.954   8.658  0.00  0.00    +0.210 HD
ENDBRANCH   9   3
ENDBRANCH   5   8
BRANCH   6  18
ATOM     18  C   UNL     1      11.762   4.415   0.769  0.00  0.00    +0.072 A 
ATOM     19  C   UNL     1      12.769   3.465   0.595  0.00  0.00    +0.141 A 
ATOM     20  C   UNL     1      10.957   4.784  -0.308  0.00  0.00    +0.027 A 
ATOM     21  C   UNL     1      12.970   2.885  -0.658  0.00  0.00    +0.047 A 
ATOM     22  C   UNL     1      11.158   4.203  -1.560  0.00  0.00    +0.002 A 
ATOM     23  C   UNL     1      12.164   3.254  -1.735  0.00  0.00    +0.004 A 
BRANCH  19   4
ATOM      4  O   UNL     1      13.567   3.092   1.633  0.00  0.00    -0.493 OA
ATOM     24  C   UNL     1      14.911   3.572   1.622  0.00  0.00    +0.277 C 
ENDBRANCH  19   4
ENDBRANCH   6  18
TORSDOF 5
ENDMDL
MODEL 4
REMARK VINA RESULT:      -6.2      5.192      9.777
REMARK  Name = 25314799
REMARK  6 active torsions:
REMARK  status: ('A' for Active; 'I' for Inactive)
REMARK    1  A    between atoms: O_3  and  C_9
REMARK    2  A    between atoms: O_4  and  C_19
REMARK    3  A    between atoms: O_4  and  C_24
REMARK    4  A    between atoms: N_5  and  C_8
REMARK    5  A    between atoms: N_6  and  C_18
REMARK    6  A    between atoms: N_7  and  C_10
REMARK                            x       y       z     vdW  Elec       q    Type
REMARK                         _______ _______ _______ _____ _____    ______ ____
ROOT
ATOM      5  N   UNL     1      17.051   6.982  20.223  0.00  0.00    -0.290 NA
ATOM      6  N   UNL     1      19.677   5.886  20.460  0.00  0.00    -0.325 N 
ATOM     14  C   UNL     1      17.610   6.158  19.145  0.00  0.00    +0.104 C 
ATOM     15  C   UNL     1      18.120   7.749  20.873  0.00  0.00    +0.104 C 
ATOM     16  C   UNL     1      18.649   5.174  19.689  0.00  0.00    +0.120 C 
ATOM     17  C   UNL     1      19.177   6.819  21.474  0.00  0.00    +0.120 C 
ENDROOT
BRANCH   5   8
ATOM      1  O   UNL     1      14.242   6.311  20.151  0.00  0.00    -0.343 OA
ATOM      2  O   UNL     1      13.885   7.969  18.569  0.00  0.00    -0.347 OA
ATOM      8  C   UNL     1      16.020   7.880  19.699  0.00  0.00    +0.143 C 
ATOM      9  C   UNL     1      15.494   8.817  20.811  0.00  0.00    +0.156 C 
ATOM     10  C   UNL     1      14.309   8.230  21.618  0.00  0.00    +0.113 C 
ATOM     11  C   UNL     1      14.864   7.059  19.097  0.00  0.00    +0.270 C 
ATOM     12  C   UNL     1      13.413   7.304  20.765  0.00  0.00    +0.166 C 
ATOM     13  C   UNL     1      12.823   7.969  19.535  0.00  0.00    +0.196 C 
BRANCH  10   7
ATOM      7  N   UNL     1      14.800   7.462  22.767  0.00  0.00    -0.323 NA
ATOM     25  H   UNL     1      14.053   7.354  23.452  0.00  0.00    +0.119 HD
ATOM     26  H   UNL     1      15.543   7.981  23.233  0.00  0.00    +0.119 HD
ENDBRANCH  10   7
BRANCH   9   3
ATOM      3  O   UNL     1      15.061  10.033  20.184  0.00  0.00    -0.388 OA
ATOM     27  H   UNL     1      14.407  10.453  20.769  0.00  0.00    +0.210 HD
ENDBRANCH   9   3
ENDBRANCH   5   8
BRANCH   6  18
ATOM     18  C   UNL     1      20.913   5.255  20.647  0.00  0.00    +0.072 A 
ATOM     19  C   UNL     1      22.103   5.941  20.406  0.00  0.00    +0.141 A 
ATOM     20  C   UNL     1      20.947   3.929  21.079  0.00  0.00    +0.027 A 
ATOM     21  C   UNL     1      23.327   5.301  20.597  0.00  0.00    +0.047 A 
ATOM     22  C   UNL     1      22.171   3.289  21.271  0.00  0.00    +0.002 A 
ATOM     23  C   UNL     1      23.362   3.975  21.030  0.00  0.00    +0.004 A 
BRANCH  19   4
ATOM      4  O   UNL     1      22.092   7.235  19.981  0.00  0.00    -0.493 OA
ATOM     24  C   UNL     1      23.183   8.060  20.387  0.00  0.00    +0.277 C 
ENDBRANCH  19   4
ENDBRANCH   6  18
TORSDOF 5
ENDMDL
MODEL 5
REMARK VINA RESULT:      -6.2      4.054      7.183
REMARK  Name = 25314799
REMARK  6 active torsions:
REMARK  status: ('A' for Active; 'I' for Inactive)
REMARK    1  A    between atoms: O_3  and  C_9
REMARK    2  A    between atoms: O_4  and  C_19
REMARK    3  A    between atoms: O_4  and  C_24
REMARK    4  A    between atoms: N_5  and  C_8
REMARK    5  A    between atoms: N_6  and  C_18
REMARK    6  A    between atoms: N_7  and  C_10
REMARK                            x       y       z     vdW  Elec       q    Type
REMARK                         _______ _______ _______ _____ _____    ______ ____
ROOT
ATOM      5  N   UNL     1      13.212   9.035  18.192  0.00  0.00    -0.290 NA
ATOM      6  N   UNL     1      14.263  10.688  16.112  0.00  0.00    -0.325 N 
ATOM     14  C   UNL     1      13.196   8.574  16.799  0.00  0.00    +0.104 C 
ATOM     15  C   UNL     1      13.035  10.492  18.239  0.00  0.00    +0.104 C 
ATOM     16  C   UNL     1      14.322   9.225  15.992  0.00  0.00    +0.120 C 
ATOM     17  C   UNL     1      14.155  11.207  17.479  0.00  0.00    +0.120 C 
ENDROOT
BRANCH   5   8
ATOM      1  O   UNL     1      13.757   7.065  20.233  0.00  0.00    -0.343 OA
ATOM      2  O   UNL     1      11.568   6.311  20.091  0.00  0.00    -0.347 OA
ATOM      8  C   UNL     1      12.166   8.366  18.967  0.00  0.00    +0.143 C 
ATOM      9  C   UNL     1      11.810   9.185  20.228  0.00  0.00    +0.156 C 
ATOM     10  C   UNL     1      12.681   8.846  21.463  0.00  0.00    +0.113 C 
ATOM     11  C   UNL     1      12.627   6.949  19.358  0.00  0.00    +0.270 C 
ATOM     12  C   UNL     1      13.129   7.367  21.484  0.00  0.00    +0.166 C 
ATOM     13  C   UNL     1      11.985   6.370  21.464  0.00  0.00    +0.196 C 
BRANCH  10   7
ATOM      7  N   UNL     1      13.882   9.688  21.493  0.00  0.00    -0.323 NA
ATOM     25  H   UNL     1      14.566   9.288  22.133  0.00  0.00    +0.119 HD
ATOM     26  H   UNL     1      13.645  10.608  21.863  0.00  0.00    +0.119 HD
ENDBRANCH  10   7
BRANCH   9   3
ATOM      3  O   UNL     1      10.438   8.911  20.549  0.00  0.00    -0.388 OA
ATOM     27  H   UNL     1      10.003   8.587  19.742  0.00  0.00    +0.210 HD
ENDBRANCH   9   3
ENDBRANCH   5   8
BRANCH   6  18
ATOM     18  C   UNL     1      14.894  11.454  15.126  0.00  0.00    +0.072 A 
ATOM     19  C   UNL     1      14.191  11.874  13.997  0.00  0.00    +0.141 A 
ATOM     20  C   UNL     1      16.236  11.799  15.281  0.00  0.00    +0.027 A 
ATOM     21  C   UNL     1      14.831  12.639  13.022  0.00  0.00    +0.047 A 
ATOM     22  C   UNL     1      16.877  12.565  14.306  0.00  0.00    +0.002 A 
ATOM     23  C   UNL     1      16.174  12.985  13.177  0.00  0.00    +0.004 A 
BRANCH  19   4
ATOM      4  O   UNL     1      12.880  11.546  13.825  0.00  0.00    -0.493 OA
ATOM     24  C   UNL     1      12.114  12.374  12.952  0.00  0.00    +0.277 C 
ENDBRANCH  19   4
ENDBRANCH   6  18
TORSDOF 5
ENDMDL
MODEL 6
REMARK VINA RESULT:      -6.1      1.586      2.338
REMARK  Name = 25314799
REMARK  6 active torsions:
REMARK  status: ('A' for Active; 'I' for Inactive)
REMARK    1  A    between atoms: O_3  and  C_9
REMARK    2  A    between atoms: O_4  and  C_19
REMARK    3  A    between atoms: O_4  and  C_24
REMARK    4  A    between atoms: N_5  and  C_8
REMARK    5  A    between atoms: N_6  and  C_18
REMARK    6  A    between atoms: N_7  and  C_10
REMARK                            x       y       z     vdW  Elec       q    Type
REMARK                         _______ _______ _______ _____ _____    ______ ____
ROOT
ATOM      5  N   UNL     1      12.710  10.003  20.484  0.00  0.00    -0.290 NA
ATOM      6  N   UNL     1      11.960  11.725  22.636  0.00  0.00    -0.325 N 
ATOM     14  C   UNL     1      12.942  11.449  20.392  0.00  0.00    +0.104 C 
ATOM     15  C   UNL     1      11.489   9.740  21.255  0.00  0.00    +0.104 C 
ATOM     16  C   UNL     1      13.105  12.069  21.782  0.00  0.00    +0.120 C 
ATOM     17  C   UNL     1      11.602  10.303  22.673  0.00  0.00    +0.120 C 
ENDROOT
BRANCH   5   8
ATOM      1  O   UNL     1      14.879   8.590  19.202  0.00  0.00    -0.343 OA
ATOM      2  O   UNL     1      13.850   8.874  17.143  0.00  0.00    -0.347 OA
ATOM      8  C   UNL     1      12.610   9.413  19.148  0.00  0.00    +0.143 C 
ATOM      9  C   UNL     1      12.069   7.967  19.226  0.00  0.00    +0.156 C 
ATOM     10  C   UNL     1      13.170   6.894  19.415  0.00  0.00    +0.113 C 
ATOM     11  C   UNL     1      13.989   9.434  18.460  0.00  0.00    +0.270 C 
ATOM     12  C   UNL     1      14.502   7.288  18.739  0.00  0.00    +0.166 C 
ATOM     13  C   UNL     1      14.391   7.549  17.248  0.00  0.00    +0.196 C 
BRANCH  10   7
ATOM      7  N   UNL     1      13.429   6.667  20.841  0.00  0.00    -0.323 NA
ATOM     25  H   UNL     1      14.105   7.350  21.180  0.00  0.00    +0.119 HD
ATOM     26  H   UNL     1      13.856   5.751  20.969  0.00  0.00    +0.119 HD
ENDBRANCH  10   7
BRANCH   9   3
ATOM      3  O   UNL     1      11.374   7.697  18.000  0.00  0.00    -0.388 OA
ATOM     27  H   UNL     1      12.015   7.319  17.373  0.00  0.00    +0.210 HD
ENDBRANCH   9   3
ENDBRANCH   5   8
BRANCH   6  18
ATOM     18  C   UNL     1      11.702  12.535  23.747  0.00  0.00    +0.072 A 
ATOM     19  C   UNL     1      12.584  12.559  24.828  0.00  0.00    +0.141 A 
ATOM     20  C   UNL     1      10.552  13.324  23.768  0.00  0.00    +0.027 A 
ATOM     21  C   UNL     1      12.316  13.372  25.929  0.00  0.00    +0.047 A 
ATOM     22  C   UNL     1      10.284  14.138  24.868  0.00  0.00    +0.002 A 
ATOM     23  C   UNL     1      11.166  14.163  25.949  0.00  0.00    +0.004 A 
BRANCH  19   4
ATOM      4  O   UNL     1      13.712  11.795  24.829  0.00  0.00    -0.493 OA
ATOM     24  C   UNL     1      14.521  11.836  26.003  0.00  0.00    +0.277 C 
ENDBRANCH  19   4
ENDBRANCH   6  18
TORSDOF 5
ENDMDL
MODEL 7
REMARK VINA RESULT:      -5.9     15.440     19.899
REMARK  Name = 25314799
REMARK  6 active torsions:
REMARK  status: ('A' for Active; 'I' for Inactive)
REMARK    1  A    between atoms: O_3  and  C_9
REMARK    2  A    between atoms: O_4  and  C_19
REMARK    3  A    between atoms: O_4  and  C_24
REMARK    4  A    between atoms: N_5  and  C_8
REMARK    5  A    between atoms: N_6  and  C_18
REMARK    6  A    between atoms: N_7  and  C_10
REMARK                            x       y       z     vdW  Elec       q    Type
REMARK                         _______ _______ _______ _____ _____    ______ ____
ROOT
ATOM      5  N   UNL     1      10.915   6.104   4.392  0.00  0.00    -0.290 NA
ATOM      6  N   UNL     1      11.373   5.033   1.784  0.00  0.00    -0.325 N 
ATOM     14  C   UNL     1      10.036   5.058   3.855  0.00  0.00    +0.104 C 
ATOM     15  C   UNL     1      11.382   6.971   3.304  0.00  0.00    +0.104 C 
ATOM     16  C   UNL     1      10.774   4.193   2.831  0.00  0.00    +0.120 C 
ATOM     17  C   UNL     1      12.165   6.171   2.260  0.00  0.00    +0.120 C 
ENDROOT
BRANCH   5   8
ATOM      1  O   UNL     1      10.197   5.065   6.990  0.00  0.00    -0.343 OA
ATOM      2  O   UNL     1       8.647   6.771   7.246  0.00  0.00    -0.347 OA
ATOM      8  C   UNL     1      10.215   6.890   5.410  0.00  0.00    +0.143 C 
ATOM      9  C   UNL     1      11.221   7.663   6.292  0.00  0.00    +0.156 C 
ATOM     10  C   UNL     1      11.722   6.863   7.521  0.00  0.00    +0.113 C 
ATOM     11  C   UNL     1       9.339   5.965   6.277  0.00  0.00    +0.270 C 
ATOM     12  C   UNL     1      10.655   5.889   8.068  0.00  0.00    +0.166 C 
ATOM     13  C   UNL     1       9.354   6.555   8.476  0.00  0.00    +0.196 C 
BRANCH  10   7
ATOM      7  N   UNL     1      12.919   6.087   7.177  0.00  0.00    -0.323 NA
ATOM     25  H   UNL     1      13.659   6.716   6.868  0.00  0.00    +0.119 HD
ATOM     26  H   UNL     1      12.714   5.475   6.388  0.00  0.00    +0.119 HD
ENDBRANCH  10   7
BRANCH   9   3
ATOM      3  O   UNL     1      10.566   8.851   6.758  0.00  0.00    -0.388 OA
ATOM     27  H   UNL     1      10.261   9.348   5.978  0.00  0.00    +0.210 HD
ENDBRANCH   9   3
ENDBRANCH   5   8
BRANCH   6  18
ATOM     18  C   UNL     1      11.685   4.432   0.559  0.00  0.00    +0.072 A 
ATOM     19  C   UNL     1      12.770   3.562   0.452  0.00  0.00    +0.141 A 
ATOM     20  C   UNL     1      10.901   4.711  -0.560  0.00  0.00    +0.027 A 
ATOM     21  C   UNL     1      13.070   2.970  -0.775  0.00  0.00    +0.047 A 
ATOM     22  C   UNL     1      11.200   4.118  -1.787  0.00  0.00    +0.002 A 
ATOM     23  C   UNL     1      12.285   3.247  -1.894  0.00  0.00    +0.004 A 
BRANCH  19   4
ATOM      4  O   UNL     1      13.550   3.279   1.532  0.00  0.00    -0.493 OA
ATOM     24  C   UNL     1      14.937   3.595   1.430  0.00  0.00    +0.277 C 
ENDBRANCH  19   4
ENDBRANCH   6  18
TORSDOF 5
ENDMDL
MODEL 8
REMARK VINA RESULT:      -5.9     26.872     29.596
REMARK  Name = 25314799
REMARK  6 active torsions:
REMARK  status: ('A' for Active; 'I' for Inactive)
REMARK    1  A    between atoms: O_3  and  C_9
REMARK    2  A    between atoms: O_4  and  C_19
REMARK    3  A    between atoms: O_4  and  C_24
REMARK    4  A    between atoms: N_5  and  C_8
REMARK    5  A    between atoms: N_6  and  C_18
REMARK    6  A    between atoms: N_7  and  C_10
REMARK                            x       y       z     vdW  Elec       q    Type
REMARK                         _______ _______ _______ _____ _____    ______ ____
ROOT
ATOM      5  N   UNL     1      -6.886 -11.440  16.865  0.00  0.00    -0.290 NA
ATOM      6  N   UNL     1      -4.958 -10.972  14.809  0.00  0.00    -0.325 N 
ATOM     14  C   UNL     1      -6.099 -10.201  16.854  0.00  0.00    +0.104 C 
ATOM     15  C   UNL     1      -6.081 -12.548  16.334  0.00  0.00    +0.104 C 
ATOM     16  C   UNL     1      -5.660  -9.842  15.432  0.00  0.00    +0.120 C 
ATOM     17  C   UNL     1      -5.641 -12.267  14.895  0.00  0.00    +0.120 C 
ENDROOT
BRANCH   5   8
ATOM      1  O   UNL     1      -9.465 -10.637  17.887  0.00  0.00    -0.343 OA
ATOM      2  O   UNL     1      -8.704 -10.949  20.056  0.00  0.00    -0.347 OA
ATOM      8  C   UNL     1      -7.346 -11.744  18.221  0.00  0.00    +0.143 C 
ATOM      9  C   UNL     1      -8.054 -13.117  18.264  0.00  0.00    +0.156 C 
ATOM     10  C   UNL     1      -9.572 -13.051  17.964  0.00  0.00    +0.113 C 
ATOM     11  C   UNL     1      -8.294 -10.635  18.714  0.00  0.00    +0.270 C 
ATOM     12  C   UNL     1     -10.212 -11.727  18.440  0.00  0.00    +0.166 C 
ATOM     13  C   UNL     1     -10.043 -11.451  19.923  0.00  0.00    +0.196 C 
BRANCH  10   7
ATOM      7  N   UNL     1      -9.819 -13.187  16.524  0.00  0.00    -0.323 NA
ATOM     25  H   UNL     1      -8.931 -13.254  16.029  0.00  0.00    +0.119 HD
ATOM     26  H   UNL     1     -10.281 -12.349  16.176  0.00  0.00    +0.119 HD
ENDBRANCH  10   7
BRANCH   9   3
ATOM      3  O   UNL     1      -7.872 -13.657  19.581  0.00  0.00    -0.388 OA
ATOM     27  H   UNL     1      -7.798 -12.910  20.201  0.00  0.00    +0.210 HD
ENDBRANCH   9   3
ENDBRANCH   5   8
BRANCH   6  18
ATOM     18  C   UNL     1      -4.111 -10.705  13.728  0.00  0.00    +0.072 A 
ATOM     19  C   UNL     1      -2.725 -10.757  13.883  0.00  0.00    +0.141 A 
ATOM     20  C   UNL     1      -4.663 -10.384  12.488  0.00  0.00    +0.027 A 
ATOM     21  C   UNL     1      -1.892 -10.489  12.797  0.00  0.00    +0.047 A 
ATOM     22  C   UNL     1      -3.829 -10.117  11.402  0.00  0.00    +0.002 A 
ATOM     23  C   UNL     1      -2.444 -10.169  11.556  0.00  0.00    +0.004 A 
BRANCH  19   4
ATOM      4  O   UNL     1      -2.166 -11.066  15.086  0.00  0.00    -0.493 OA
ATOM     24  C   UNL     1      -1.167 -10.178  15.583  0.00  0.00    +0.277 C 
ENDBRANCH  19   4
ENDBRANCH   6  18
TORSDOF 5
ENDMDL
MODEL 9
REMARK VINA RESULT:      -5.9     27.655     29.244
REMARK  Name = 25314799
REMARK  6 active torsions:
REMARK  status: ('A' for Active; 'I' for Inactive)
REMARK    1  A    between atoms: O_3  and  C_9
REMARK    2  A    between atoms: O_4  and  C_19
REMARK    3  A    between atoms: O_4  and  C_24
REMARK    4  A    between atoms: N_5  and  C_8
REMARK    5  A    between atoms: N_6  and  C_18
REMARK    6  A    between atoms: N_7  and  C_10
REMARK                            x       y       z     vdW  Elec       q    Type
REMARK                         _______ _______ _______ _____ _____    ______ ____
ROOT
ATOM      5  N   UNL     1      -6.570 -10.617  16.424  0.00  0.00    -0.290 NA
ATOM      6  N   UNL     1      -5.270 -10.168  13.921  0.00  0.00    -0.325 N 
ATOM     14  C   UNL     1      -7.338 -10.154  15.262  0.00  0.00    +0.104 C 
ATOM     15  C   UNL     1      -5.213 -10.060  16.381  0.00  0.00    +0.104 C 
ATOM     16  C   UNL     1      -6.675 -10.595  13.955  0.00  0.00    +0.120 C 
ATOM     17  C   UNL     1      -4.479 -10.497  15.111  0.00  0.00    +0.120 C 
ENDROOT
BRANCH   5   8
ATOM      1  O   UNL     1      -8.665 -12.188  17.646  0.00  0.00    -0.343 OA
ATOM      2  O   UNL     1      -9.331 -10.340  18.881  0.00  0.00    -0.347 OA
ATOM      8  C   UNL     1      -7.242 -10.238  17.668  0.00  0.00    +0.143 C 
ATOM      9  C   UNL     1      -6.479 -10.791  18.893  0.00  0.00    +0.156 C 
ATOM     10  C   UNL     1      -6.914 -12.217  19.312  0.00  0.00    +0.113 C 
ATOM     11  C   UNL     1      -8.693 -10.754  17.660  0.00  0.00    +0.270 C 
ATOM     12  C   UNL     1      -8.407 -12.489  19.022  0.00  0.00    +0.166 C 
ATOM     13  C   UNL     1      -9.360 -11.521  19.698  0.00  0.00    +0.196 C 
BRANCH  10   7
ATOM      7  N   UNL     1      -6.118 -13.226  18.606  0.00  0.00    -0.323 NA
ATOM     25  H   UNL     1      -5.136 -12.957  18.615  0.00  0.00    +0.119 HD
ATOM     26  H   UNL     1      -6.398 -13.259  17.627  0.00  0.00    +0.119 HD
ENDBRANCH  10   7
BRANCH   9   3
ATOM      3  O   UNL     1      -6.719  -9.899  19.992  0.00  0.00    -0.388 OA
ATOM     27  H   UNL     1      -7.491 -10.233  20.482  0.00  0.00    +0.210 HD
ENDBRANCH   9   3
ENDBRANCH   5   8
BRANCH   6  18
ATOM     18  C   UNL     1      -4.641 -10.074  12.674  0.00  0.00    +0.072 A 
ATOM     19  C   UNL     1      -5.259  -9.405  11.617  0.00  0.00    +0.141 A 
ATOM     20  C   UNL     1      -3.386 -10.655  12.493  0.00  0.00    +0.027 A 
ATOM     21  C   UNL     1      -4.621  -9.317  10.380  0.00  0.00    +0.047 A 
ATOM     22  C   UNL     1      -2.748 -10.567  11.256  0.00  0.00    +0.002 A 
ATOM     23  C   UNL     1      -3.366  -9.898  10.199  0.00  0.00    +0.004 A 
BRANCH  19   4
ATOM      4  O   UNL     1      -6.485  -8.832  11.772  0.00  0.00    -0.493 OA
ATOM     24  C   UNL     1      -7.411  -8.983  10.698  0.00  0.00    +0.277 C 
ENDBRANCH  19   4
ENDBRANCH   6  18
TORSDOF 5
ENDMDL
MODEL 10
REMARK VINA RESULT:      -5.9     16.304     20.564
REMARK  Name = 25314799
REMARK  6 active torsions:
REMARK  status: ('A' for Active; 'I' for Inactive)
REMARK    1  A    between atoms: O_3  and  C_9
REMARK    2  A    between atoms: O_4  and  C_19
REMARK    3  A    between atoms: O_4  and  C_24
REMARK    4  A    between atoms: N_5  and  C_8
REMARK    5  A    between atoms: N_6  and  C_18
REMARK    6  A    between atoms: N_7  and  C_10
REMARK                            x       y       z     vdW  Elec       q    Type
REMARK                         _______ _______ _______ _____ _____    ______ ____
ROOT
ATOM      5  N   UNL     1      10.463   5.711   3.879  0.00  0.00    -0.290 NA
ATOM      6  N   UNL     1      11.326   4.827   1.303  0.00  0.00    -0.325 N 
ATOM     14  C   UNL     1      10.613   4.278   3.598  0.00  0.00    +0.104 C 
ATOM     15  C   UNL     1      10.026   6.415   2.667  0.00  0.00    +0.104 C 
ATOM     16  C   UNL     1      11.651   4.040   2.500  0.00  0.00    +0.120 C 
ATOM     17  C   UNL     1      11.045   6.247   1.537  0.00  0.00    +0.120 C 
ENDROOT
BRANCH   5   8
ATOM      1  O   UNL     1      11.253   6.300   6.595  0.00  0.00    -0.343 OA
ATOM      2  O   UNL     1       9.152   5.661   7.345  0.00  0.00    -0.347 OA
ATOM      8  C   UNL     1       9.508   5.924   4.968  0.00  0.00    +0.143 C 
ATOM      9  C   UNL     1       9.093   7.411   5.049  0.00  0.00    +0.156 C 
ATOM     10  C   UNL     1      10.019   8.273   5.942  0.00  0.00    +0.113 C 
ATOM     11  C   UNL     1      10.124   5.464   6.303  0.00  0.00    +0.270 C 
ATOM     12  C   UNL     1      10.620   7.473   7.119  0.00  0.00    +0.166 C 
ATOM     13  C   UNL     1       9.587   6.842   8.035  0.00  0.00    +0.196 C 
BRANCH  10   7
ATOM      7  N   UNL     1      11.125   8.827   5.153  0.00  0.00    -0.323 NA
ATOM     25  H   UNL     1      10.753   9.377   4.379  0.00  0.00    +0.119 HD
ATOM     26  H   UNL     1      11.660   8.068   4.735  0.00  0.00    +0.119 HD
ENDBRANCH  10   7
BRANCH   9   3
ATOM      3  O   UNL     1       7.764   7.460   5.589  0.00  0.00    -0.388 OA
ATOM     27  H   UNL     1       7.193   7.898   4.934  0.00  0.00    +0.210 HD
ENDBRANCH   9   3
ENDBRANCH   5   8
BRANCH   6  18
ATOM     18  C   UNL     1      11.867   4.418   0.080  0.00  0.00    +0.072 A 
ATOM     19  C   UNL     1      11.062   4.316  -1.054  0.00  0.00    +0.141 A 
ATOM     20  C   UNL     1      13.226   4.113  -0.000  0.00  0.00    +0.027 A 
ATOM     21  C   UNL     1      11.615   3.908  -2.268  0.00  0.00    +0.047 A 
ATOM     22  C   UNL     1      13.780   3.706  -1.214  0.00  0.00    +0.002 A 
ATOM     23  C   UNL     1      12.974   3.603  -2.348  0.00  0.00    +0.004 A 
BRANCH  19   4
ATOM      4  O   UNL     1       9.732   4.607  -0.997  0.00  0.00    -0.493 OA
ATOM     24  C   UNL     1       9.184   5.345  -2.088  0.00  0.00    +0.277 C 
ENDBRANCH  19   4
ENDBRANCH   6  18
TORSDOF 5
ENDMDL
