MODEL 1
REMARK VINA RESULT:      -7.9      0.000      0.000
REMARK  Name = 11911979
REMARK  2 active torsions:
REMARK  status: ('A' for Active; 'I' for Inactive)
REMARK    1  A    between atoms: N_4  and  C_12
REMARK    2  A    between atoms: C_20  and  C_22
REMARK                            x       y       z     vdW  Elec       q    Type
REMARK                         _______ _______ _______ _____ _____    ______ ____
ROOT
ATOM      3  O   UNL     1      16.058   6.238  21.447  0.00  0.00    -0.267 OA
ATOM      4  N   UNL     1      12.901   9.461  19.263  0.00  0.00    -0.298 NA
ATOM      5  N   UNL     1      14.856   8.237  21.465  0.00  0.00    -0.311 N 
ATOM      6  C   UNL     1      12.295   8.312  21.407  0.00  0.00    +0.024 C 
ATOM      7  C   UNL     1      13.571  10.401  21.479  0.00  0.00    +0.050 C 
ATOM      8  C   UNL     1      12.462   9.615  22.176  0.00  0.00    +0.017 C 
ATOM      9  C   UNL     1      11.917   8.609  19.940  0.00  0.00    +0.090 C 
ATOM     10  C   UNL     1      13.154  10.696  20.020  0.00  0.00    +0.094 C 
ATOM     11  C   UNL     1      13.588   7.496  21.529  0.00  0.00    +0.130 C 
ATOM     13  C   UNL     1      14.879   9.633  21.513  0.00  0.00    +0.026 A 
ATOM     16  C   UNL     1      16.050  10.287  21.567  0.00  0.00    +0.022 A 
ATOM     17  C   UNL     1      16.038   7.469  21.458  0.00  0.00    +0.260 A 
ATOM     20  C   UNL     1      17.332   8.235  21.486  0.00  0.00    +0.053 A 
ATOM     21  C   UNL     1      17.296   9.574  21.550  0.00  0.00    +0.016 A 
ENDROOT
BRANCH  20  22
ATOM      1  S   UNL     1      19.862   8.066  22.461  0.00  0.00    -0.088 S 
ATOM     22  C   UNL     1      18.585   7.550  21.451  0.00  0.00    +0.026 A 
ATOM     23  C   UNL     1      18.955   6.466  20.681  0.00  0.00    +0.024 A 
ATOM     24  C   UNL     1      20.307   6.042  20.914  0.00  0.00    -0.010 A 
ATOM     25  C   UNL     1      20.928   6.842  21.879  0.00  0.00    +0.020 A 
ATOM     26  C   UNL     1      21.054   4.988  20.337  0.00  0.00    +0.009 A 
ATOM     27  C   UNL     1      22.261   6.616  22.275  0.00  0.00    +0.015 A 
ATOM     28  C   UNL     1      22.376   4.761  20.728  0.00  0.00    +0.001 A 
ATOM     29  C   UNL     1      22.971   5.568  21.687  0.00  0.00    +0.001 A 
ENDBRANCH  20  22
BRANCH   4  12
ATOM      2  O   UNL     1      12.353   8.981  15.128  0.00  0.00    -0.380 OA
ATOM     12  C   UNL     1      12.482   9.762  17.896  0.00  0.00    +0.061 C 
ATOM     14  C   UNL     1      13.698   9.827  16.968  0.00  0.00    +0.047 C 
ATOM     15  C   UNL     1      11.485   8.717  17.383  0.00  0.00    +0.047 C 
ATOM     18  C   UNL     1      13.252  10.018  15.522  0.00  0.00    +0.161 C 
ATOM     19  C   UNL     1      11.162   8.972  15.914  0.00  0.00    +0.161 C 
ENDBRANCH   4  12
TORSDOF 2
ENDMDL
MODEL 2
REMARK VINA RESULT:      -7.8     27.362     29.962
REMARK  Name = 11911979
REMARK  2 active torsions:
REMARK  status: ('A' for Active; 'I' for Inactive)
REMARK    1  A    between atoms: N_4  and  C_12
REMARK    2  A    between atoms: C_20  and  C_22
REMARK                            x       y       z     vdW  Elec       q    Type
REMARK                         _______ _______ _______ _____ _____    ______ ____
ROOT
ATOM      3  O   UNL     1     -14.996   8.616  20.583  0.00  0.00    -0.267 OA
ATOM      4  N   UNL     1     -11.797   9.259  16.778  0.00  0.00    -0.298 NA
ATOM      5  N   UNL     1     -12.839   9.000  19.781  0.00  0.00    -0.311 N 
ATOM      6  C   UNL     1     -12.215  11.092  18.437  0.00  0.00    +0.024 C 
ATOM      7  C   UNL     1     -10.510   9.401  18.915  0.00  0.00    +0.050 C 
ATOM      8  C   UNL     1     -10.833  10.888  19.041  0.00  0.00    +0.017 C 
ATOM      9  C   UNL     1     -12.215  10.654  16.956  0.00  0.00    +0.090 C 
ATOM     10  C   UNL     1     -10.500   8.999  17.422  0.00  0.00    +0.094 C 
ATOM     11  C   UNL     1     -13.242  10.322  19.278  0.00  0.00    +0.130 C 
ATOM     13  C   UNL     1     -11.516   8.564  19.683  0.00  0.00    +0.026 A 
ATOM     16  C   UNL     1     -11.145   7.404  20.248  0.00  0.00    +0.022 A 
ATOM     17  C   UNL     1     -13.827   8.251  20.451  0.00  0.00    +0.260 A 
ATOM     20  C   UNL     1     -13.384   6.940  21.043  0.00  0.00    +0.053 A 
ATOM     21  C   UNL     1     -12.098   6.578  20.935  0.00  0.00    +0.016 A 
ENDROOT
BRANCH  20  22
ATOM      1  S   UNL     1     -15.801   5.703  20.963  0.00  0.00    -0.088 S 
ATOM     22  C   UNL     1     -14.317   6.093  21.715  0.00  0.00    +0.026 A 
ATOM     23  C   UNL     1     -14.206   5.498  22.955  0.00  0.00    +0.024 A 
ATOM     24  C   UNL     1     -15.351   4.707  23.307  0.00  0.00    -0.010 A 
ATOM     25  C   UNL     1     -16.314   4.732  22.292  0.00  0.00    +0.020 A 
ATOM     26  C   UNL     1     -15.625   3.949  24.470  0.00  0.00    +0.009 A 
ATOM     27  C   UNL     1     -17.528   4.026  22.413  0.00  0.00    +0.015 A 
ATOM     28  C   UNL     1     -16.827   3.248  24.592  0.00  0.00    +0.001 A 
ATOM     29  C   UNL     1     -17.768   3.288  23.572  0.00  0.00    +0.001 A 
ENDBRANCH  20  22
BRANCH   4  12
ATOM      2  O   UNL     1     -11.710   6.853  13.338  0.00  0.00    -0.380 OA
ATOM     12  C   UNL     1     -11.758   8.900  15.363  0.00  0.00    +0.061 C 
ATOM     14  C   UNL     1     -10.502   8.079  15.055  0.00  0.00    +0.047 C 
ATOM     15  C   UNL     1     -13.010   8.113  14.959  0.00  0.00    +0.047 C 
ATOM     18  C   UNL     1     -10.524   7.600  13.607  0.00  0.00    +0.161 C 
ATOM     19  C   UNL     1     -12.891   7.633  13.517  0.00  0.00    +0.161 C 
ENDBRANCH   4  12
TORSDOF 2
ENDMDL
MODEL 3
REMARK VINA RESULT:      -7.7     27.848     30.631
REMARK  Name = 11911979
REMARK  2 active torsions:
REMARK  status: ('A' for Active; 'I' for Inactive)
REMARK    1  A    between atoms: N_4  and  C_12
REMARK    2  A    between atoms: C_20  and  C_22
REMARK                            x       y       z     vdW  Elec       q    Type
REMARK                         _______ _______ _______ _____ _____    ______ ____
ROOT
ATOM      3  O   UNL     1      -5.957 -11.937   9.776  0.00  0.00    -0.267 OA
ATOM      4  N   UNL     1      -3.953 -10.965  14.267  0.00  0.00    -0.298 NA
ATOM      5  N   UNL     1      -4.105 -11.503  11.126  0.00  0.00    -0.311 N 
ATOM      6  C   UNL     1      -3.379 -13.066  13.024  0.00  0.00    +0.024 C 
ATOM      7  C   UNL     1      -2.108 -11.020  12.581  0.00  0.00    +0.050 C 
ATOM      8  C   UNL     1      -1.983 -12.535  12.729  0.00  0.00    +0.017 C 
ATOM      9  C   UNL     1      -3.924 -12.431  14.322  0.00  0.00    +0.090 C 
ATOM     10  C   UNL     1      -2.638 -10.415  13.902  0.00  0.00    +0.094 C 
ATOM     11  C   UNL     1      -4.279 -12.792  11.812  0.00  0.00    +0.130 C 
ATOM     13  C   UNL     1      -3.028 -10.665  11.427  0.00  0.00    +0.026 A 
ATOM     16  C   UNL     1      -2.823  -9.547  10.714  0.00  0.00    +0.022 A 
ATOM     17  C   UNL     1      -5.014 -11.210  10.090  0.00  0.00    +0.260 A 
ATOM     20  C   UNL     1      -4.774  -9.932   9.333  0.00  0.00    +0.053 A 
ATOM     21  C   UNL     1      -3.714  -9.175   9.652  0.00  0.00    +0.016 A 
ENDROOT
BRANCH  20  22
ATOM      1  S   UNL     1      -6.910  -8.416   8.613  0.00  0.00    -0.088 S 
ATOM     22  C   UNL     1      -5.657  -9.530   8.285  0.00  0.00    +0.026 A 
ATOM     23  C   UNL     1      -5.663  -9.921   6.961  0.00  0.00    +0.024 A 
ATOM     24  C   UNL     1      -6.707  -9.305   6.194  0.00  0.00    -0.010 A 
ATOM     25  C   UNL     1      -7.476  -8.445   6.985  0.00  0.00    +0.020 A 
ATOM     26  C   UNL     1      -7.047  -9.439   4.827  0.00  0.00    +0.009 A 
ATOM     27  C   UNL     1      -8.562  -7.725   6.448  0.00  0.00    +0.015 A 
ATOM     28  C   UNL     1      -8.123  -8.727   4.292  0.00  0.00    +0.001 A 
ATOM     29  C   UNL     1      -8.871  -7.878   5.096  0.00  0.00    +0.001 A 
ENDBRANCH  20  22
BRANCH   4  12
ATOM      2  O   UNL     1      -6.215 -10.545  17.778  0.00  0.00    -0.380 OA
ATOM     12  C   UNL     1      -4.422 -10.402  15.530  0.00  0.00    +0.061 C 
ATOM     14  C   UNL     1      -5.902 -10.019  15.425  0.00  0.00    +0.047 C 
ATOM     15  C   UNL     1      -4.216 -11.389  16.683  0.00  0.00    +0.047 C 
ATOM     18  C   UNL     1      -6.423  -9.547  16.778  0.00  0.00    +0.161 C 
ATOM     19  C   UNL     1      -4.832 -10.840  17.966  0.00  0.00    +0.161 C 
ENDBRANCH   4  12
TORSDOF 2
ENDMDL
MODEL 4
REMARK VINA RESULT:      -7.5     28.319     31.529
REMARK  Name = 11911979
REMARK  2 active torsions:
REMARK  status: ('A' for Active; 'I' for Inactive)
REMARK    1  A    between atoms: N_4  and  C_12
REMARK    2  A    between atoms: C_20  and  C_22
REMARK                            x       y       z     vdW  Elec       q    Type
REMARK                         _______ _______ _______ _____ _____    ______ ____
ROOT
ATOM      3  O   UNL     1       0.680   3.146  -4.593  0.00  0.00    -0.267 OA
ATOM      4  N   UNL     1       2.802   7.434  -6.091  0.00  0.00    -0.298 NA
ATOM      5  N   UNL     1       2.488   4.318  -5.488  0.00  0.00    -0.311 N 
ATOM      6  C   UNL     1       3.754   6.121  -4.179  0.00  0.00    +0.024 C 
ATOM      7  C   UNL     1       4.434   5.579  -6.468  0.00  0.00    +0.050 C 
ATOM      8  C   UNL     1       4.941   5.700  -5.033  0.00  0.00    +0.017 C 
ATOM      9  C   UNL     1       3.196   7.472  -4.678  0.00  0.00    +0.090 C 
ATOM     10  C   UNL     1       3.899   6.950  -6.943  0.00  0.00    +0.094 C 
ATOM     11  C   UNL     1       2.703   5.004  -4.206  0.00  0.00    +0.130 C 
ATOM     13  C   UNL     1       3.349   4.522  -6.569  0.00  0.00    +0.026 A 
ATOM     16  C   UNL     1       3.204   3.803  -7.693  0.00  0.00    +0.022 A 
ATOM     17  C   UNL     1       1.440   3.376  -5.534  0.00  0.00    +0.260 A 
ATOM     20  C   UNL     1       1.285   2.612  -6.821  0.00  0.00    +0.053 A 
ATOM     21  C   UNL     1       2.151   2.836  -7.820  0.00  0.00    +0.016 A 
ENDROOT
BRANCH  20  22
ATOM      1  S   UNL     1      -1.026   1.962  -8.091  0.00  0.00    -0.088 S 
ATOM     22  C   UNL     1       0.235   1.657  -6.979  0.00  0.00    +0.026 A 
ATOM     23  C   UNL     1       0.062   0.448  -6.336  0.00  0.00    +0.024 A 
ATOM     24  C   UNL     1      -1.121  -0.249  -6.753  0.00  0.00    -0.010 A 
ATOM     25  C   UNL     1      -1.820   0.476  -7.724  0.00  0.00    +0.020 A 
ATOM     26  C   UNL     1      -1.647  -1.497  -6.342  0.00  0.00    +0.009 A 
ATOM     27  C   UNL     1      -3.018  -0.011  -8.285  0.00  0.00    +0.015 A 
ATOM     28  C   UNL     1      -2.833  -1.983  -6.898  0.00  0.00    +0.001 A 
ATOM     29  C   UNL     1      -3.510  -1.245  -7.860  0.00  0.00    +0.001 A 
ENDBRANCH  20  22
BRANCH   4  12
ATOM      2  O   UNL     1       0.204  10.678  -6.690  0.00  0.00    -0.380 OA
ATOM     12  C   UNL     1       2.330   8.742  -6.539  0.00  0.00    +0.061 C 
ATOM     14  C   UNL     1       1.141   8.582  -7.491  0.00  0.00    +0.047 C 
ATOM     15  C   UNL     1       1.935   9.622  -5.349  0.00  0.00    +0.047 C 
ATOM     18  C   UNL     1       0.572   9.948  -7.861  0.00  0.00    +0.161 C 
ATOM     19  C   UNL     1       1.322  10.930  -5.839  0.00  0.00    +0.161 C 
ENDBRANCH   4  12
TORSDOF 2
ENDMDL
MODEL 5
REMARK VINA RESULT:      -7.1     23.386     27.317
REMARK  Name = 11911979
REMARK  2 active torsions:
REMARK  status: ('A' for Active; 'I' for Inactive)
REMARK    1  A    between atoms: N_4  and  C_12
REMARK    2  A    between atoms: C_20  and  C_22
REMARK                            x       y       z     vdW  Elec       q    Type
REMARK                         _______ _______ _______ _____ _____    ______ ____
ROOT
ATOM      3  O   UNL     1      -6.591   9.774   5.311  0.00  0.00    -0.267 OA
ATOM      4  N   UNL     1      -1.819  10.429   3.926  0.00  0.00    -0.298 NA
ATOM      5  N   UNL     1      -4.318   9.316   5.564  0.00  0.00    -0.311 N 
ATOM      6  C   UNL     1      -2.607  11.113   6.206  0.00  0.00    +0.024 C 
ATOM      7  C   UNL     1      -1.867   8.809   5.828  0.00  0.00    +0.050 C 
ATOM      8  C   UNL     1      -1.847   9.955   6.837  0.00  0.00    +0.017 C 
ATOM      9  C   UNL     1      -1.926  11.534   4.885  0.00  0.00    +0.090 C 
ATOM     10  C   UNL     1      -1.163   9.258   4.526  0.00  0.00    +0.094 C 
ATOM     11  C   UNL     1      -4.070  10.695   6.006  0.00  0.00    +0.130 C 
ATOM     13  C   UNL     1      -3.290   8.370   5.538  0.00  0.00    +0.026 A 
ATOM     16  C   UNL     1      -3.558   7.089   5.239  0.00  0.00    +0.022 A 
ATOM     17  C   UNL     1      -5.654   8.976   5.270  0.00  0.00    +0.260 A 
ATOM     20  C   UNL     1      -5.914   7.539   4.906  0.00  0.00    +0.053 A 
ATOM     21  C   UNL     1      -4.893   6.670   4.915  0.00  0.00    +0.016 A 
ENDROOT
BRANCH  20  22
ATOM      1  S   UNL     1      -8.140   6.190   5.682  0.00  0.00    -0.088 S 
ATOM     22  C   UNL     1      -7.229   7.102   4.561  0.00  0.00    +0.026 A 
ATOM     23  C   UNL     1      -7.930   7.311   3.391  0.00  0.00    +0.024 A 
ATOM     24  C   UNL     1      -9.237   6.717   3.401  0.00  0.00    -0.010 A 
ATOM     25  C   UNL     1      -9.485   6.063   4.612  0.00  0.00    +0.020 A 
ATOM     26  C   UNL     1     -10.250   6.704   2.413  0.00  0.00    +0.009 A 
ATOM     27  C   UNL     1     -10.707   5.404   4.855  0.00  0.00    +0.015 A 
ATOM     28  C   UNL     1     -11.462   6.052   2.651  0.00  0.00    +0.001 A 
ATOM     29  C   UNL     1     -11.687   5.410   3.861  0.00  0.00    +0.001 A 
ENDBRANCH  20  22
BRANCH   4  12
ATOM      2  O   UNL     1       1.044  10.478   0.855  0.00  0.00    -0.380 OA
ATOM     12  C   UNL     1      -1.123  10.854   2.714  0.00  0.00    +0.061 C 
ATOM     14  C   UNL     1       0.318  11.258   3.040  0.00  0.00    +0.047 C 
ATOM     15  C   UNL     1      -1.129   9.743   1.657  0.00  0.00    +0.047 C 
ATOM     18  C   UNL     1       1.081  11.582   1.760  0.00  0.00    +0.161 C 
ATOM     19  C   UNL     1      -0.287  10.153   0.454  0.00  0.00    +0.161 C 
ENDBRANCH   4  12
TORSDOF 2
ENDMDL
MODEL 6
REMARK VINA RESULT:      -7.1     34.966     37.603
REMARK  Name = 11911979
REMARK  2 active torsions:
REMARK  status: ('A' for Active; 'I' for Inactive)
REMARK    1  A    between atoms: N_4  and  C_12
REMARK    2  A    between atoms: C_20  and  C_22
REMARK                            x       y       z     vdW  Elec       q    Type
REMARK                         _______ _______ _______ _____ _____    ______ ____
ROOT
ATOM      3  O   UNL     1     -13.137 -10.513  38.841  0.00  0.00    -0.267 OA
ATOM      4  N   UNL     1     -11.212  -6.116  40.287  0.00  0.00    -0.298 NA
ATOM      5  N   UNL     1     -11.368  -9.243  39.676  0.00  0.00    -0.311 N 
ATOM      6  C   UNL     1     -11.490  -8.003  41.916  0.00  0.00    +0.024 C 
ATOM      7  C   UNL     1      -9.453  -7.870  40.563  0.00  0.00    +0.050 C 
ATOM      8  C   UNL     1      -9.984  -8.220  41.951  0.00  0.00    +0.017 C 
ATOM      9  C   UNL     1     -11.804  -6.532  41.565  0.00  0.00    +0.090 C 
ATOM     10  C   UNL     1      -9.768  -6.388  40.250  0.00  0.00    +0.094 C 
ATOM     11  C   UNL     1     -12.110  -8.991  40.920  0.00  0.00    +0.130 C 
ATOM     13  C   UNL     1     -10.062  -8.776  39.509  0.00  0.00    +0.026 A 
ATOM     16  C   UNL     1      -9.360  -9.111  38.414  0.00  0.00    +0.022 A 
ATOM     17  C   UNL     1     -12.000 -10.059  38.716  0.00  0.00    +0.260 A 
ATOM     20  C   UNL     1     -11.197 -10.387  37.487  0.00  0.00    +0.053 A 
ATOM     21  C   UNL     1      -9.942  -9.927  37.386  0.00  0.00    +0.016 A 
ENDROOT
BRANCH  20  22
ATOM      1  S   UNL     1     -11.030 -12.668  36.021  0.00  0.00    -0.088 S 
ATOM     22  C   UNL     1     -11.759 -11.181  36.441  0.00  0.00    +0.026 A 
ATOM     23  C   UNL     1     -12.871 -10.925  35.664  0.00  0.00    +0.024 A 
ATOM     24  C   UNL     1     -13.138 -11.958  34.703  0.00  0.00    -0.010 A 
ATOM     25  C   UNL     1     -12.195 -12.987  34.791  0.00  0.00    +0.020 A 
ATOM     26  C   UNL     1     -14.166 -12.072  33.737  0.00  0.00    +0.009 A 
ATOM     27  C   UNL     1     -12.253 -14.112  33.945  0.00  0.00    +0.015 A 
ATOM     28  C   UNL     1     -14.227 -13.187  32.897  0.00  0.00    +0.001 A 
ATOM     29  C   UNL     1     -13.279 -14.196  33.003  0.00  0.00    +0.001 A 
ENDBRANCH  20  22
BRANCH   4  12
ATOM      2  O   UNL     1     -10.819  -1.940  40.447  0.00  0.00    -0.380 OA
ATOM     12  C   UNL     1     -11.486  -4.707  40.017  0.00  0.00    +0.061 C 
ATOM     14  C   UNL     1     -11.830  -3.972  41.316  0.00  0.00    +0.047 C 
ATOM     15  C   UNL     1     -10.290  -4.035  39.336  0.00  0.00    +0.047 C 
ATOM     18  C   UNL     1     -11.995  -2.479  41.053  0.00  0.00    +0.161 C 
ATOM     19  C   UNL     1     -10.540  -2.538  39.182  0.00  0.00    +0.161 C 
ENDBRANCH   4  12
TORSDOF 2
ENDMDL
MODEL 7
REMARK VINA RESULT:      -6.9     24.626     29.826
REMARK  Name = 11911979
REMARK  2 active torsions:
REMARK  status: ('A' for Active; 'I' for Inactive)
REMARK    1  A    between atoms: N_4  and  C_12
REMARK    2  A    between atoms: C_20  and  C_22
REMARK                            x       y       z     vdW  Elec       q    Type
REMARK                         _______ _______ _______ _____ _____    ______ ____
ROOT
ATOM      3  O   UNL     1       3.670   3.565  -7.845  0.00  0.00    -0.267 OA
ATOM      4  N   UNL     1       7.276   5.206  -4.773  0.00  0.00    -0.298 NA
ATOM      5  N   UNL     1       4.495   5.140  -6.334  0.00  0.00    -0.311 N 
ATOM      6  C   UNL     1       6.600   6.529  -6.794  0.00  0.00    +0.024 C 
ATOM      7  C   UNL     1       5.379   6.831  -4.693  0.00  0.00    +0.050 C 
ATOM      8  C   UNL     1       5.927   7.570  -5.911  0.00  0.00    +0.017 C 
ATOM      9  C   UNL     1       7.739   5.834  -6.016  0.00  0.00    +0.090 C 
ATOM     10  C   UNL     1       6.545   6.162  -3.928  0.00  0.00    +0.094 C 
ATOM     11  C   UNL     1       5.538   5.539  -7.291  0.00  0.00    +0.130 C 
ATOM     13  C   UNL     1       4.352   5.794  -5.108  0.00  0.00    +0.026 A 
ATOM     16  C   UNL     1       3.326   5.491  -4.297  0.00  0.00    +0.022 A 
ATOM     17  C   UNL     1       3.594   4.143  -6.760  0.00  0.00    +0.260 A 
ATOM     20  C   UNL     1       2.476   3.804  -5.812  0.00  0.00    +0.053 A 
ATOM     21  C   UNL     1       2.376   4.476  -4.656  0.00  0.00    +0.016 A 
ENDROOT
BRANCH  20  22
ATOM      1  S   UNL     1       0.485   2.996  -7.474  0.00  0.00    -0.088 S 
ATOM     22  C   UNL     1       1.529   2.786  -6.138  0.00  0.00    +0.026 A 
ATOM     23  C   UNL     1       1.306   1.580  -5.506  0.00  0.00    +0.024 A 
ATOM     24  C   UNL     1       0.263   0.806  -6.118  0.00  0.00    -0.010 A 
ATOM     25  C   UNL     1      -0.279   1.471  -7.222  0.00  0.00    +0.020 A 
ATOM     26  C   UNL     1      -0.260  -0.465  -5.779  0.00  0.00    +0.009 A 
ATOM     27  C   UNL     1      -1.320   0.904  -7.984  0.00  0.00    +0.015 A 
ATOM     28  C   UNL     1      -1.291  -1.030  -6.533  0.00  0.00    +0.001 A 
ATOM     29  C   UNL     1      -1.814  -0.350  -7.625  0.00  0.00    +0.001 A 
ENDBRANCH  20  22
BRANCH   4  12
ATOM      2  O   UNL     1      11.161   4.691  -3.269  0.00  0.00    -0.380 OA
ATOM     12  C   UNL     1       8.389   4.607  -4.042  0.00  0.00    +0.061 C 
ATOM     14  C   UNL     1       9.521   4.236  -5.005  0.00  0.00    +0.047 C 
ATOM     15  C   UNL     1       8.912   5.557  -2.959  0.00  0.00    +0.047 C 
ATOM     18  C   UNL     1      10.731   3.726  -4.229  0.00  0.00    +0.161 C 
ATOM     19  C   UNL     1      10.155   4.972  -2.297  0.00  0.00    +0.161 C 
ENDBRANCH   4  12
TORSDOF 2
ENDMDL
MODEL 8
REMARK VINA RESULT:      -6.9     16.722     21.264
REMARK  Name = 11911979
REMARK  2 active torsions:
REMARK  status: ('A' for Active; 'I' for Inactive)
REMARK    1  A    between atoms: N_4  and  C_12
REMARK    2  A    between atoms: C_20  and  C_22
REMARK                            x       y       z     vdW  Elec       q    Type
REMARK                         _______ _______ _______ _____ _____    ______ ____
ROOT
ATOM      3  O   UNL     1      12.242   7.501   1.539  0.00  0.00    -0.267 OA
ATOM      4  N   UNL     1      11.993   4.539  -2.497  0.00  0.00    -0.298 NA
ATOM      5  N   UNL     1      12.942   5.621   0.349  0.00  0.00    -0.311 N 
ATOM      6  C   UNL     1      14.098   5.779  -1.933  0.00  0.00    +0.024 C 
ATOM      7  C   UNL     1      13.687   3.584  -0.928  0.00  0.00    +0.050 C 
ATOM      8  C   UNL     1      14.775   4.480  -1.515  0.00  0.00    +0.017 C 
ATOM      9  C   UNL     1      13.001   5.490  -2.980  0.00  0.00    +0.090 C 
ATOM     10  C   UNL     1      12.615   3.300  -2.005  0.00  0.00    +0.094 C 
ATOM     11  C   UNL     1      13.549   6.475  -0.681  0.00  0.00    +0.130 C 
ATOM     13  C   UNL     1      13.057   4.229   0.292  0.00  0.00    +0.026 A 
ATOM     16  C   UNL     1      12.594   3.472   1.299  0.00  0.00    +0.022 A 
ATOM     17  C   UNL     1      12.335   6.277   1.439  0.00  0.00    +0.260 A 
ATOM     20  C   UNL     1      11.797   5.396   2.534  0.00  0.00    +0.053 A 
ATOM     21  C   UNL     1      11.951   4.068   2.436  0.00  0.00    +0.016 A 
ENDROOT
BRANCH  20  22
ATOM      1  S   UNL     1      12.058   6.677   4.915  0.00  0.00    -0.088 S 
ATOM     22  C   UNL     1      11.137   5.963   3.666  0.00  0.00    +0.026 A 
ATOM     23  C   UNL     1       9.784   6.033   3.932  0.00  0.00    +0.024 A 
ATOM     24  C   UNL     1       9.486   6.680   5.178  0.00  0.00    -0.010 A 
ATOM     25  C   UNL     1      10.655   7.088   5.828  0.00  0.00    +0.020 A 
ATOM     26  C   UNL     1       8.245   6.946   5.804  0.00  0.00    +0.009 A 
ATOM     27  C   UNL     1      10.613   7.748   7.073  0.00  0.00    +0.015 A 
ATOM     28  C   UNL     1       8.200   7.601   7.037  0.00  0.00    +0.001 A 
ATOM     29  C   UNL     1       9.373   7.997   7.663  0.00  0.00    +0.001 A 
ENDBRANCH  20  22
BRANCH   4  12
ATOM      2  O   UNL     1      10.155   2.615  -5.744  0.00  0.00    -0.380 OA
ATOM     12  C   UNL     1      11.005   4.251  -3.533  0.00  0.00    +0.061 C 
ATOM     14  C   UNL     1      11.643   4.352  -4.922  0.00  0.00    +0.047 C 
ATOM     15  C   UNL     1      10.390   2.861  -3.338  0.00  0.00    +0.047 C 
ATOM     18  C   UNL     1      10.644   3.933  -5.996  0.00  0.00    +0.161 C 
ATOM     19  C   UNL     1       9.462   2.525  -4.500  0.00  0.00    +0.161 C 
ENDBRANCH   4  12
TORSDOF 2
ENDMDL
MODEL 9
REMARK VINA RESULT:      -6.7     31.860     33.595
REMARK  Name = 11911979
REMARK  2 active torsions:
REMARK  status: ('A' for Active; 'I' for Inactive)
REMARK    1  A    between atoms: N_4  and  C_12
REMARK    2  A    between atoms: C_20  and  C_22
REMARK                            x       y       z     vdW  Elec       q    Type
REMARK                         _______ _______ _______ _____ _____    ______ ____
ROOT
ATOM      3  O   UNL     1     -11.513  -7.682   9.376  0.00  0.00    -0.267 OA
ATOM      4  N   UNL     1     -14.709  -4.162  10.966  0.00  0.00    -0.298 NA
ATOM      5  N   UNL     1     -11.945  -5.683  10.499  0.00  0.00    -0.311 N 
ATOM      6  C   UNL     1     -13.415  -5.563  12.595  0.00  0.00    +0.024 C 
ATOM      7  C   UNL     1     -12.408  -3.519  11.699  0.00  0.00    +0.050 C 
ATOM      8  C   UNL     1     -12.543  -4.370  12.959  0.00  0.00    +0.017 C 
ATOM      9  C   UNL     1     -14.799  -5.078  12.109  0.00  0.00    +0.090 C 
ATOM     10  C   UNL     1     -13.806  -3.036  11.250  0.00  0.00    +0.094 C 
ATOM     11  C   UNL     1     -12.685  -6.407  11.543  0.00  0.00    +0.130 C 
ATOM     13  C   UNL     1     -11.735  -4.305  10.588  0.00  0.00    +0.026 A 
ATOM     16  C   UNL     1     -10.962  -3.680   9.686  0.00  0.00    +0.022 A 
ATOM     17  C   UNL     1     -11.376  -6.462   9.471  0.00  0.00    +0.260 A 
ATOM     20  C   UNL     1     -10.544  -5.724   8.458  0.00  0.00    +0.053 A 
ATOM     21  C   UNL     1     -10.361  -4.404   8.601  0.00  0.00    +0.016 A 
ENDROOT
BRANCH  20  22
ATOM      1  S   UNL     1      -8.317  -6.913   7.453  0.00  0.00    -0.088 S 
ATOM     22  C   UNL     1      -9.950  -6.418   7.359  0.00  0.00    +0.026 A 
ATOM     23  C   UNL     1     -10.520  -6.778   6.155  0.00  0.00    +0.024 A 
ATOM     24  C   UNL     1      -9.612  -7.471   5.286  0.00  0.00    -0.010 A 
ATOM     25  C   UNL     1      -8.354  -7.616   5.879  0.00  0.00    +0.020 A 
ATOM     26  C   UNL     1      -9.804  -7.998   3.986  0.00  0.00    +0.009 A 
ATOM     27  C   UNL     1      -7.296  -8.266   5.212  0.00  0.00    +0.015 A 
ATOM     28  C   UNL     1      -8.757  -8.644   3.323  0.00  0.00    +0.001 A 
ATOM     29  C   UNL     1      -7.517  -8.776   3.932  0.00  0.00    +0.001 A 
ENDBRANCH  20  22
BRANCH   4  12
ATOM      2  O   UNL     1     -17.693  -2.337   8.645  0.00  0.00    -0.380 OA
ATOM     12  C   UNL     1     -16.032  -3.685  10.572  0.00  0.00    +0.061 C 
ATOM     14  C   UNL     1     -16.020  -2.163  10.401  0.00  0.00    +0.047 C 
ATOM     15  C   UNL     1     -16.494  -4.355   9.273  0.00  0.00    +0.047 C 
ATOM     18  C   UNL     1     -17.366  -1.680   9.870  0.00  0.00    +0.161 C 
ATOM     19  C   UNL     1     -17.813  -3.750   8.806  0.00  0.00    +0.161 C 
ENDBRANCH   4  12
TORSDOF 2
ENDMDL
MODEL 10
REMARK VINA RESULT:      -6.7     14.727     19.439
REMARK  Name = 11911979
REMARK  2 active torsions:
REMARK  status: ('A' for Active; 'I' for Inactive)
REMARK    1  A    between atoms: N_4  and  C_12
REMARK    2  A    between atoms: C_20  and  C_22
REMARK                            x       y       z     vdW  Elec       q    Type
REMARK                         _______ _______ _______ _____ _____    ______ ____
ROOT
ATOM      3  O   UNL     1       9.946   6.892   0.934  0.00  0.00    -0.267 OA
ATOM      4  N   UNL     1      10.851   7.631   5.809  0.00  0.00    -0.298 NA
ATOM      5  N   UNL     1       9.744   6.235   3.164  0.00  0.00    -0.311 N 
ATOM      6  C   UNL     1       8.509   7.642   4.914  0.00  0.00    +0.024 C 
ATOM      7  C   UNL     1       9.538   5.519   5.568  0.00  0.00    +0.050 C 
ATOM      8  C   UNL     1       8.228   6.302   5.579  0.00  0.00    +0.017 C 
ATOM      9  C   UNL     1       9.606   8.399   5.694  0.00  0.00    +0.090 C 
ATOM     10  C   UNL     1      10.609   6.294   6.371  0.00  0.00    +0.094 C 
ATOM     11  C   UNL     1       8.891   7.398   3.449  0.00  0.00    +0.130 C 
ATOM     13  C   UNL     1      10.011   5.278   4.146  0.00  0.00    +0.026 A 
ATOM     16  C   UNL     1      10.698   4.167   3.837  0.00  0.00    +0.022 A 
ATOM     17  C   UNL     1      10.187   6.086   1.834  0.00  0.00    +0.260 A 
ATOM     20  C   UNL     1      10.982   4.846   1.530  0.00  0.00    +0.053 A 
ATOM     21  C   UNL     1      11.194   3.952   2.507  0.00  0.00    +0.016 A 
ENDROOT
BRANCH  20  22
ATOM      1  S   UNL     1      13.052   5.208  -0.191  0.00  0.00    -0.088 S 
ATOM     22  C   UNL     1      11.503   4.617   0.220  0.00  0.00    +0.026 A 
ATOM     23  C   UNL     1      10.918   3.952  -0.838  0.00  0.00    +0.024 A 
ATOM     24  C   UNL     1      11.744   3.920  -2.012  0.00  0.00    -0.010 A 
ATOM     25  C   UNL     1      12.958   4.579  -1.794  0.00  0.00    +0.020 A 
ATOM     26  C   UNL     1      11.513   3.346  -3.285  0.00  0.00    +0.009 A 
ATOM     27  C   UNL     1      13.933   4.678  -2.806  0.00  0.00    +0.015 A 
ATOM     28  C   UNL     1      12.478   3.441  -4.290  0.00  0.00    +0.001 A 
ATOM     29  C   UNL     1      13.676   4.101  -4.050  0.00  0.00    +0.001 A 
ENDBRANCH  20  22
BRANCH   4  12
ATOM      2  O   UNL     1      13.579  10.636   6.883  0.00  0.00    -0.380 OA
ATOM     12  C   UNL     1      11.844   8.357   6.597  0.00  0.00    +0.061 C 
ATOM     14  C   UNL     1      13.151   8.497   5.811  0.00  0.00    +0.047 C 
ATOM     15  C   UNL     1      11.323   9.740   7.000  0.00  0.00    +0.047 C 
ATOM     18  C   UNL     1      14.144   9.360   6.582  0.00  0.00    +0.161 C 
ATOM     19  C   UNL     1      12.418  10.533   7.706  0.00  0.00    +0.161 C 
ENDBRANCH   4  12
TORSDOF 2
ENDMDL
