MODEL 1
REMARK VINA RESULT:      -6.2      0.000      0.000
REMARK  Name = 25388930
REMARK  9 active torsions:
REMARK  status: ('A' for Active; 'I' for Inactive)
REMARK    1  A    between atoms: S_1  and  N_7
REMARK    2  A    between atoms: S_1  and  C_22
REMARK    3  A    between atoms: O_4  and  C_23
REMARK    4  A    between atoms: O_4  and  C_28
REMARK    5  A    between atoms: N_6  and  C_20
REMARK    6  A    between atoms: N_7  and  C_16
REMARK    7  A    between atoms: C_10  and  C_17
REMARK    8  A    between atoms: C_11  and  C_16
REMARK    9  A    between atoms: C_19  and  C_21
REMARK                            x       y       z     vdW  Elec       q    Type
REMARK                         _______ _______ _______ _____ _____    ______ ____
ROOT
ATOM      5  N   UNL     1      -6.461 -10.518  17.932  0.00  0.00    -0.297 NA
ATOM      9  C   UNL     1      -4.415 -12.035  17.384  0.00  0.00    +0.002 C 
ATOM     10  C   UNL     1      -4.283 -10.662  16.667  0.00  0.00    +0.055 C 
ATOM     11  C   UNL     1      -6.927 -11.860  17.491  0.00  0.00    +0.072 C 
ATOM     12  C   UNL     1      -5.743 -12.702  16.967  0.00  0.00    +0.024 C 
ATOM     13  C   UNL     1      -4.512 -11.739  18.897  0.00  0.00    +0.019 C 
ATOM     14  C   UNL     1      -5.622  -9.899  16.875  0.00  0.00    +0.094 C 
ATOM     15  C   UNL     1      -5.622 -10.702  19.140  0.00  0.00    +0.085 C 
ENDROOT
BRANCH  10  17
ATOM      6  N   UNL     1      -2.519 -10.618  14.842  0.00  0.00    -0.270 N 
ATOM      8  N   UNL     1      -2.332 -10.613  13.512  0.00  0.00    -0.171 NA
ATOM     17  C   UNL     1      -3.832 -10.652  15.213  0.00  0.00    +0.044 A 
ATOM     18  C   UNL     1      -4.552 -10.668  14.043  0.00  0.00    +0.053 A 
ATOM     19  C   UNL     1      -3.576 -10.644  13.029  0.00  0.00    +0.096 A 
ATOM     20  C   UNL     1      -1.371 -10.588  15.718  0.00  0.00    +0.172 C 
BRANCH  19  21
ATOM     21  C   UNL     1      -3.811 -10.648  11.609  0.00  0.00    +0.044 A 
ATOM     23  C   UNL     1      -4.149 -11.826  10.943  0.00  0.00    +0.129 A 
ATOM     24  C   UNL     1      -3.698  -9.452  10.899  0.00  0.00    +0.014 A 
ATOM     25  C   UNL     1      -4.374 -11.809   9.567  0.00  0.00    +0.046 A 
ATOM     26  C   UNL     1      -3.923  -9.435   9.522  0.00  0.00    +0.001 A 
ATOM     27  C   UNL     1      -4.260 -10.614   8.856  0.00  0.00    +0.004 A 
BRANCH  23   4
ATOM      4  O   UNL     1      -4.268 -13.009  11.613  0.00  0.00    -0.494 OA
ATOM     28  C   UNL     1      -3.230 -13.966  11.422  0.00  0.00    +0.277 C 
ENDBRANCH  23   4
ENDBRANCH  19  21
ENDBRANCH  10  17
BRANCH  11  16
ATOM     16  C   UNL     1      -8.063 -11.776  16.471  0.00  0.00    +0.124 C 
BRANCH  16   7
ATOM      7  N   UNL     1      -9.169 -10.988  17.042  0.00  0.00    -0.193 NA
ATOM     29  H   UNL     1      -9.201 -11.012  18.070  0.00  0.00    +0.148 HD
BRANCH   7   1
ATOM      1  S   UNL     1      -9.608  -9.511  16.306  0.00  0.00    +0.027 S 
ATOM      2  O   UNL     1      -9.017  -8.405  17.034  0.00  0.00    -0.158 OA
ATOM      3  O   UNL     1     -11.032  -9.539  16.028  0.00  0.00    -0.158 OA
ATOM     22  C   UNL     1      -8.760  -9.657  14.750  0.00  0.00    +0.214 C 
ENDBRANCH   7   1
ENDBRANCH  16   7
ENDBRANCH  11  16
TORSDOF 6
ENDMDL
MODEL 2
REMARK VINA RESULT:      -6.1      2.934      7.031
REMARK  Name = 25388930
REMARK  9 active torsions:
REMARK  status: ('A' for Active; 'I' for Inactive)
REMARK    1  A    between atoms: S_1  and  N_7
REMARK    2  A    between atoms: S_1  and  C_22
REMARK    3  A    between atoms: O_4  and  C_23
REMARK    4  A    between atoms: O_4  and  C_28
REMARK    5  A    between atoms: N_6  and  C_20
REMARK    6  A    between atoms: N_7  and  C_16
REMARK    7  A    between atoms: C_10  and  C_17
REMARK    8  A    between atoms: C_11  and  C_16
REMARK    9  A    between atoms: C_19  and  C_21
REMARK                            x       y       z     vdW  Elec       q    Type
REMARK                         _______ _______ _______ _____ _____    ______ ____
ROOT
ATOM      5  N   UNL     1      -4.987 -12.776  17.207  0.00  0.00    -0.297 NA
ATOM      9  C   UNL     1      -5.511 -10.782  18.800  0.00  0.00    +0.002 C 
ATOM     10  C   UNL     1      -6.815 -11.543  18.432  0.00  0.00    +0.055 C 
ATOM     11  C   UNL     1      -4.349 -11.534  16.694  0.00  0.00    +0.072 C 
ATOM     12  C   UNL     1      -4.817 -10.307  17.507  0.00  0.00    +0.024 C 
ATOM     13  C   UNL     1      -4.570 -11.809  19.469  0.00  0.00    +0.019 C 
ATOM     14  C   UNL     1      -6.453 -12.580  17.332  0.00  0.00    +0.094 C 
ATOM     15  C   UNL     1      -4.439 -13.042  18.559  0.00  0.00    +0.085 C 
ENDROOT
BRANCH  10  17
ATOM      6  N   UNL     1      -9.240 -10.851  18.721  0.00  0.00    -0.270 N 
ATOM      8  N   UNL     1     -10.203 -10.039  18.251  0.00  0.00    -0.171 NA
ATOM     17  C   UNL     1      -8.047 -10.725  18.072  0.00  0.00    +0.044 A 
ATOM     18  C   UNL     1      -8.244  -9.765  17.109  0.00  0.00    +0.053 A 
ATOM     19  C   UNL     1      -9.589  -9.379  17.267  0.00  0.00    +0.096 A 
ATOM     20  C   UNL     1      -9.541 -11.742  19.818  0.00  0.00    +0.172 C 
BRANCH  19  21
ATOM     21  C   UNL     1     -10.297  -8.392  16.495  0.00  0.00    +0.044 A 
ATOM     23  C   UNL     1     -10.738  -8.676  15.202  0.00  0.00    +0.129 A 
ATOM     24  C   UNL     1     -10.541  -7.138  17.055  0.00  0.00    +0.014 A 
ATOM     25  C   UNL     1     -11.423  -7.707  14.470  0.00  0.00    +0.046 A 
ATOM     26  C   UNL     1     -11.226  -6.168  16.323  0.00  0.00    +0.001 A 
ATOM     27  C   UNL     1     -11.666  -6.452  15.030  0.00  0.00    +0.004 A 
BRANCH  23   4
ATOM      4  O   UNL     1     -10.513  -9.894  14.629  0.00  0.00    -0.494 OA
ATOM     28  C   UNL     1      -9.606  -9.934  13.531  0.00  0.00    +0.277 C 
ENDBRANCH  23   4
ENDBRANCH  19  21
ENDBRANCH  10  17
BRANCH  11  16
ATOM     16  C   UNL     1      -4.571 -11.343  15.193  0.00  0.00    +0.124 C 
BRANCH  16   7
ATOM      7  N   UNL     1      -3.658 -10.299  14.698  0.00  0.00    -0.193 NA
ATOM     29  H   UNL     1      -3.759  -9.399  15.187  0.00  0.00    +0.148 HD
BRANCH   7   1
ATOM      1  S   UNL     1      -2.073 -10.729  14.229  0.00  0.00    +0.027 S 
ATOM      2  O   UNL     1      -1.850 -12.138  14.490  0.00  0.00    -0.158 OA
ATOM      3  O   UNL     1      -1.154  -9.727  14.734  0.00  0.00    -0.158 OA
ATOM     22  C   UNL     1      -2.184 -10.510  12.468  0.00  0.00    +0.214 C 
ENDBRANCH   7   1
ENDBRANCH  16   7
ENDBRANCH  11  16
TORSDOF 6
ENDMDL
MODEL 3
REMARK VINA RESULT:      -5.9      1.953      2.679
REMARK  Name = 25388930
REMARK  9 active torsions:
REMARK  status: ('A' for Active; 'I' for Inactive)
REMARK    1  A    between atoms: S_1  and  N_7
REMARK    2  A    between atoms: S_1  and  C_22
REMARK    3  A    between atoms: O_4  and  C_23
REMARK    4  A    between atoms: O_4  and  C_28
REMARK    5  A    between atoms: N_6  and  C_20
REMARK    6  A    between atoms: N_7  and  C_16
REMARK    7  A    between atoms: C_10  and  C_17
REMARK    8  A    between atoms: C_11  and  C_16
REMARK    9  A    between atoms: C_19  and  C_21
REMARK                            x       y       z     vdW  Elec       q    Type
REMARK                         _______ _______ _______ _____ _____    ______ ____
ROOT
ATOM      5  N   UNL     1      -6.787 -10.232  18.676  0.00  0.00    -0.297 NA
ATOM      9  C   UNL     1      -6.982 -12.393  17.235  0.00  0.00    +0.002 C 
ATOM     10  C   UNL     1      -5.553 -11.792  17.125  0.00  0.00    +0.055 C 
ATOM     11  C   UNL     1      -7.996 -10.159  17.812  0.00  0.00    +0.072 C 
ATOM     12  C   UNL     1      -8.016 -11.331  16.806  0.00  0.00    +0.024 C 
ATOM     13  C   UNL     1      -7.228 -12.687  18.731  0.00  0.00    +0.019 C 
ATOM     14  C   UNL     1      -5.574 -10.411  17.840  0.00  0.00    +0.094 C 
ATOM     15  C   UNL     1      -6.926 -11.421  19.551  0.00  0.00    +0.085 C 
ENDROOT
BRANCH  10  17
ATOM      6  N   UNL     1      -4.409 -12.814  15.103  0.00  0.00    -0.270 N 
ATOM      8  N   UNL     1      -3.880 -12.539  13.899  0.00  0.00    -0.171 NA
ATOM     17  C   UNL     1      -4.908 -11.721  15.749  0.00  0.00    +0.044 A 
ATOM     18  C   UNL     1      -4.688 -10.657  14.908  0.00  0.00    +0.053 A 
ATOM     19  C   UNL     1      -4.053 -11.220  13.785  0.00  0.00    +0.096 A 
ATOM     20  C   UNL     1      -4.402 -14.177  15.583  0.00  0.00    +0.172 C 
BRANCH  19  21
ATOM     21  C   UNL     1      -3.609 -10.522  12.607  0.00  0.00    +0.044 A 
ATOM     23  C   UNL     1      -4.525 -10.045  11.670  0.00  0.00    +0.129 A 
ATOM     24  C   UNL     1      -2.242 -10.323  12.411  0.00  0.00    +0.014 A 
ATOM     25  C   UNL     1      -4.075  -9.370  10.535  0.00  0.00    +0.046 A 
ATOM     26  C   UNL     1      -1.792  -9.649  11.277  0.00  0.00    +0.001 A 
ATOM     27  C   UNL     1      -2.708  -9.172  10.339  0.00  0.00    +0.004 A 
BRANCH  23   4
ATOM      4  O   UNL     1      -5.867 -10.224  11.837  0.00  0.00    -0.494 OA
ATOM     28  C   UNL     1      -6.719  -9.171  11.396  0.00  0.00    +0.277 C 
ENDBRANCH  23   4
ENDBRANCH  19  21
ENDBRANCH  10  17
BRANCH  11  16
ATOM     16  C   UNL     1      -8.131  -8.805  17.114  0.00  0.00    +0.124 C 
BRANCH  16   7
ATOM      7  N   UNL     1      -9.347  -8.130  17.599  0.00  0.00    -0.193 NA
ATOM     29  H   UNL     1      -9.161  -7.228  18.056  0.00  0.00    +0.148 HD
BRANCH   7   1
ATOM      1  S   UNL     1     -10.780  -8.228  16.675  0.00  0.00    +0.027 S 
ATOM      2  O   UNL     1     -11.845  -8.796  17.479  0.00  0.00    -0.158 OA
ATOM      3  O   UNL     1     -10.455  -8.784  15.376  0.00  0.00    -0.158 OA
ATOM     22  C   UNL     1     -11.135  -6.501  16.440  0.00  0.00    +0.214 C 
ENDBRANCH   7   1
ENDBRANCH  16   7
ENDBRANCH  11  16
TORSDOF 6
ENDMDL
MODEL 4
REMARK VINA RESULT:      -5.8     24.151     26.011
REMARK  Name = 25388930
REMARK  9 active torsions:
REMARK  status: ('A' for Active; 'I' for Inactive)
REMARK    1  A    between atoms: S_1  and  N_7
REMARK    2  A    between atoms: S_1  and  C_22
REMARK    3  A    between atoms: O_4  and  C_23
REMARK    4  A    between atoms: O_4  and  C_28
REMARK    5  A    between atoms: N_6  and  C_20
REMARK    6  A    between atoms: N_7  and  C_16
REMARK    7  A    between atoms: C_10  and  C_17
REMARK    8  A    between atoms: C_11  and  C_16
REMARK    9  A    between atoms: C_19  and  C_21
REMARK                            x       y       z     vdW  Elec       q    Type
REMARK                         _______ _______ _______ _____ _____    ______ ____
ROOT
ATOM      5  N   UNL     1       9.629   8.073   6.927  0.00  0.00    -0.297 NA
ATOM      9  C   UNL     1       9.333   5.642   6.040  0.00  0.00    +0.002 C 
ATOM     10  C   UNL     1      10.757   6.171   5.713  0.00  0.00    +0.055 C 
ATOM     11  C   UNL     1       8.372   7.969   6.139  0.00  0.00    +0.072 C 
ATOM     12  C   UNL     1       8.283   6.598   5.435  0.00  0.00    +0.024 C 
ATOM     13  C   UNL     1       9.175   5.708   7.575  0.00  0.00    +0.019 C 
ATOM     14  C   UNL     1      10.789   7.680   6.088  0.00  0.00    +0.094 C 
ATOM     15  C   UNL     1       9.535   7.122   8.060  0.00  0.00    +0.085 C 
ENDROOT
BRANCH  10  17
ATOM      6  N   UNL     1      12.399   6.572   3.820  0.00  0.00    -0.270 N 
ATOM      8  N   UNL     1      12.737   6.195   2.575  0.00  0.00    -0.171 NA
ATOM     17  C   UNL     1      11.319   5.908   4.323  0.00  0.00    +0.044 A 
ATOM     18  C   UNL     1      10.921   5.038   3.337  0.00  0.00    +0.053 A 
ATOM     19  C   UNL     1      11.831   5.259   2.285  0.00  0.00    +0.096 A 
ATOM     20  C   UNL     1      13.173   7.597   4.482  0.00  0.00    +0.172 C 
BRANCH  19  21
ATOM     21  C   UNL     1      11.849   4.592   1.010  0.00  0.00    +0.044 A 
ATOM     23  C   UNL     1      12.736   3.544   0.763  0.00  0.00    +0.129 A 
ATOM     24  C   UNL     1      10.963   5.005   0.015  0.00  0.00    +0.014 A 
ATOM     25  C   UNL     1      12.738   2.910  -0.480  0.00  0.00    +0.046 A 
ATOM     26  C   UNL     1      10.964   4.371  -1.227  0.00  0.00    +0.001 A 
ATOM     27  C   UNL     1      11.852   3.324  -1.475  0.00  0.00    +0.004 A 
BRANCH  23   4
ATOM      4  O   UNL     1      13.613   3.118   1.717  0.00  0.00    -0.494 OA
ATOM     28  C   UNL     1      14.971   3.525   1.575  0.00  0.00    +0.277 C 
ENDBRANCH  23   4
ENDBRANCH  19  21
ENDBRANCH  10  17
BRANCH  11  16
ATOM     16  C   UNL     1       8.205   9.128   5.154  0.00  0.00    +0.124 C 
BRANCH  16   7
ATOM      7  N   UNL     1       6.797   9.199   4.727  0.00  0.00    -0.193 NA
ATOM     29  H   UNL     1       6.145   9.407   5.495  0.00  0.00    +0.148 HD
BRANCH   7   1
ATOM      1  S   UNL     1       6.420   9.885   3.209  0.00  0.00    +0.027 S 
ATOM      2  O   UNL     1       4.981   9.959   3.048  0.00  0.00    -0.158 OA
ATOM      3  O   UNL     1       7.248   9.255   2.199  0.00  0.00    -0.158 OA
ATOM     22  C   UNL     1       7.029  11.540   3.439  0.00  0.00    +0.214 C 
ENDBRANCH   7   1
ENDBRANCH  16   7
ENDBRANCH  11  16
TORSDOF 6
ENDMDL
MODEL 5
REMARK VINA RESULT:      -5.6      1.822      2.146
REMARK  Name = 25388930
REMARK  9 active torsions:
REMARK  status: ('A' for Active; 'I' for Inactive)
REMARK    1  A    between atoms: S_1  and  N_7
REMARK    2  A    between atoms: S_1  and  C_22
REMARK    3  A    between atoms: O_4  and  C_23
REMARK    4  A    between atoms: O_4  and  C_28
REMARK    5  A    between atoms: N_6  and  C_20
REMARK    6  A    between atoms: N_7  and  C_16
REMARK    7  A    between atoms: C_10  and  C_17
REMARK    8  A    between atoms: C_11  and  C_16
REMARK    9  A    between atoms: C_19  and  C_21
REMARK                            x       y       z     vdW  Elec       q    Type
REMARK                         _______ _______ _______ _____ _____    ______ ____
ROOT
ATOM      5  N   UNL     1      -6.438 -10.513  17.874  0.00  0.00    -0.297 NA
ATOM      9  C   UNL     1      -4.358 -11.994  17.361  0.00  0.00    +0.002 C 
ATOM     10  C   UNL     1      -4.253 -10.632  16.619  0.00  0.00    +0.055 C 
ATOM     11  C   UNL     1      -6.873 -11.873  17.457  0.00  0.00    +0.072 C 
ATOM     12  C   UNL     1      -5.669 -12.697  16.952  0.00  0.00    +0.024 C 
ATOM     13  C   UNL     1      -4.466 -11.673  18.868  0.00  0.00    +0.019 C 
ATOM     14  C   UNL     1      -5.609  -9.895  16.809  0.00  0.00    +0.094 C 
ATOM     15  C   UNL     1      -5.599 -10.656  19.088  0.00  0.00    +0.085 C 
ENDROOT
BRANCH  10  17
ATOM      6  N   UNL     1      -2.485 -10.570  14.799  0.00  0.00    -0.270 N 
ATOM      8  N   UNL     1      -2.292 -10.588  13.470  0.00  0.00    -0.171 NA
ATOM     17  C   UNL     1      -3.797 -10.638  15.167  0.00  0.00    +0.044 A 
ATOM     18  C   UNL     1      -4.512 -10.703  13.996  0.00  0.00    +0.053 A 
ATOM     19  C   UNL     1      -3.533 -10.669  12.984  0.00  0.00    +0.096 A 
ATOM     20  C   UNL     1      -1.341 -10.485  15.678  0.00  0.00    +0.172 C 
BRANCH  19  21
ATOM     21  C   UNL     1      -3.763 -10.711  11.564  0.00  0.00    +0.044 A 
ATOM     23  C   UNL     1      -3.853 -11.929  10.889  0.00  0.00    +0.129 A 
ATOM     24  C   UNL     1      -3.897  -9.513  10.862  0.00  0.00    +0.014 A 
ATOM     25  C   UNL     1      -4.076 -11.949   9.513  0.00  0.00    +0.046 A 
ATOM     26  C   UNL     1      -4.120  -9.533   9.485  0.00  0.00    +0.001 A 
ATOM     27  C   UNL     1      -4.210 -10.750   8.811  0.00  0.00    +0.004 A 
BRANCH  23   4
ATOM      4  O   UNL     1      -3.727 -13.115  11.550  0.00  0.00    -0.494 OA
ATOM     28  C   UNL     1      -4.790 -14.052  11.406  0.00  0.00    +0.277 C 
ENDBRANCH  23   4
ENDBRANCH  19  21
ENDBRANCH  10  17
BRANCH  11  16
ATOM     16  C   UNL     1      -8.007 -11.832  16.432  0.00  0.00    +0.124 C 
BRANCH  16   7
ATOM      7  N   UNL     1      -7.543 -12.439  15.173  0.00  0.00    -0.193 NA
ATOM     29  H   UNL     1      -6.522 -12.556  15.125  0.00  0.00    +0.148 HD
BRANCH   7   1
ATOM      1  S   UNL     1      -8.478 -13.668  14.444  0.00  0.00    +0.027 S 
ATOM      2  O   UNL     1      -7.621 -14.545  13.672  0.00  0.00    -0.158 OA
ATOM      3  O   UNL     1      -9.652 -13.061  13.845  0.00  0.00    -0.158 OA
ATOM     22  C   UNL     1      -9.020 -14.562  15.883  0.00  0.00    +0.214 C 
ENDBRANCH   7   1
ENDBRANCH  16   7
ENDBRANCH  11  16
TORSDOF 6
ENDMDL
MODEL 6
REMARK VINA RESULT:      -5.5      2.837      6.749
REMARK  Name = 25388930
REMARK  9 active torsions:
REMARK  status: ('A' for Active; 'I' for Inactive)
REMARK    1  A    between atoms: S_1  and  N_7
REMARK    2  A    between atoms: S_1  and  C_22
REMARK    3  A    between atoms: O_4  and  C_23
REMARK    4  A    between atoms: O_4  and  C_28
REMARK    5  A    between atoms: N_6  and  C_20
REMARK    6  A    between atoms: N_7  and  C_16
REMARK    7  A    between atoms: C_10  and  C_17
REMARK    8  A    between atoms: C_11  and  C_16
REMARK    9  A    between atoms: C_19  and  C_21
REMARK                            x       y       z     vdW  Elec       q    Type
REMARK                         _______ _______ _______ _____ _____    ______ ____
ROOT
ATOM      5  N   UNL     1      -5.452 -12.647  16.886  0.00  0.00    -0.297 NA
ATOM      9  C   UNL     1      -5.750 -10.510  18.345  0.00  0.00    +0.002 C 
ATOM     10  C   UNL     1      -7.103 -11.260  18.196  0.00  0.00    +0.055 C 
ATOM     11  C   UNL     1      -4.853 -11.473  16.196  0.00  0.00    +0.072 C 
ATOM     12  C   UNL     1      -5.200 -10.167  16.944  0.00  0.00    +0.024 C 
ATOM     13  C   UNL     1      -4.759 -11.502  18.991  0.00  0.00    +0.019 C 
ATOM     14  C   UNL     1      -6.890 -12.398  17.157  0.00  0.00    +0.094 C 
ATOM     15  C   UNL     1      -4.758 -12.813  18.185  0.00  0.00    +0.085 C 
ENDROOT
BRANCH  10  17
ATOM      6  N   UNL     1      -9.455 -10.456  18.707  0.00  0.00    -0.270 N 
ATOM      8  N   UNL     1     -10.451  -9.663  18.277  0.00  0.00    -0.171 NA
ATOM     17  C   UNL     1      -8.351 -10.439  17.906  0.00  0.00    +0.044 A 
ATOM     18  C   UNL     1      -8.647  -9.576  16.879  0.00  0.00    +0.053 A 
ATOM     19  C   UNL     1      -9.952  -9.128  17.160  0.00  0.00    +0.096 A 
ATOM     20  C   UNL     1      -9.634 -11.219  19.921  0.00  0.00    +0.172 C 
BRANCH  19  21
ATOM     21  C   UNL     1     -10.729  -8.201  16.381  0.00  0.00    +0.044 A 
ATOM     23  C   UNL     1     -11.452  -8.631  15.268  0.00  0.00    +0.129 A 
ATOM     24  C   UNL     1     -10.756  -6.857  16.753  0.00  0.00    +0.014 A 
ATOM     25  C   UNL     1     -12.200  -7.717  14.526  0.00  0.00    +0.046 A 
ATOM     26  C   UNL     1     -11.504  -5.942  16.012  0.00  0.00    +0.001 A 
ATOM     27  C   UNL     1     -12.225  -6.372  14.898  0.00  0.00    +0.004 A 
BRANCH  23   4
ATOM      4  O   UNL     1     -11.445  -9.939  14.882  0.00  0.00    -0.494 OA
ATOM     28  C   UNL     1     -12.710 -10.579  14.746  0.00  0.00    +0.277 C 
ENDBRANCH  23   4
ENDBRANCH  19  21
ENDBRANCH  10  17
BRANCH  11  16
ATOM     16  C   UNL     1      -5.243 -11.404  14.719  0.00  0.00    +0.124 C 
BRANCH  16   7
ATOM      7  N   UNL     1      -6.002 -10.166  14.476  0.00  0.00    -0.193 NA
ATOM     29  H   UNL     1      -5.485  -9.312  14.723  0.00  0.00    +0.148 HD
BRANCH   7   1
ATOM      1  S   UNL     1      -7.017 -10.064  13.106  0.00  0.00    +0.027 S 
ATOM      2  O   UNL     1      -8.269  -9.431  13.468  0.00  0.00    -0.158 OA
ATOM      3  O   UNL     1      -7.003 -11.346  12.426  0.00  0.00    -0.158 OA
ATOM     22  C   UNL     1      -6.096  -8.921  12.102  0.00  0.00    +0.214 C 
ENDBRANCH   7   1
ENDBRANCH  16   7
ENDBRANCH  11  16
TORSDOF 6
ENDMDL
MODEL 7
REMARK VINA RESULT:      -5.4      2.558      5.088
REMARK  Name = 25388930
REMARK  9 active torsions:
REMARK  status: ('A' for Active; 'I' for Inactive)
REMARK    1  A    between atoms: S_1  and  N_7
REMARK    2  A    between atoms: S_1  and  C_22
REMARK    3  A    between atoms: O_4  and  C_23
REMARK    4  A    between atoms: O_4  and  C_28
REMARK    5  A    between atoms: N_6  and  C_20
REMARK    6  A    between atoms: N_7  and  C_16
REMARK    7  A    between atoms: C_10  and  C_17
REMARK    8  A    between atoms: C_11  and  C_16
REMARK    9  A    between atoms: C_19  and  C_21
REMARK                            x       y       z     vdW  Elec       q    Type
REMARK                         _______ _______ _______ _____ _____    ______ ____
ROOT
ATOM      5  N   UNL     1     -10.986 -10.238  16.597  0.00  0.00    -0.297 NA
ATOM      9  C   UNL     1      -9.385  -8.562  15.410  0.00  0.00    +0.002 C 
ATOM     10  C   UNL     1      -9.144 -10.006  14.889  0.00  0.00    +0.055 C 
ATOM     11  C   UNL     1     -10.301  -9.389  17.607  0.00  0.00    +0.072 C 
ATOM     12  C   UNL     1      -9.199  -8.535  16.942  0.00  0.00    +0.024 C 
ATOM     13  C   UNL     1     -10.866  -8.227  15.126  0.00  0.00    +0.019 C 
ATOM     14  C   UNL     1      -9.984 -10.966  15.780  0.00  0.00    +0.094 C 
ATOM     15  C   UNL     1     -11.755  -9.345  15.698  0.00  0.00    +0.085 C 
ENDROOT
BRANCH  10  17
ATOM      6  N   UNL     1      -7.368 -11.598  14.020  0.00  0.00    -0.270 N 
ATOM      8  N   UNL     1      -6.048 -11.844  13.994  0.00  0.00    -0.171 NA
ATOM     17  C   UNL     1      -7.707 -10.480  14.724  0.00  0.00    +0.044 A 
ATOM     18  C   UNL     1      -6.525  -9.960  15.193  0.00  0.00    +0.053 A 
ATOM     19  C   UNL     1      -5.538 -10.841  14.712  0.00  0.00    +0.096 A 
ATOM     20  C   UNL     1      -8.268 -12.496  13.333  0.00  0.00    +0.172 C 
BRANCH  19  21
ATOM     21  C   UNL     1      -4.118 -10.742  14.927  0.00  0.00    +0.044 A 
ATOM     23  C   UNL     1      -3.249 -10.495  13.864  0.00  0.00    +0.129 A 
ATOM     24  C   UNL     1      -3.614 -10.896  16.219  0.00  0.00    +0.014 A 
ATOM     25  C   UNL     1      -1.876 -10.402  14.093  0.00  0.00    +0.046 A 
ATOM     26  C   UNL     1      -2.242 -10.803  16.448  0.00  0.00    +0.001 A 
ATOM     27  C   UNL     1      -1.372 -10.556  15.385  0.00  0.00    +0.004 A 
BRANCH  23   4
ATOM      4  O   UNL     1      -3.713 -10.340  12.591  0.00  0.00    -0.494 OA
ATOM     28  C   UNL     1      -2.745 -10.339  11.545  0.00  0.00    +0.277 C 
ENDBRANCH  23   4
ENDBRANCH  19  21
ENDBRANCH  10  17
BRANCH  11  16
ATOM     16  C   UNL     1      -9.759 -10.204  18.782  0.00  0.00    +0.124 C 
BRANCH  16   7
ATOM      7  N   UNL     1      -8.287 -10.141  18.777  0.00  0.00    -0.193 NA
ATOM     29  H   UNL     1      -7.911  -9.301  19.236  0.00  0.00    +0.148 HD
BRANCH   7   1
ATOM      1  S   UNL     1      -7.389 -11.579  18.979  0.00  0.00    +0.027 S 
ATOM      2  O   UNL     1      -7.321 -12.297  17.721  0.00  0.00    -0.158 OA
ATOM      3  O   UNL     1      -7.845 -12.241  20.187  0.00  0.00    -0.158 OA
ATOM     22  C   UNL     1      -5.776 -10.911  19.316  0.00  0.00    +0.214 C 
ENDBRANCH   7   1
ENDBRANCH  16   7
ENDBRANCH  11  16
TORSDOF 6
ENDMDL
MODEL 8
REMARK VINA RESULT:      -5.4     24.108     26.272
REMARK  Name = 25388930
REMARK  9 active torsions:
REMARK  status: ('A' for Active; 'I' for Inactive)
REMARK    1  A    between atoms: S_1  and  N_7
REMARK    2  A    between atoms: S_1  and  C_22
REMARK    3  A    between atoms: O_4  and  C_23
REMARK    4  A    between atoms: O_4  and  C_28
REMARK    5  A    between atoms: N_6  and  C_20
REMARK    6  A    between atoms: N_7  and  C_16
REMARK    7  A    between atoms: C_10  and  C_17
REMARK    8  A    between atoms: C_11  and  C_16
REMARK    9  A    between atoms: C_19  and  C_21
REMARK                            x       y       z     vdW  Elec       q    Type
REMARK                         _______ _______ _______ _____ _____    ______ ____
ROOT
ATOM      5  N   UNL     1       9.685   9.597   5.030  0.00  0.00    -0.297 NA
ATOM      9  C   UNL     1       8.648   7.253   5.495  0.00  0.00    +0.002 C 
ATOM     10  C   UNL     1      10.128   7.114   5.041  0.00  0.00    +0.055 C 
ATOM     11  C   UNL     1       8.383   9.468   4.323  0.00  0.00    +0.072 C 
ATOM     12  C   UNL     1       7.855   8.020   4.416  0.00  0.00    +0.024 C 
ATOM     13  C   UNL     1       8.653   8.132   6.765  0.00  0.00    +0.019 C 
ATOM     14  C   UNL     1      10.610   8.523   4.592  0.00  0.00    +0.094 C 
ATOM     15  C   UNL     1       9.433   9.427   6.481  0.00  0.00    +0.085 C 
ENDROOT
BRANCH  10  17
ATOM      6  N   UNL     1      10.390   4.701   4.299  0.00  0.00    -0.270 N 
ATOM      8  N   UNL     1      10.733   3.912   3.267  0.00  0.00    -0.171 NA
ATOM     17  C   UNL     1      10.469   6.035   4.024  0.00  0.00    +0.044 A 
ATOM     18  C   UNL     1      10.896   6.124   2.721  0.00  0.00    +0.053 A 
ATOM     19  C   UNL     1      11.042   4.786   2.306  0.00  0.00    +0.096 A 
ATOM     20  C   UNL     1       9.987   4.095   5.547  0.00  0.00    +0.172 C 
BRANCH  19  21
ATOM     21  C   UNL     1      11.471   4.329   1.010  0.00  0.00    +0.044 A 
ATOM     23  C   UNL     1      12.707   3.703   0.846  0.00  0.00    +0.129 A 
ATOM     24  C   UNL     1      10.633   4.519  -0.088  0.00  0.00    +0.014 A 
ATOM     25  C   UNL     1      13.104   3.267  -0.418  0.00  0.00    +0.046 A 
ATOM     26  C   UNL     1      11.030   4.083  -1.352  0.00  0.00    +0.001 A 
ATOM     27  C   UNL     1      12.266   3.457  -1.517  0.00  0.00    +0.004 A 
BRANCH  23   4
ATOM      4  O   UNL     1      13.546   3.504   1.902  0.00  0.00    -0.494 OA
ATOM     28  C   UNL     1      14.944   3.610   1.646  0.00  0.00    +0.277 C 
ENDBRANCH  23   4
ENDBRANCH  19  21
ENDBRANCH  10  17
BRANCH  11  16
ATOM     16  C   UNL     1       8.456   9.957   2.876  0.00  0.00    +0.124 C 
BRANCH  16   7
ATOM      7  N   UNL     1       7.331   9.386   2.116  0.00  0.00    -0.193 NA
ATOM     29  H   UNL     1       7.238   8.367   2.222  0.00  0.00    +0.148 HD
BRANCH   7   1
ATOM      1  S   UNL     1       5.873  10.268   1.993  0.00  0.00    +0.027 S 
ATOM      2  O   UNL     1       6.165  11.663   1.724  0.00  0.00    -0.158 OA
ATOM      3  O   UNL     1       5.011   9.890   3.096  0.00  0.00    -0.158 OA
ATOM     22  C   UNL     1       5.186   9.558   0.514  0.00  0.00    +0.214 C 
ENDBRANCH   7   1
ENDBRANCH  16   7
ENDBRANCH  11  16
TORSDOF 6
ENDMDL
MODEL 9
REMARK VINA RESULT:      -5.3      2.293      6.314
REMARK  Name = 25388930
REMARK  9 active torsions:
REMARK  status: ('A' for Active; 'I' for Inactive)
REMARK    1  A    between atoms: S_1  and  N_7
REMARK    2  A    between atoms: S_1  and  C_22
REMARK    3  A    between atoms: O_4  and  C_23
REMARK    4  A    between atoms: O_4  and  C_28
REMARK    5  A    between atoms: N_6  and  C_20
REMARK    6  A    between atoms: N_7  and  C_16
REMARK    7  A    between atoms: C_10  and  C_17
REMARK    8  A    between atoms: C_11  and  C_16
REMARK    9  A    between atoms: C_19  and  C_21
REMARK                            x       y       z     vdW  Elec       q    Type
REMARK                         _______ _______ _______ _____ _____    ______ ____
ROOT
ATOM      5  N   UNL     1      -5.724 -11.340  10.193  0.00  0.00    -0.297 NA
ATOM      9  C   UNL     1      -4.745  -9.224  11.354  0.00  0.00    +0.002 C 
ATOM     10  C   UNL     1      -4.148 -10.515  11.981  0.00  0.00    +0.055 C 
ATOM     11  C   UNL     1      -6.826 -10.425  10.594  0.00  0.00    +0.072 C 
ATOM     12  C   UNL     1      -6.284  -9.270  11.463  0.00  0.00    +0.024 C 
ATOM     13  C   UNL     1      -4.396  -9.257   9.850  0.00  0.00    +0.019 C 
ATOM     14  C   UNL     1      -4.923 -11.723  11.382  0.00  0.00    +0.094 C 
ATOM     15  C   UNL     1      -4.841 -10.605   9.257  0.00  0.00    +0.085 C 
ENDROOT
BRANCH  10  17
ATOM      6  N   UNL     1      -2.855 -10.457  14.164  0.00  0.00    -0.270 N 
ATOM      8  N   UNL     1      -2.972 -10.558  15.499  0.00  0.00    -0.171 NA
ATOM     17  C   UNL     1      -4.037 -10.592  13.496  0.00  0.00    +0.044 A 
ATOM     18  C   UNL     1      -4.992 -10.798  14.463  0.00  0.00    +0.053 A 
ATOM     19  C   UNL     1      -4.278 -10.766  15.675  0.00  0.00    +0.096 A 
ATOM     20  C   UNL     1      -1.553 -10.226  13.584  0.00  0.00    +0.172 C 
BRANCH  19  21
ATOM     21  C   UNL     1      -4.822 -10.933  16.998  0.00  0.00    +0.044 A 
ATOM     23  C   UNL     1      -5.986 -10.266  17.382  0.00  0.00    +0.129 A 
ATOM     24  C   UNL     1      -4.170 -11.774  17.899  0.00  0.00    +0.014 A 
ATOM     25  C   UNL     1      -6.497 -10.441  18.668  0.00  0.00    +0.046 A 
ATOM     26  C   UNL     1      -4.681 -11.949  19.185  0.00  0.00    +0.001 A 
ATOM     27  C   UNL     1      -5.844 -11.282  19.570  0.00  0.00    +0.004 A 
BRANCH  23   4
ATOM      4  O   UNL     1      -6.644  -9.438  16.522  0.00  0.00    -0.494 OA
ATOM     28  C   UNL     1      -7.953  -9.021  16.900  0.00  0.00    +0.277 C 
ENDBRANCH  23   4
ENDBRANCH  19  21
ENDBRANCH  10  17
BRANCH  11  16
ATOM     16  C   UNL     1      -7.976 -11.164  11.280  0.00  0.00    +0.124 C 
BRANCH  16   7
ATOM      7  N   UNL     1      -8.096 -10.689  12.669  0.00  0.00    -0.193 NA
ATOM     29  H   UNL     1      -8.072  -9.664  12.756  0.00  0.00    +0.148 HD
BRANCH   7   1
ATOM      1  S   UNL     1      -9.130 -11.515  13.748  0.00  0.00    +0.027 S 
ATOM      2  O   UNL     1      -8.417 -11.829  14.970  0.00  0.00    -0.158 OA
ATOM      3  O   UNL     1      -9.832 -12.551  13.012  0.00  0.00    -0.158 OA
ATOM     22  C   UNL     1     -10.308 -10.235  14.115  0.00  0.00    +0.214 C 
ENDBRANCH   7   1
ENDBRANCH  16   7
ENDBRANCH  11  16
TORSDOF 6
ENDMDL
MODEL 10
REMARK VINA RESULT:      -5.3     24.480     26.353
REMARK  Name = 25388930
REMARK  9 active torsions:
REMARK  status: ('A' for Active; 'I' for Inactive)
REMARK    1  A    between atoms: S_1  and  N_7
REMARK    2  A    between atoms: S_1  and  C_22
REMARK    3  A    between atoms: O_4  and  C_23
REMARK    4  A    between atoms: O_4  and  C_28
REMARK    5  A    between atoms: N_6  and  C_20
REMARK    6  A    between atoms: N_7  and  C_16
REMARK    7  A    between atoms: C_10  and  C_17
REMARK    8  A    between atoms: C_11  and  C_16
REMARK    9  A    between atoms: C_19  and  C_21
REMARK                            x       y       z     vdW  Elec       q    Type
REMARK                         _______ _______ _______ _____ _____    ______ ____
ROOT
ATOM      5  N   UNL     1       9.260   8.763   6.826  0.00  0.00    -0.297 NA
ATOM      9  C   UNL     1       9.371   6.220   6.271  0.00  0.00    +0.002 C 
ATOM     10  C   UNL     1      10.749   6.894   6.017  0.00  0.00    +0.055 C 
ATOM     11  C   UNL     1       8.128   8.386   5.938  0.00  0.00    +0.072 C 
ATOM     12  C   UNL     1       8.292   6.937   5.432  0.00  0.00    +0.024 C 
ATOM     13  C   UNL     1       9.025   6.460   7.756  0.00  0.00    +0.019 C 
ATOM     14  C   UNL     1      10.551   8.429   6.174  0.00  0.00    +0.094 C 
ATOM     15  C   UNL     1       9.148   7.962   8.068  0.00  0.00    +0.085 C 
ENDROOT
BRANCH  10  17
ATOM      6  N   UNL     1      12.743   7.018   4.451  0.00  0.00    -0.270 N 
ATOM      8  N   UNL     1      13.233   6.583   3.279  0.00  0.00    -0.171 NA
ATOM     17  C   UNL     1      11.501   6.535   4.744  0.00  0.00    +0.044 A 
ATOM     18  C   UNL     1      11.154   5.729   3.687  0.00  0.00    +0.053 A 
ATOM     19  C   UNL     1      12.258   5.796   2.816  0.00  0.00    +0.096 A 
ATOM     20  C   UNL     1      13.536   7.916   5.259  0.00  0.00    +0.172 C 
BRANCH  19  21
ATOM     21  C   UNL     1      12.399   5.123   1.551  0.00  0.00    +0.044 A 
ATOM     23  C   UNL     1      11.965   5.724   0.369  0.00  0.00    +0.129 A 
ATOM     24  C   UNL     1      12.979   3.855   1.517  0.00  0.00    +0.014 A 
ATOM     25  C   UNL     1      12.110   5.056  -0.847  0.00  0.00    +0.046 A 
ATOM     26  C   UNL     1      13.124   3.187   0.302  0.00  0.00    +0.001 A 
ATOM     27  C   UNL     1      12.689   3.787  -0.880  0.00  0.00    +0.004 A 
BRANCH  23   4
ATOM      4  O   UNL     1      11.395   6.964   0.373  0.00  0.00    -0.494 OA
ATOM     28  C   UNL     1       9.985   7.027   0.179  0.00  0.00    +0.277 C 
ENDBRANCH  23   4
ENDBRANCH  19  21
ENDBRANCH  10  17
BRANCH  11  16
ATOM     16  C   UNL     1       7.938   9.375   4.786  0.00  0.00    +0.124 C 
BRANCH  16   7
ATOM      7  N   UNL     1       6.498   9.574   4.551  0.00  0.00    -0.193 NA
ATOM     29  H   UNL     1       5.973   9.809   5.404  0.00  0.00    +0.148 HD
BRANCH   7   1
ATOM      1  S   UNL     1       5.984  10.337   3.113  0.00  0.00    +0.027 S 
ATOM      2  O   UNL     1       6.337  11.743   3.149  0.00  0.00    -0.158 OA
ATOM      3  O   UNL     1       4.623   9.922   2.831  0.00  0.00    -0.158 OA
ATOM     22  C   UNL     1       7.040   9.539   1.925  0.00  0.00    +0.214 C 
ENDBRANCH   7   1
ENDBRANCH  16   7
ENDBRANCH  11  16
TORSDOF 6
ENDMDL
