MODEL 1
REMARK VINA RESULT:      -7.5      0.000      0.000
REMARK  Name = 7142733
REMARK  5 active torsions:
REMARK  status: ('A' for Active; 'I' for Inactive)
REMARK    1  A    between atoms: O_3  and  C_21
REMARK    2  A    between atoms: O_3  and  C_23
REMARK    3  A    between atoms: N_7  and  C_19
REMARK    4  A    between atoms: C_18  and  C_21
REMARK    5  A    between atoms: C_22  and  C_24
REMARK                            x       y       z     vdW  Elec       q    Type
REMARK                         _______ _______ _______ _____ _____    ______ ____
ROOT
ATOM      1  O   UNL     1      15.492   6.221  21.141  0.00  0.00    -0.266 OA
ATOM      2  O   UNL     1      11.579   7.383  17.676  0.00  0.00    -0.272 OA
ATOM      5  N   UNL     1      11.652   8.948  19.392  0.00  0.00    -0.298 N 
ATOM      6  N   UNL     1      14.145   8.129  21.220  0.00  0.00    -0.310 N 
ATOM      9  C   UNL     1      11.636   8.032  21.717  0.00  0.00    +0.027 C 
ATOM     10  C   UNL     1      12.709  10.198  21.266  0.00  0.00    +0.054 C 
ATOM     11  C   UNL     1      11.832   9.443  22.261  0.00  0.00    +0.018 C 
ATOM     12  C   UNL     1      10.953   8.077  20.339  0.00  0.00    +0.113 C 
ATOM     13  C   UNL     1      12.997   7.328  21.664  0.00  0.00    +0.130 C 
ATOM     14  C   UNL     1      11.991  10.283  19.904  0.00  0.00    +0.117 C 
ATOM     15  C   UNL     1      14.055   9.519  21.097  0.00  0.00    +0.027 A 
ATOM     16  C   UNL     1      15.147  10.244  20.802  0.00  0.00    +0.024 A 
ATOM     17  C   UNL     1      15.360   7.441  21.026  0.00  0.00    +0.273 A 
ATOM     18  C   UNL     1      11.870   8.509  18.086  0.00  0.00    +0.253 C 
ATOM     19  C   UNL     1      16.548   8.282  20.676  0.00  0.00    +0.099 A 
ATOM     20  C   UNL     1      16.417   9.610  20.587  0.00  0.00    +0.030 A 
ENDROOT
BRANCH  19   7
ATOM      4  O   UNL     1      18.848   8.436  22.359  0.00  0.00    -0.270 OA
ATOM      7  N   UNL     1      17.740   7.652  20.469  0.00  0.00    -0.277 N 
ATOM     22  C   UNL     1      18.825   7.768  21.328  0.00  0.00    +0.248 C 
ATOM     34  H   UNL     1      17.843   7.209  19.563  0.00  0.00    +0.155 HD
BRANCH  22  24
ATOM      8  N   UNL     1      22.280   5.545  20.242  0.00  0.00    -0.263 NA
ATOM     24  C   UNL     1      20.033   6.991  20.948  0.00  0.00    +0.040 A 
ATOM     27  C   UNL     1      21.230   7.650  20.800  0.00  0.00    +0.033 A 
ATOM     28  C   UNL     1      19.919   5.634  20.756  0.00  0.00    +0.033 A 
ATOM     32  C   UNL     1      22.327   6.881  20.445  0.00  0.00    +0.111 A 
ATOM     33  C   UNL     1      21.074   4.955  20.403  0.00  0.00    +0.111 A 
ENDBRANCH  22  24
ENDBRANCH  19   7
BRANCH  18  21
ATOM     21  C   UNL     1      12.512   9.494  17.142  0.00  0.00    +0.324 C 
BRANCH  21   3
ATOM      3  O   UNL     1      13.895   9.449  17.391  0.00  0.00    -0.483 OA
BRANCH   3  23
ATOM     23  C   UNL     1      14.684  10.377  16.749  0.00  0.00    +0.121 A 
ATOM     25  C   UNL     1      15.217  11.435  17.471  0.00  0.00    +0.045 A 
ATOM     26  C   UNL     1      14.934  10.238  15.391  0.00  0.00    +0.045 A 
ATOM     29  C   UNL     1      16.016  12.375  16.821  0.00  0.00    +0.004 A 
ATOM     30  C   UNL     1      15.733  11.179  14.742  0.00  0.00    +0.004 A 
ATOM     31  C   UNL     1      16.274  12.248  15.457  0.00  0.00    +0.000 A 
ENDBRANCH   3  23
ENDBRANCH  21   3
ENDBRANCH  18  21
TORSDOF 5
ENDMDL
MODEL 2
REMARK VINA RESULT:      -7.4      1.666      2.334
REMARK  Name = 7142733
REMARK  5 active torsions:
REMARK  status: ('A' for Active; 'I' for Inactive)
REMARK    1  A    between atoms: O_3  and  C_21
REMARK    2  A    between atoms: O_3  and  C_23
REMARK    3  A    between atoms: N_7  and  C_19
REMARK    4  A    between atoms: C_18  and  C_21
REMARK    5  A    between atoms: C_22  and  C_24
REMARK                            x       y       z     vdW  Elec       q    Type
REMARK                         _______ _______ _______ _____ _____    ______ ____
ROOT
ATOM      1  O   UNL     1      15.421   5.947  19.709  0.00  0.00    -0.266 OA
ATOM      2  O   UNL     1      13.623   8.420  15.313  0.00  0.00    -0.272 OA
ATOM      5  N   UNL     1      12.974   9.566  17.228  0.00  0.00    -0.298 N 
ATOM      6  N   UNL     1      14.291   7.992  19.680  0.00  0.00    -0.310 N 
ATOM      9  C   UNL     1      11.836   8.208  18.989  0.00  0.00    +0.027 C 
ATOM     10  C   UNL     1      13.106  10.214  19.626  0.00  0.00    +0.054 C 
ATOM     11  C   UNL     1      11.830   9.425  19.907  0.00  0.00    +0.018 C 
ATOM     12  C   UNL     1      11.872   8.645  17.515  0.00  0.00    +0.113 C 
ATOM     13  C   UNL     1      13.028   7.316  19.356  0.00  0.00    +0.130 C 
ATOM     14  C   UNL     1      13.106  10.694  18.161  0.00  0.00    +0.117 C 
ATOM     15  C   UNL     1      14.340   9.374  19.892  0.00  0.00    +0.027 A 
ATOM     16  C   UNL     1      15.480   9.955  20.302  0.00  0.00    +0.024 A 
ATOM     17  C   UNL     1      15.420   7.169  19.867  0.00  0.00    +0.273 A 
ATOM     18  C   UNL     1      13.750   9.375  16.084  0.00  0.00    +0.253 C 
ATOM     19  C   UNL     1      16.677   7.858  20.299  0.00  0.00    +0.099 A 
ATOM     20  C   UNL     1      16.671   9.179  20.508  0.00  0.00    +0.030 A 
ENDROOT
BRANCH  19   7
ATOM      4  O   UNL     1      18.680   8.254  22.294  0.00  0.00    -0.270 OA
ATOM      7  N   UNL     1      17.795   7.098  20.479  0.00  0.00    -0.277 N 
ATOM     22  C   UNL     1      18.735   7.343  21.472  0.00  0.00    +0.248 C 
ATOM     34  H   UNL     1      17.983   6.425  19.744  0.00  0.00    +0.155 HD
BRANCH  22  24
ATOM      8  N   UNL     1      22.001   4.629  21.625  0.00  0.00    -0.263 NA
ATOM     24  C   UNL     1      19.877   6.394  21.526  0.00  0.00    +0.040 A 
ATOM     27  C   UNL     1      20.070   5.525  20.478  0.00  0.00    +0.033 A 
ATOM     28  C   UNL     1      20.708   6.413  22.620  0.00  0.00    +0.033 A 
ATOM     32  C   UNL     1      21.148   4.660  20.575  0.00  0.00    +0.111 A 
ATOM     33  C   UNL     1      21.758   5.508  22.623  0.00  0.00    +0.111 A 
ENDBRANCH  22  24
ENDBRANCH  19   7
BRANCH  18  21
ATOM     21  C   UNL     1      14.806  10.414  15.803  0.00  0.00    +0.324 C 
BRANCH  21   3
ATOM      3  O   UNL     1      14.736  10.698  14.428  0.00  0.00    -0.483 OA
BRANCH   3  23
ATOM     23  C   UNL     1      15.790  11.385  13.869  0.00  0.00    +0.121 A 
ATOM     25  C   UNL     1      16.906  11.668  14.643  0.00  0.00    +0.045 A 
ATOM     26  C   UNL     1      15.717  11.784  12.542  0.00  0.00    +0.045 A 
ATOM     29  C   UNL     1      17.974  12.365  14.077  0.00  0.00    +0.004 A 
ATOM     30  C   UNL     1      16.785  12.481  11.976  0.00  0.00    +0.004 A 
ATOM     31  C   UNL     1      17.913  12.771  12.744  0.00  0.00    +0.000 A 
ENDBRANCH   3  23
ENDBRANCH  21   3
ENDBRANCH  18  21
TORSDOF 5
ENDMDL
MODEL 3
REMARK VINA RESULT:      -7.0      3.594      7.873
REMARK  Name = 7142733
REMARK  5 active torsions:
REMARK  status: ('A' for Active; 'I' for Inactive)
REMARK    1  A    between atoms: O_3  and  C_21
REMARK    2  A    between atoms: O_3  and  C_23
REMARK    3  A    between atoms: N_7  and  C_19
REMARK    4  A    between atoms: C_18  and  C_21
REMARK    5  A    between atoms: C_22  and  C_24
REMARK                            x       y       z     vdW  Elec       q    Type
REMARK                         _______ _______ _______ _____ _____    ______ ____
ROOT
ATOM      1  O   UNL     1      11.131  10.165  22.051  0.00  0.00    -0.266 OA
ATOM      2  O   UNL     1      14.518   6.252  20.674  0.00  0.00    -0.272 OA
ATOM      5  N   UNL     1      14.073   7.633  18.860  0.00  0.00    -0.298 N 
ATOM      6  N   UNL     1      12.174   9.955  19.970  0.00  0.00    -0.310 N 
ATOM      9  C   UNL     1      11.660   8.039  18.352  0.00  0.00    +0.027 C 
ATOM     10  C   UNL     1      13.337   9.733  17.747  0.00  0.00    +0.054 C 
ATOM     11  C   UNL     1      12.068   9.032  17.269  0.00  0.00    +0.018 C 
ATOM     12  C   UNL     1      12.778   7.008  18.585  0.00  0.00    +0.113 C 
ATOM     13  C   UNL     1      11.314   8.813  19.629  0.00  0.00    +0.130 C 
ATOM     14  C   UNL     1      14.465   8.697  17.925  0.00  0.00    +0.117 C 
ATOM     15  C   UNL     1      13.098  10.465  19.054  0.00  0.00    +0.027 A 
ATOM     16  C   UNL     1      13.791  11.580  19.341  0.00  0.00    +0.024 A 
ATOM     17  C   UNL     1      11.946  10.567  21.219  0.00  0.00    +0.273 A 
ATOM     18  C   UNL     1      14.865   7.146  19.899  0.00  0.00    +0.253 C 
ATOM     19  C   UNL     1      12.755  11.792  21.512  0.00  0.00    +0.099 A 
ATOM     20  C   UNL     1      13.615  12.254  20.597  0.00  0.00    +0.030 A 
ENDROOT
BRANCH  19   7
ATOM      4  O   UNL     1      10.940  13.927  22.055  0.00  0.00    -0.270 OA
ATOM      7  N   UNL     1      12.573  12.408  22.716  0.00  0.00    -0.277 N 
ATOM     22  C   UNL     1      11.671  13.445  22.916  0.00  0.00    +0.248 C 
ATOM     34  H   UNL     1      13.250  12.165  23.431  0.00  0.00    +0.155 HD
BRANCH  22  24
ATOM      8  N   UNL     1      11.460  14.963  26.879  0.00  0.00    -0.263 NA
ATOM     24  C   UNL     1      11.598  13.975  24.302  0.00  0.00    +0.040 A 
ATOM     27  C   UNL     1      12.612  14.781  24.760  0.00  0.00    +0.033 A 
ATOM     28  C   UNL     1      10.517  13.645  25.084  0.00  0.00    +0.033 A 
ATOM     32  C   UNL     1      12.497  15.251  26.059  0.00  0.00    +0.111 A 
ATOM     33  C   UNL     1      10.495  14.166  26.369  0.00  0.00    +0.111 A 
ENDBRANCH  22  24
ENDBRANCH  19   7
BRANCH  18  21
ATOM     21  C   UNL     1      16.225   7.777  20.065  0.00  0.00    +0.324 C 
BRANCH  21   3
ATOM      3  O   UNL     1      17.168   6.815  19.661  0.00  0.00    -0.483 OA
BRANCH   3  23
ATOM     23  C   UNL     1      18.288   6.657  20.446  0.00  0.00    +0.121 A 
ATOM     25  C   UNL     1      18.451   7.457  21.568  0.00  0.00    +0.045 A 
ATOM     26  C   UNL     1      19.233   5.702  20.102  0.00  0.00    +0.045 A 
ATOM     29  C   UNL     1      19.586   7.298  22.364  0.00  0.00    +0.004 A 
ATOM     30  C   UNL     1      20.367   5.543  20.898  0.00  0.00    +0.004 A 
ATOM     31  C   UNL     1      20.544   6.341  22.029  0.00  0.00    +0.000 A 
ENDBRANCH   3  23
ENDBRANCH  21   3
ENDBRANCH  18  21
TORSDOF 5
ENDMDL
MODEL 4
REMARK VINA RESULT:      -7.0     27.774     30.322
REMARK  Name = 7142733
REMARK  5 active torsions:
REMARK  status: ('A' for Active; 'I' for Inactive)
REMARK    1  A    between atoms: O_3  and  C_21
REMARK    2  A    between atoms: O_3  and  C_23
REMARK    3  A    between atoms: N_7  and  C_19
REMARK    4  A    between atoms: C_18  and  C_21
REMARK    5  A    between atoms: C_22  and  C_24
REMARK                            x       y       z     vdW  Elec       q    Type
REMARK                         _______ _______ _______ _____ _____    ______ ____
ROOT
ATOM      1  O   UNL     1      -4.655 -12.815   9.851  0.00  0.00    -0.266 OA
ATOM      2  O   UNL     1      -5.791 -12.749  15.083  0.00  0.00    -0.272 OA
ATOM      5  N   UNL     1      -3.506 -12.526  14.733  0.00  0.00    -0.298 N 
ATOM      6  N   UNL     1      -3.109 -12.436  11.561  0.00  0.00    -0.310 N 
ATOM      9  C   UNL     1      -2.447 -14.239  13.253  0.00  0.00    +0.027 C 
ATOM     10  C   UNL     1      -1.464 -11.991  13.416  0.00  0.00    +0.054 C 
ATOM     11  C   UNL     1      -1.128 -13.478  13.336  0.00  0.00    +0.018 C 
ATOM     12  C   UNL     1      -3.310 -13.957  14.495  0.00  0.00    +0.113 C 
ATOM     13  C   UNL     1      -3.162 -13.850  11.954  0.00  0.00    +0.130 C 
ATOM     14  C   UNL     1      -2.282 -11.712  14.692  0.00  0.00    +0.117 C 
ATOM     15  C   UNL     1      -2.243 -11.540  12.196  0.00  0.00    +0.027 A 
ATOM     16  C   UNL     1      -2.125 -10.279  11.744  0.00  0.00    +0.024 A 
ATOM     17  C   UNL     1      -3.893 -12.057  10.452  0.00  0.00    +0.273 A 
ATOM     18  C   UNL     1      -4.776 -12.049  15.055  0.00  0.00    +0.253 C 
ATOM     19  C   UNL     1      -3.751 -10.638   9.996  0.00  0.00    +0.099 A 
ATOM     20  C   UNL     1      -2.896  -9.823  10.623  0.00  0.00    +0.030 A 
ENDROOT
BRANCH  19   7
ATOM      4  O   UNL     1      -6.369  -9.507  10.118  0.00  0.00    -0.270 OA
ATOM      7  N   UNL     1      -4.501 -10.229   8.933  0.00  0.00    -0.277 N 
ATOM     22  C   UNL     1      -5.773  -9.685   9.059  0.00  0.00    +0.248 C 
ATOM     34  H   UNL     1      -4.136 -10.486   8.022  0.00  0.00    +0.155 HD
BRANCH  22  24
ATOM      8  N   UNL     1      -7.644  -8.519   5.426  0.00  0.00    -0.263 NA
ATOM     24  C   UNL     1      -6.427  -9.278   7.789  0.00  0.00    +0.040 A 
ATOM     27  C   UNL     1      -7.432  -8.340   7.828  0.00  0.00    +0.033 A 
ATOM     28  C   UNL     1      -6.009  -9.849   6.611  0.00  0.00    +0.033 A 
ATOM     32  C   UNL     1      -8.010  -7.994   6.618  0.00  0.00    +0.111 A 
ATOM     33  C   UNL     1      -6.650  -9.435   5.454  0.00  0.00    +0.111 A 
ENDBRANCH  22  24
ENDBRANCH  19   7
BRANCH  18  21
ATOM     21  C   UNL     1      -4.885 -10.580  15.378  0.00  0.00    +0.324 C 
BRANCH  21   3
ATOM      3  O   UNL     1      -4.492 -10.432  16.720  0.00  0.00    -0.483 OA
BRANCH   3  23
ATOM     23  C   UNL     1      -5.458 -10.613  17.685  0.00  0.00    +0.121 A 
ATOM     25  C   UNL     1      -5.110 -11.193  18.896  0.00  0.00    +0.045 A 
ATOM     26  C   UNL     1      -6.760 -10.211  17.430  0.00  0.00    +0.045 A 
ATOM     29  C   UNL     1      -6.087 -11.377  19.874  0.00  0.00    +0.004 A 
ATOM     30  C   UNL     1      -7.738 -10.394  18.408  0.00  0.00    +0.004 A 
ATOM     31  C   UNL     1      -7.401 -10.978  19.630  0.00  0.00    +0.000 A 
ENDBRANCH   3  23
ENDBRANCH  21   3
ENDBRANCH  18  21
TORSDOF 5
ENDMDL
MODEL 5
REMARK VINA RESULT:      -6.8     32.148     34.447
REMARK  Name = 7142733
REMARK  5 active torsions:
REMARK  status: ('A' for Active; 'I' for Inactive)
REMARK    1  A    between atoms: O_3  and  C_21
REMARK    2  A    between atoms: O_3  and  C_23
REMARK    3  A    between atoms: N_7  and  C_19
REMARK    4  A    between atoms: C_18  and  C_21
REMARK    5  A    between atoms: C_22  and  C_24
REMARK                            x       y       z     vdW  Elec       q    Type
REMARK                         _______ _______ _______ _____ _____    ______ ____
ROOT
ATOM      1  O   UNL     1     -16.837   6.521  28.582  0.00  0.00    -0.266 OA
ATOM      2  O   UNL     1     -13.490   7.102  32.720  0.00  0.00    -0.272 OA
ATOM      5  N   UNL     1     -15.581   6.395  33.444  0.00  0.00    -0.298 N 
ATOM      6  N   UNL     1     -17.329   5.975  30.799  0.00  0.00    -0.310 N 
ATOM      9  C   UNL     1     -17.532   7.737  32.646  0.00  0.00    +0.027 C 
ATOM     10  C   UNL     1     -17.828   5.357  33.190  0.00  0.00    +0.054 C 
ATOM     11  C   UNL     1     -18.475   6.735  33.304  0.00  0.00    +0.018 C 
ATOM     12  C   UNL     1     -16.166   7.735  33.353  0.00  0.00    +0.113 C 
ATOM     13  C   UNL     1     -17.411   7.398  31.156  0.00  0.00    +0.130 C 
ATOM     14  C   UNL     1     -16.485   5.352  33.948  0.00  0.00    +0.117 C 
ATOM     15  C   UNL     1     -17.602   4.977  31.739  0.00  0.00    +0.027 A 
ATOM     16  C   UNL     1     -17.635   3.686  31.364  0.00  0.00    +0.024 A 
ATOM     17  C   UNL     1     -17.065   5.675  29.448  0.00  0.00    +0.273 A 
ATOM     18  C   UNL     1     -14.232   6.212  33.142  0.00  0.00    +0.253 C 
ATOM     19  C   UNL     1     -17.087   4.225  29.076  0.00  0.00    +0.099 A 
ATOM     20  C   UNL     1     -17.371   3.307  30.005  0.00  0.00    +0.030 A 
ENDROOT
BRANCH  19   7
ATOM      4  O   UNL     1     -19.022   3.585  27.077  0.00  0.00    -0.270 OA
ATOM      7  N   UNL     1     -16.825   3.892  27.779  0.00  0.00    -0.277 N 
ATOM     22  C   UNL     1     -17.814   3.590  26.852  0.00  0.00    +0.248 C 
ATOM     34  H   UNL     1     -15.847   3.728  27.565  0.00  0.00    +0.155 HD
BRANCH  22  24
ATOM      8  N   UNL     1     -16.446   2.679  22.934  0.00  0.00    -0.263 NA
ATOM     24  C   UNL     1     -17.336   3.272  25.482  0.00  0.00    +0.040 A 
ATOM     27  C   UNL     1     -16.172   3.848  25.033  0.00  0.00    +0.033 A 
ATOM     28  C   UNL     1     -18.071   2.410  24.704  0.00  0.00    +0.033 A 
ATOM     32  C   UNL     1     -15.768   3.519  23.748  0.00  0.00    +0.111 A 
ATOM     33  C   UNL     1     -17.583   2.145  23.434  0.00  0.00    +0.111 A 
ENDBRANCH  22  24
ENDBRANCH  19   7
BRANCH  18  21
ATOM     21  C   UNL     1     -13.676   4.825  33.349  0.00  0.00    +0.324 C 
BRANCH  21   3
ATOM      3  O   UNL     1     -13.335   4.335  32.076  0.00  0.00    -0.483 OA
BRANCH   3  23
ATOM     23  C   UNL     1     -13.806   3.088  31.730  0.00  0.00    +0.121 A 
ATOM     25  C   UNL     1     -13.700   2.660  30.415  0.00  0.00    +0.045 A 
ATOM     26  C   UNL     1     -14.377   2.281  32.703  0.00  0.00    +0.045 A 
ATOM     29  C   UNL     1     -14.177   1.397  30.065  0.00  0.00    +0.004 A 
ATOM     30  C   UNL     1     -14.855   1.018  32.353  0.00  0.00    +0.004 A 
ATOM     31  C   UNL     1     -14.755   0.576  31.033  0.00  0.00    +0.000 A 
ENDBRANCH   3  23
ENDBRANCH  21   3
ENDBRANCH  18  21
TORSDOF 5
ENDMDL
MODEL 6
REMARK VINA RESULT:      -6.8     13.273     15.717
REMARK  Name = 7142733
REMARK  5 active torsions:
REMARK  status: ('A' for Active; 'I' for Inactive)
REMARK    1  A    between atoms: O_3  and  C_21
REMARK    2  A    between atoms: O_3  and  C_23
REMARK    3  A    between atoms: N_7  and  C_19
REMARK    4  A    between atoms: C_18  and  C_21
REMARK    5  A    between atoms: C_22  and  C_24
REMARK                            x       y       z     vdW  Elec       q    Type
REMARK                         _______ _______ _______ _____ _____    ______ ____
ROOT
ATOM      1  O   UNL     1      13.969   6.581   7.392  0.00  0.00    -0.266 OA
ATOM      2  O   UNL     1      10.556   4.034   4.146  0.00  0.00    -0.272 OA
ATOM      5  N   UNL     1       9.533   5.865   5.145  0.00  0.00    -0.298 N 
ATOM      6  N   UNL     1      11.801   7.292   6.891  0.00  0.00    -0.310 N 
ATOM      9  C   UNL     1       9.716   6.006   7.633  0.00  0.00    +0.027 C 
ATOM     10  C   UNL     1       9.474   8.064   6.309  0.00  0.00    +0.054 C 
ATOM     11  C   UNL     1       9.033   7.368   7.595  0.00  0.00    +0.018 C 
ATOM     12  C   UNL     1       9.309   5.165   6.411  0.00  0.00    +0.113 C 
ATOM     13  C   UNL     1      11.233   6.214   7.710  0.00  0.00    +0.130 C 
ATOM     14  C   UNL     1       9.014   7.239   5.090  0.00  0.00    +0.117 C 
ATOM     15  C   UNL     1      10.980   8.240   6.272  0.00  0.00    +0.027 A 
ATOM     16  C   UNL     1      11.524   9.285   5.624  0.00  0.00    +0.024 A 
ATOM     17  C   UNL     1      13.207   7.381   6.847  0.00  0.00    +0.273 A 
ATOM     18  C   UNL     1      10.126   5.188   4.079  0.00  0.00    +0.253 C 
ATOM     19  C   UNL     1      13.773   8.545   6.095  0.00  0.00    +0.099 A 
ATOM     20  C   UNL     1      12.949   9.437   5.535  0.00  0.00    +0.030 A 
ENDROOT
BRANCH  19   7
ATOM      4  O   UNL     1      15.450   7.425   4.075  0.00  0.00    -0.270 OA
ATOM      7  N   UNL     1      15.130   8.661   6.020  0.00  0.00    -0.277 N 
ATOM     22  C   UNL     1      15.891   8.090   5.009  0.00  0.00    +0.248 C 
ATOM     34  H   UNL     1      15.575   9.065   6.837  0.00  0.00    +0.155 HD
BRANCH  22  24
ATOM      8  N   UNL     1      20.074   8.811   5.222  0.00  0.00    -0.263 NA
ATOM     24  C   UNL     1      17.354   8.343   5.083  0.00  0.00    +0.040 A 
ATOM     27  C   UNL     1      17.893   8.787   6.266  0.00  0.00    +0.033 A 
ATOM     28  C   UNL     1      18.125   8.123   3.967  0.00  0.00    +0.033 A 
ATOM     32  C   UNL     1      19.261   9.007   6.285  0.00  0.00    +0.111 A 
ATOM     33  C   UNL     1      19.483   8.373   4.088  0.00  0.00    +0.111 A 
ENDBRANCH  22  24
ENDBRANCH  19   7
BRANCH  18  21
ATOM     21  C   UNL     1      10.240   5.943   2.779  0.00  0.00    +0.324 C 
BRANCH  21   3
ATOM      3  O   UNL     1      11.603   5.947   2.434  0.00  0.00    -0.483 OA
BRANCH   3  23
ATOM     23  C   UNL     1      12.007   5.083   1.440  0.00  0.00    +0.121 A 
ATOM     25  C   UNL     1      11.334   5.077   0.228  0.00  0.00    +0.045 A 
ATOM     26  C   UNL     1      13.080   4.235   1.669  0.00  0.00    +0.045 A 
ATOM     29  C   UNL     1      11.742   4.202  -0.779  0.00  0.00    +0.004 A 
ATOM     30  C   UNL     1      13.489   3.360   0.663  0.00  0.00    +0.004 A 
ATOM     31  C   UNL     1      12.819   3.343  -0.561  0.00  0.00    +0.000 A 
ENDBRANCH   3  23
ENDBRANCH  21   3
ENDBRANCH  18  21
TORSDOF 5
ENDMDL
MODEL 7
REMARK VINA RESULT:      -6.7     28.332     30.285
REMARK  Name = 7142733
REMARK  5 active torsions:
REMARK  status: ('A' for Active; 'I' for Inactive)
REMARK    1  A    between atoms: O_3  and  C_21
REMARK    2  A    between atoms: O_3  and  C_23
REMARK    3  A    between atoms: N_7  and  C_19
REMARK    4  A    between atoms: C_18  and  C_21
REMARK    5  A    between atoms: C_22  and  C_24
REMARK                            x       y       z     vdW  Elec       q    Type
REMARK                         _______ _______ _______ _____ _____    ______ ____
ROOT
ATOM      1  O   UNL     1      -7.208  -9.483  13.352  0.00  0.00    -0.266 OA
ATOM      2  O   UNL     1      -7.320 -12.617   9.012  0.00  0.00    -0.272 OA
ATOM      5  N   UNL     1      -5.389 -11.326   9.047  0.00  0.00    -0.298 N 
ATOM      6  N   UNL     1      -5.485  -9.678  11.786  0.00  0.00    -0.310 N 
ATOM      9  C   UNL     1      -5.714  -8.869   9.368  0.00  0.00    +0.027 C 
ATOM     10  C   UNL     1      -3.623  -9.931  10.108  0.00  0.00    +0.054 C 
ATOM     11  C   UNL     1      -4.201  -8.690   9.433  0.00  0.00    +0.018 C 
ATOM     12  C   UNL     1      -6.072 -10.127   8.558  0.00  0.00    +0.113 C 
ATOM     13  C   UNL     1      -6.268  -8.926  10.797  0.00  0.00    +0.130 C 
ATOM     14  C   UNL     1      -3.942 -11.178   9.259  0.00  0.00    +0.117 C 
ATOM     15  C   UNL     1      -4.182 -10.104  11.507  0.00  0.00    +0.027 A 
ATOM     16  C   UNL     1      -3.442 -10.687  12.465  0.00  0.00    +0.024 A 
ATOM     17  C   UNL     1      -6.072  -9.856  13.055  0.00  0.00    +0.273 A 
ATOM     18  C   UNL     1      -6.105 -12.514   9.195  0.00  0.00    +0.253 C 
ATOM     19  C   UNL     1      -5.223 -10.532  14.087  0.00  0.00    +0.099 A 
ATOM     20  C   UNL     1      -3.977 -10.905  13.780  0.00  0.00    +0.030 A 
ENDROOT
BRANCH  19   7
ATOM      4  O   UNL     1      -3.976  -9.925  16.582  0.00  0.00    -0.270 OA
ATOM      7  N   UNL     1      -5.759 -10.733  15.325  0.00  0.00    -0.277 N 
ATOM     22  C   UNL     1      -5.099 -10.416  16.505  0.00  0.00    +0.248 C 
ATOM     34  H   UNL     1      -6.617 -11.275  15.342  0.00  0.00    +0.155 HD
BRANCH  22  24
ATOM      8  N   UNL     1      -7.253 -11.195  20.085  0.00  0.00    -0.263 NA
ATOM     24  C   UNL     1      -5.852 -10.688  17.757  0.00  0.00    +0.040 A 
ATOM     27  C   UNL     1      -7.216 -10.521  17.762  0.00  0.00    +0.033 A 
ATOM     28  C   UNL     1      -5.163 -11.099  18.873  0.00  0.00    +0.033 A 
ATOM     32  C   UNL     1      -7.873 -10.788  18.953  0.00  0.00    +0.111 A 
ATOM     33  C   UNL     1      -5.910 -11.340  20.015  0.00  0.00    +0.111 A 
ENDBRANCH  22  24
ENDBRANCH  19   7
BRANCH  18  21
ATOM     21  C   UNL     1      -5.317 -13.730   9.613  0.00  0.00    +0.324 C 
BRANCH  21   3
ATOM      3  O   UNL     1      -5.715 -14.036  10.927  0.00  0.00    -0.483 OA
BRANCH   3  23
ATOM     23  C   UNL     1      -4.722 -14.197  11.868  0.00  0.00    +0.121 A 
ATOM     25  C   UNL     1      -5.069 -14.391  13.197  0.00  0.00    +0.045 A 
ATOM     26  C   UNL     1      -3.394 -14.164  11.471  0.00  0.00    +0.045 A 
ATOM     29  C   UNL     1      -4.064 -14.554  14.151  0.00  0.00    +0.004 A 
ATOM     30  C   UNL     1      -2.389 -14.327  12.424  0.00  0.00    +0.004 A 
ATOM     31  C   UNL     1      -2.725 -14.522  13.764  0.00  0.00    +0.000 A 
ENDBRANCH   3  23
ENDBRANCH  21   3
ENDBRANCH  18  21
TORSDOF 5
ENDMDL
MODEL 8
REMARK VINA RESULT:      -6.7     27.930     32.086
REMARK  Name = 7142733
REMARK  5 active torsions:
REMARK  status: ('A' for Active; 'I' for Inactive)
REMARK    1  A    between atoms: O_3  and  C_21
REMARK    2  A    between atoms: O_3  and  C_23
REMARK    3  A    between atoms: N_7  and  C_19
REMARK    4  A    between atoms: C_18  and  C_21
REMARK    5  A    between atoms: C_22  and  C_24
REMARK                            x       y       z     vdW  Elec       q    Type
REMARK                         _______ _______ _______ _____ _____    ______ ____
ROOT
ATOM      1  O   UNL     1     -16.265   2.053  24.714  0.00  0.00    -0.266 OA
ATOM      2  O   UNL     1     -14.607   5.153  20.675  0.00  0.00    -0.272 OA
ATOM      5  N   UNL     1     -16.772   5.710  21.306  0.00  0.00    -0.298 N 
ATOM      6  N   UNL     1     -17.463   3.844  23.810  0.00  0.00    -0.310 N 
ATOM      9  C   UNL     1     -18.403   3.820  21.429  0.00  0.00    +0.027 C 
ATOM     10  C   UNL     1     -18.723   5.802  22.848  0.00  0.00    +0.054 C 
ATOM     11  C   UNL     1     -19.452   4.776  21.984  0.00  0.00    +0.018 C 
ATOM     12  C   UNL     1     -17.370   4.585  20.584  0.00  0.00    +0.113 C 
ATOM     13  C   UNL     1     -17.750   3.069  22.596  0.00  0.00    +0.130 C 
ATOM     14  C   UNL     1     -17.730   6.599  21.979  0.00  0.00    +0.117 C 
ATOM     15  C   UNL     1     -17.984   5.129  23.989  0.00  0.00    +0.027 A 
ATOM     16  C   UNL     1     -17.806   5.774  25.155  0.00  0.00    +0.024 A 
ATOM     17  C   UNL     1     -16.728   3.190  24.819  0.00  0.00    +0.273 A 
ATOM     18  C   UNL     1     -15.394   5.913  21.245  0.00  0.00    +0.253 C 
ATOM     19  C   UNL     1     -16.531   3.952  26.093  0.00  0.00    +0.099 A 
ATOM     20  C   UNL     1     -17.063   5.171  26.226  0.00  0.00    +0.030 A 
ENDROOT
BRANCH  19   7
ATOM      4  O   UNL     1     -17.603   2.476  28.289  0.00  0.00    -0.270 OA
ATOM      7  N   UNL     1     -15.814   3.358  27.091  0.00  0.00    -0.277 N 
ATOM     22  C   UNL     1     -16.397   2.652  28.135  0.00  0.00    +0.248 C 
ATOM     34  H   UNL     1     -14.827   3.591  27.111  0.00  0.00    +0.155 HD
BRANCH  22  24
ATOM      8  N   UNL     1     -13.698   0.952  30.942  0.00  0.00    -0.263 NA
ATOM     24  C   UNL     1     -15.453   2.057  29.116  0.00  0.00    +0.040 A 
ATOM     27  C   UNL     1     -14.672   2.893  29.878  0.00  0.00    +0.033 A 
ATOM     28  C   UNL     1     -15.389   0.689  29.234  0.00  0.00    +0.033 A 
ATOM     32  C   UNL     1     -13.808   2.290  30.778  0.00  0.00    +0.111 A 
ATOM     33  C   UNL     1     -14.493   0.185  30.163  0.00  0.00    +0.111 A 
ENDBRANCH  22  24
ENDBRANCH  19   7
BRANCH  18  21
ATOM     21  C   UNL     1     -14.861   7.143  21.936  0.00  0.00    +0.324 C 
BRANCH  21   3
ATOM      3  O   UNL     1     -13.467   6.982  22.027  0.00  0.00    -0.483 OA
BRANCH   3  23
ATOM     23  C   UNL     1     -12.681   7.850  21.304  0.00  0.00    +0.121 A 
ATOM     25  C   UNL     1     -11.738   7.341  20.422  0.00  0.00    +0.045 A 
ATOM     26  C   UNL     1     -12.844   9.217  21.468  0.00  0.00    +0.045 A 
ATOM     29  C   UNL     1     -10.941   8.221  19.689  0.00  0.00    +0.004 A 
ATOM     30  C   UNL     1     -12.047  10.096  20.735  0.00  0.00    +0.004 A 
ATOM     31  C   UNL     1     -11.095   9.597  19.845  0.00  0.00    +0.000 A 
ENDBRANCH   3  23
ENDBRANCH  21   3
ENDBRANCH  18  21
TORSDOF 5
ENDMDL
MODEL 9
REMARK VINA RESULT:      -6.7     31.471     33.160
REMARK  Name = 7142733
REMARK  5 active torsions:
REMARK  status: ('A' for Active; 'I' for Inactive)
REMARK    1  A    between atoms: O_3  and  C_21
REMARK    2  A    between atoms: O_3  and  C_23
REMARK    3  A    between atoms: N_7  and  C_19
REMARK    4  A    between atoms: C_18  and  C_21
REMARK    5  A    between atoms: C_22  and  C_24
REMARK                            x       y       z     vdW  Elec       q    Type
REMARK                         _______ _______ _______ _____ _____    ______ ____
ROOT
ATOM      1  O   UNL     1     -11.761  -7.561   9.563  0.00  0.00    -0.266 OA
ATOM      2  O   UNL     1     -16.577  -5.431  10.535  0.00  0.00    -0.272 OA
ATOM      5  N   UNL     1     -14.925  -4.311  11.723  0.00  0.00    -0.298 N 
ATOM      6  N   UNL     1     -12.156  -5.657  10.858  0.00  0.00    -0.310 N 
ATOM      9  C   UNL     1     -13.398  -5.736  13.095  0.00  0.00    +0.027 C 
ATOM     10  C   UNL     1     -12.597  -3.583  12.218  0.00  0.00    +0.054 C 
ATOM     11  C   UNL     1     -12.572  -4.502  13.437  0.00  0.00    +0.018 C 
ATOM     12  C   UNL     1     -14.846  -5.340  12.762  0.00  0.00    +0.113 C 
ATOM     13  C   UNL     1     -12.722  -6.478  11.935  0.00  0.00    +0.130 C 
ATOM     14  C   UNL     1     -14.048  -3.149  11.928  0.00  0.00    +0.117 C 
ATOM     15  C   UNL     1     -12.013  -4.273  11.001  0.00  0.00    +0.027 A 
ATOM     16  C   UNL     1     -11.386  -3.557  10.052  0.00  0.00    +0.024 A 
ATOM     17  C   UNL     1     -11.674  -6.343   9.725  0.00  0.00    +0.273 A 
ATOM     18  C   UNL     1     -15.850  -4.446  10.689  0.00  0.00    +0.253 C 
ATOM     19  C   UNL     1     -11.004  -5.506   8.680  0.00  0.00    +0.099 A 
ATOM     20  C   UNL     1     -10.874  -4.189   8.869  0.00  0.00    +0.030 A 
ENDROOT
BRANCH  19   7
ATOM      4  O   UNL     1      -8.311  -6.332   8.218  0.00  0.00    -0.270 OA
ATOM      7  N   UNL     1     -10.534  -6.131   7.562  0.00  0.00    -0.277 N 
ATOM     22  C   UNL     1      -9.208  -6.509   7.398  0.00  0.00    +0.248 C 
ATOM     34  H   UNL     1     -11.184  -6.171   6.784  0.00  0.00    +0.155 HD
BRANCH  22  24
ATOM      8  N   UNL     1      -8.295  -8.482   3.747  0.00  0.00    -0.263 NA
ATOM     24  C   UNL     1      -8.889  -7.198   6.121  0.00  0.00    +0.040 A 
ATOM     27  C   UNL     1      -7.688  -7.856   6.002  0.00  0.00    +0.033 A 
ATOM     28  C   UNL     1      -9.804  -7.159   5.096  0.00  0.00    +0.033 A 
ATOM     32  C   UNL     1      -7.437  -8.483   4.792  0.00  0.00    +0.111 A 
ATOM     33  C   UNL     1      -9.459  -7.818   3.926  0.00  0.00    +0.111 A 
ENDBRANCH  22  24
ENDBRANCH  19   7
BRANCH  18  21
ATOM     21  C   UNL     1     -15.938  -3.304   9.708  0.00  0.00    +0.324 C 
BRANCH  21   3
ATOM      3  O   UNL     1     -16.801  -2.350  10.277  0.00  0.00    -0.483 OA
BRANCH   3  23
ATOM     23  C   UNL     1     -16.512  -1.023  10.054  0.00  0.00    +0.121 A 
ATOM     25  C   UNL     1     -15.809  -0.661   8.914  0.00  0.00    +0.045 A 
ATOM     26  C   UNL     1     -16.928  -0.070  10.972  0.00  0.00    +0.045 A 
ATOM     29  C   UNL     1     -15.516   0.684   8.687  0.00  0.00    +0.004 A 
ATOM     30  C   UNL     1     -16.635   1.275  10.746  0.00  0.00    +0.004 A 
ATOM     31  C   UNL     1     -15.928   1.651   9.603  0.00  0.00    +0.000 A 
ENDBRANCH   3  23
ENDBRANCH  21   3
ENDBRANCH  18  21
TORSDOF 5
ENDMDL
MODEL 10
REMARK VINA RESULT:      -6.7     27.565     30.879
REMARK  Name = 7142733
REMARK  5 active torsions:
REMARK  status: ('A' for Active; 'I' for Inactive)
REMARK    1  A    between atoms: O_3  and  C_21
REMARK    2  A    between atoms: O_3  and  C_23
REMARK    3  A    between atoms: N_7  and  C_19
REMARK    4  A    between atoms: C_18  and  C_21
REMARK    5  A    between atoms: C_22  and  C_24
REMARK                            x       y       z     vdW  Elec       q    Type
REMARK                         _______ _______ _______ _____ _____    ______ ____
ROOT
ATOM      1  O   UNL     1      -8.537  -8.345  17.093  0.00  0.00    -0.266 OA
ATOM      2  O   UNL     1      -3.548 -10.216  16.560  0.00  0.00    -0.272 OA
ATOM      5  N   UNL     1      -4.969 -11.872  17.358  0.00  0.00    -0.298 N 
ATOM      6  N   UNL     1      -7.885 -10.562  17.436  0.00  0.00    -0.310 N 
ATOM      9  C   UNL     1      -6.346 -11.272  19.355  0.00  0.00    +0.027 C 
ATOM     10  C   UNL     1      -7.171 -12.956  17.765  0.00  0.00    +0.054 C 
ATOM     11  C   UNL     1      -7.063 -12.612  19.248  0.00  0.00    +0.018 C 
ATOM     12  C   UNL     1      -4.943 -11.360  18.730  0.00  0.00    +0.113 C 
ATOM     13  C   UNL     1      -7.207 -10.194  18.686  0.00  0.00    +0.130 C 
ATOM     14  C   UNL     1      -5.759 -13.096  17.162  0.00  0.00    +0.117 C 
ATOM     15  C   UNL     1      -7.949 -11.893  17.012  0.00  0.00    +0.027 A 
ATOM     16  C   UNL     1      -8.673 -12.224  15.929  0.00  0.00    +0.024 A 
ATOM     17  C   UNL     1      -8.550  -9.527  16.748  0.00  0.00    +0.273 A 
ATOM     18  C   UNL     1      -4.205 -11.244  16.375  0.00  0.00    +0.253 C 
ATOM     19  C   UNL     1      -9.324  -9.933  15.533  0.00  0.00    +0.099 A 
ATOM     20  C   UNL     1      -9.372 -11.221  15.176  0.00  0.00    +0.030 A 
ENDROOT
BRANCH  19   7
ATOM      4  O   UNL     1     -11.959  -8.961  16.042  0.00  0.00    -0.270 OA
ATOM      7  N   UNL     1      -9.972  -8.959  14.831  0.00  0.00    -0.277 N 
ATOM     22  C   UNL     1     -11.259  -8.529  15.130  0.00  0.00    +0.248 C 
ATOM     34  H   UNL     1      -9.515  -8.667  13.974  0.00  0.00    +0.155 HD
BRANCH  22  24
ATOM      8  N   UNL     1     -12.779  -5.422  12.662  0.00  0.00    -0.263 NA
ATOM     24  C   UNL     1     -11.791  -7.443  14.267  0.00  0.00    +0.040 A 
ATOM     27  C   UNL     1     -11.813  -6.157  14.753  0.00  0.00    +0.033 A 
ATOM     28  C   UNL     1     -12.244  -7.754  13.007  0.00  0.00    +0.033 A 
ATOM     32  C   UNL     1     -12.318  -5.180  13.910  0.00  0.00    +0.111 A 
ATOM     33  C   UNL     1     -12.730  -6.706  12.242  0.00  0.00    +0.111 A 
ENDBRANCH  22  24
ENDBRANCH  19   7
BRANCH  18  21
ATOM     21  C   UNL     1      -4.207 -11.880  15.008  0.00  0.00    +0.324 C 
BRANCH  21   3
ATOM      3  O   UNL     1      -4.794 -10.951  14.131  0.00  0.00    -0.483 OA
BRANCH   3  23
ATOM     23  C   UNL     1      -4.052 -10.550  13.043  0.00  0.00    +0.121 A 
ATOM     25  C   UNL     1      -4.698 -10.016  11.937  0.00  0.00    +0.045 A 
ATOM     26  C   UNL     1      -2.673 -10.688  13.070  0.00  0.00    +0.045 A 
ATOM     29  C   UNL     1      -3.947  -9.611  10.834  0.00  0.00    +0.004 A 
ATOM     30  C   UNL     1      -1.921 -10.283  11.967  0.00  0.00    +0.004 A 
ATOM     31  C   UNL     1      -2.559  -9.744  10.848  0.00  0.00    +0.000 A 
ENDBRANCH   3  23
ENDBRANCH  21   3
ENDBRANCH  18  21
TORSDOF 5
ENDMDL
