MODEL 1
REMARK VINA RESULT:      -8.5      0.000      0.000
REMARK  Name = 11885878
REMARK  3 active torsions:
REMARK  status: ('A' for Active; 'I' for Inactive)
REMARK    1  A    between atoms: N_8  and  C_19
REMARK    2  A    between atoms: C_18  and  C_21
REMARK    3  A    between atoms: C_24  and  C_28
REMARK                            x       y       z     vdW  Elec       q    Type
REMARK                         _______ _______ _______ _____ _____    ______ ____
ROOT
ATOM      3  O   UNL     1      13.642  11.839  18.244  0.00  0.00    -0.266 OA
ATOM      4  O   UNL     1      15.472   9.215  22.311  0.00  0.00    -0.270 OA
ATOM      6  N   UNL     1      13.623   8.044  21.484  0.00  0.00    -0.297 N 
ATOM      7  N   UNL     1      12.834   9.758  18.933  0.00  0.00    -0.310 N 
ATOM      9  C   UNL     1      11.579   9.423  21.143  0.00  0.00    +0.027 C 
ATOM     10  C   UNL     1      12.012   7.494  19.674  0.00  0.00    +0.054 C 
ATOM     11  C   UNL     1      10.918   8.251  20.424  0.00  0.00    +0.018 C 
ATOM     12  C   UNL     1      12.643   8.915  22.132  0.00  0.00    +0.113 C 
ATOM     13  C   UNL     1      12.174  10.372  20.094  0.00  0.00    +0.130 C 
ATOM     14  C   UNL     1      13.049   6.953  20.681  0.00  0.00    +0.117 C 
ATOM     15  C   UNL     1      12.703   8.392  18.665  0.00  0.00    +0.027 A 
ATOM     16  C   UNL     1      13.217   7.871  17.537  0.00  0.00    +0.024 A 
ATOM     17  C   UNL     1      13.515  10.628  18.059  0.00  0.00    +0.273 A 
ATOM     18  C   UNL     1      14.986   8.305  21.642  0.00  0.00    +0.247 C 
ATOM     19  C   UNL     1      14.099  10.004  16.828  0.00  0.00    +0.099 A 
ATOM     20  C   UNL     1      13.929   8.697  16.604  0.00  0.00    +0.030 A 
ENDROOT
BRANCH  18  21
ATOM      1  F   UNL     1      18.612   4.999  18.962  0.00  0.00    -0.205 F 
ATOM     21  C   UNL     1      15.937   7.437  20.939  0.00  0.00    +0.037 A 
ATOM     22  C   UNL     1      15.668   7.028  19.636  0.00  0.00    +0.016 A 
ATOM     23  C   UNL     1      17.105   7.028  21.579  0.00  0.00    +0.016 A 
ATOM     25  C   UNL     1      16.574   6.203  18.967  0.00  0.00    +0.039 A 
ATOM     26  C   UNL     1      18.009   6.203  20.910  0.00  0.00    +0.039 A 
ATOM     27  C   UNL     1      17.744   5.791  19.605  0.00  0.00    +0.123 A 
ENDBRANCH  18  21
BRANCH  19   8
ATOM      5  O   UNL     1      13.098  11.079  14.381  0.00  0.00    -0.270 OA
ATOM      8  N   UNL     1      14.781  10.809  15.965  0.00  0.00    -0.277 N 
ATOM     24  C   UNL     1      14.237  11.301  14.786  0.00  0.00    +0.248 C 
ATOM     34  H   UNL     1      15.771  10.910  16.161  0.00  0.00    +0.155 HD
BRANCH  24  28
ATOM      2  F   UNL     1      17.577  14.606  11.769  0.00  0.00    -0.205 F 
ATOM     28  C   UNL     1      15.126  12.180  13.983  0.00  0.00    +0.037 A 
ATOM     29  C   UNL     1      15.455  11.801  12.699  0.00  0.00    +0.016 A 
ATOM     30  C   UNL     1      15.593  13.349  14.548  0.00  0.00    +0.016 A 
ATOM     31  C   UNL     1      16.290  12.626  11.945  0.00  0.00    +0.039 A 
ATOM     32  C   UNL     1      16.427  14.175  13.795  0.00  0.00    +0.039 A 
ATOM     33  C   UNL     1      16.775  13.813  12.493  0.00  0.00    +0.123 A 
ENDBRANCH  24  28
ENDBRANCH  19   8
TORSDOF 3
ENDMDL
MODEL 2
REMARK VINA RESULT:      -8.2     13.329     17.731
REMARK  Name = 11885878
REMARK  3 active torsions:
REMARK  status: ('A' for Active; 'I' for Inactive)
REMARK    1  A    between atoms: N_8  and  C_19
REMARK    2  A    between atoms: C_18  and  C_21
REMARK    3  A    between atoms: C_24  and  C_28
REMARK                            x       y       z     vdW  Elec       q    Type
REMARK                         _______ _______ _______ _____ _____    ______ ____
ROOT
ATOM      3  O   UNL     1       8.340   7.596   3.185  0.00  0.00    -0.266 OA
ATOM      4  O   UNL     1       9.765   4.836  -0.954  0.00  0.00    -0.270 OA
ATOM      6  N   UNL     1      10.818   6.921  -1.094  0.00  0.00    -0.297 N 
ATOM      7  N   UNL     1       9.920   8.305   1.616  0.00  0.00    -0.310 N 
ATOM      9  C   UNL     1       9.306   8.877  -0.806  0.00  0.00    +0.027 C 
ATOM     10  C   UNL     1      11.651   9.024  -0.068  0.00  0.00    +0.054 C 
ATOM     11  C   UNL     1      10.521   9.797  -0.746  0.00  0.00    +0.018 C 
ATOM     12  C   UNL     1       9.634   7.607  -1.611  0.00  0.00    +0.113 C 
ATOM     13  C   UNL     1       8.861   8.553   0.626  0.00  0.00    +0.130 C 
ATOM     14  C   UNL     1      12.000   7.777  -0.906  0.00  0.00    +0.117 C 
ATOM     15  C   UNL     1      11.257   8.601   1.335  0.00  0.00    +0.027 A 
ATOM     16  C   UNL     1      12.193   8.476   2.291  0.00  0.00    +0.024 A 
ATOM     17  C   UNL     1       9.507   7.853   2.885  0.00  0.00    +0.273 A 
ATOM     18  C   UNL     1      10.750   5.557  -0.800  0.00  0.00    +0.247 C 
ATOM     19  C   UNL     1      10.583   7.699   3.915  0.00  0.00    +0.099 A 
ATOM     20  C   UNL     1      11.845   8.015   3.606  0.00  0.00    +0.030 A 
ENDROOT
BRANCH  18  21
ATOM      1  F   UNL     1      15.300   3.108   1.333  0.00  0.00    -0.205 F 
ATOM     21  C   UNL     1      11.943   4.914  -0.240  0.00  0.00    +0.037 A 
ATOM     22  C   UNL     1      12.900   4.369  -1.093  0.00  0.00    +0.016 A 
ATOM     23  C   UNL     1      12.114   4.853   1.140  0.00  0.00    +0.016 A 
ATOM     25  C   UNL     1      14.036   3.758  -0.560  0.00  0.00    +0.039 A 
ATOM     26  C   UNL     1      13.249   4.242   1.672  0.00  0.00    +0.039 A 
ATOM     27  C   UNL     1      14.210   3.694   0.823  0.00  0.00    +0.123 A 
ENDBRANCH  18  21
BRANCH  19   8
ATOM      5  O   UNL     1      10.597   4.980   4.781  0.00  0.00    -0.270 OA
ATOM      8  N   UNL     1      10.227   7.247   5.151  0.00  0.00    -0.277 N 
ATOM     24  C   UNL     1      10.256   5.907   5.512  0.00  0.00    +0.248 C 
ATOM     34  H   UNL     1       9.794   7.938   5.754  0.00  0.00    +0.155 HD
BRANCH  24  28
ATOM      2  F   UNL     1       8.736   4.784  10.766  0.00  0.00    -0.205 F 
ATOM     28  C   UNL     1       9.852   5.608   6.911  0.00  0.00    +0.037 A 
ATOM     29  C   UNL     1       9.342   6.626   7.688  0.00  0.00    +0.016 A 
ATOM     30  C   UNL     1       9.998   4.321   7.385  0.00  0.00    +0.016 A 
ATOM     31  C   UNL     1       8.963   6.347   9.001  0.00  0.00    +0.039 A 
ATOM     32  C   UNL     1       9.618   4.040   8.697  0.00  0.00    +0.039 A 
ATOM     33  C   UNL     1       9.100   5.053   9.505  0.00  0.00    +0.123 A 
ENDBRANCH  24  28
ENDBRANCH  19   8
TORSDOF 3
ENDMDL
MODEL 3
REMARK VINA RESULT:      -8.2     27.553     30.510
REMARK  Name = 11885878
REMARK  3 active torsions:
REMARK  status: ('A' for Active; 'I' for Inactive)
REMARK    1  A    between atoms: N_8  and  C_19
REMARK    2  A    between atoms: C_18  and  C_21
REMARK    3  A    between atoms: C_24  and  C_28
REMARK                            x       y       z     vdW  Elec       q    Type
REMARK                         _______ _______ _______ _____ _____    ______ ____
ROOT
ATOM      3  O   UNL     1      -6.674  -9.876  14.369  0.00  0.00    -0.266 OA
ATOM      4  O   UNL     1      -4.864 -14.365  12.541  0.00  0.00    -0.270 OA
ATOM      6  N   UNL     1      -3.026 -13.068  13.184  0.00  0.00    -0.297 N 
ATOM      7  N   UNL     1      -4.421 -10.496  14.409  0.00  0.00    -0.310 N 
ATOM      9  C   UNL     1      -3.017 -10.749  12.281  0.00  0.00    +0.027 C 
ATOM     10  C   UNL     1      -2.006 -11.210  14.479  0.00  0.00    +0.054 C 
ATOM     11  C   UNL     1      -1.839 -10.408  13.189  0.00  0.00    +0.018 C 
ATOM     12  C   UNL     1      -3.035 -12.255  11.967  0.00  0.00    +0.113 C 
ATOM     13  C   UNL     1      -4.312 -10.285  12.958  0.00  0.00    +0.130 C 
ATOM     14  C   UNL     1      -1.979 -12.718  14.157  0.00  0.00    +0.117 C 
ATOM     15  C   UNL     1      -3.309 -10.860  15.173  0.00  0.00    +0.027 A 
ATOM     16  C   UNL     1      -3.402 -10.935  16.512  0.00  0.00    +0.024 A 
ATOM     17  C   UNL     1      -5.671 -10.216  14.998  0.00  0.00    +0.273 A 
ATOM     18  C   UNL     1      -3.986 -14.069  13.350  0.00  0.00    +0.247 C 
ATOM     19  C   UNL     1      -5.742 -10.339  16.489  0.00  0.00    +0.099 A 
ATOM     20  C   UNL     1      -4.645 -10.669  17.179  0.00  0.00    +0.030 A 
ENDROOT
BRANCH  18  21
ATOM      1  F   UNL     1      -3.940 -16.978  18.124  0.00  0.00    -0.205 F 
ATOM     21  C   UNL     1      -3.974 -14.832  14.602  0.00  0.00    +0.037 A 
ATOM     22  C   UNL     1      -4.736 -14.399  15.684  0.00  0.00    +0.016 A 
ATOM     23  C   UNL     1      -3.200 -15.985  14.702  0.00  0.00    +0.016 A 
ATOM     25  C   UNL     1      -4.725 -15.126  16.875  0.00  0.00    +0.039 A 
ATOM     26  C   UNL     1      -3.189 -16.711  15.894  0.00  0.00    +0.039 A 
ATOM     27  C   UNL     1      -3.951 -16.282  16.980  0.00  0.00    +0.123 A 
ENDBRANCH  18  21
BRANCH  19   8
ATOM      5  O   UNL     1      -7.581 -12.303  17.438  0.00  0.00    -0.270 OA
ATOM      8  N   UNL     1      -6.938 -10.094  17.095  0.00  0.00    -0.277 N 
ATOM     24  C   UNL     1      -7.791 -11.096  17.536  0.00  0.00    +0.248 C 
ATOM     34  H   UNL     1      -7.242  -9.126  17.073  0.00  0.00    +0.155 HD
BRANCH  24  28
ATOM      2  F   UNL     1     -12.493  -9.365  20.001  0.00  0.00    -0.205 F 
ATOM     28  C   UNL     1      -9.042 -10.635  18.193  0.00  0.00    +0.037 A 
ATOM     29  C   UNL     1      -9.877  -9.779  17.506  0.00  0.00    +0.016 A 
ATOM     30  C   UNL     1      -9.329 -11.080  19.467  0.00  0.00    +0.016 A 
ATOM     31  C   UNL     1     -11.052  -9.345  18.122  0.00  0.00    +0.039 A 
ATOM     32  C   UNL     1     -10.503 -10.648  20.082  0.00  0.00    +0.039 A 
ATOM     33  C   UNL     1     -11.365  -9.781  19.410  0.00  0.00    +0.123 A 
ENDBRANCH  24  28
ENDBRANCH  19   8
TORSDOF 3
ENDMDL
MODEL 4
REMARK VINA RESULT:      -8.0     30.869     32.758
REMARK  Name = 11885878
REMARK  3 active torsions:
REMARK  status: ('A' for Active; 'I' for Inactive)
REMARK    1  A    between atoms: N_8  and  C_19
REMARK    2  A    between atoms: C_18  and  C_21
REMARK    3  A    between atoms: C_24  and  C_28
REMARK                            x       y       z     vdW  Elec       q    Type
REMARK                         _______ _______ _______ _____ _____    ______ ____
ROOT
ATOM      3  O   UNL     1     -12.278  -7.529   9.266  0.00  0.00    -0.266 OA
ATOM      4  O   UNL     1     -16.572  -5.022  10.698  0.00  0.00    -0.270 OA
ATOM      6  N   UNL     1     -14.813  -4.232  12.024  0.00  0.00    -0.297 N 
ATOM      7  N   UNL     1     -12.322  -5.786  10.823  0.00  0.00    -0.310 N 
ATOM      9  C   UNL     1     -13.448  -6.005  13.114  0.00  0.00    +0.027 C 
ATOM     10  C   UNL     1     -12.395  -3.876  12.464  0.00  0.00    +0.054 C 
ATOM     11  C   UNL     1     -12.439  -4.948  13.552  0.00  0.00    +0.018 C 
ATOM     12  C   UNL     1     -14.842  -5.376  12.936  0.00  0.00    +0.113 C 
ATOM     13  C   UNL     1     -12.944  -6.665  11.824  0.00  0.00    +0.130 C 
ATOM     14  C   UNL     1     -13.785  -3.223  12.325  0.00  0.00    +0.117 C 
ATOM     15  C   UNL     1     -11.974  -4.468  11.132  0.00  0.00    +0.027 A 
ATOM     16  C   UNL     1     -11.302  -3.718  10.241  0.00  0.00    +0.024 A 
ATOM     17  C   UNL     1     -12.007  -6.368   9.579  0.00  0.00    +0.273 A 
ATOM     18  C   UNL     1     -15.711  -4.181  10.955  0.00  0.00    +0.247 C 
ATOM     19  C   UNL     1     -11.285  -5.491   8.603  0.00  0.00    +0.099 A 
ATOM     20  C   UNL     1     -10.953  -4.244   8.952  0.00  0.00    +0.030 A 
ENDROOT
BRANCH  18  21
ATOM      1  F   UNL     1     -15.370   0.164   7.454  0.00  0.00    -0.205 F 
ATOM     21  C   UNL     1     -15.622  -3.042  10.037  0.00  0.00    +0.037 A 
ATOM     22  C   UNL     1     -16.386  -1.902  10.271  0.00  0.00    +0.016 A 
ATOM     23  C   UNL     1     -14.772  -3.105   8.935  0.00  0.00    +0.016 A 
ATOM     25  C   UNL     1     -16.301  -0.817   9.398  0.00  0.00    +0.039 A 
ATOM     26  C   UNL     1     -14.688  -2.021   8.062  0.00  0.00    +0.039 A 
ATOM     27  C   UNL     1     -15.451  -0.877   8.293  0.00  0.00    +0.123 A 
ENDBRANCH  18  21
BRANCH  19   8
ATOM      5  O   UNL     1      -8.827  -6.749   7.878  0.00  0.00    -0.270 OA
ATOM      8  N   UNL     1     -10.977  -6.012   7.380  0.00  0.00    -0.277 N 
ATOM     24  C   UNL     1      -9.759  -6.613   7.090  0.00  0.00    +0.248 C 
ATOM     34  H   UNL     1     -11.641  -5.801   6.643  0.00  0.00    +0.155 HD
BRANCH  24  28
ATOM      2  F   UNL     1      -9.217  -8.592   1.897  0.00  0.00    -0.205 F 
ATOM     28  C   UNL     1      -9.615  -7.140   5.708  0.00  0.00    +0.037 A 
ATOM     29  C   UNL     1     -10.673  -7.012   4.833  0.00  0.00    +0.016 A 
ATOM     30  C   UNL     1      -8.427  -7.739   5.344  0.00  0.00    +0.016 A 
ATOM     31  C   UNL     1     -10.538  -7.507   3.535  0.00  0.00    +0.039 A 
ATOM     32  C   UNL     1      -8.291  -8.233   4.048  0.00  0.00    +0.039 A 
ATOM     33  C   UNL     1      -9.347  -8.117   3.143  0.00  0.00    +0.123 A 
ENDBRANCH  24  28
ENDBRANCH  19   8
TORSDOF 3
ENDMDL
MODEL 5
REMARK VINA RESULT:      -8.0     10.733     13.236
REMARK  Name = 11885878
REMARK  3 active torsions:
REMARK  status: ('A' for Active; 'I' for Inactive)
REMARK    1  A    between atoms: N_8  and  C_19
REMARK    2  A    between atoms: C_18  and  C_21
REMARK    3  A    between atoms: C_24  and  C_28
REMARK                            x       y       z     vdW  Elec       q    Type
REMARK                         _______ _______ _______ _____ _____    ______ ____
ROOT
ATOM      3  O   UNL     1      12.686   7.575   3.577  0.00  0.00    -0.266 OA
ATOM      4  O   UNL     1       9.280  11.082   5.272  0.00  0.00    -0.270 OA
ATOM      6  N   UNL     1       8.646   9.002   6.135  0.00  0.00    -0.297 N 
ATOM      7  N   UNL     1      10.973   7.111   5.098  0.00  0.00    -0.310 N 
ATOM      9  C   UNL     1       8.494   7.174   4.452  0.00  0.00    +0.027 C 
ATOM     10  C   UNL     1       9.145   6.652   6.769  0.00  0.00    +0.054 C 
ATOM     11  C   UNL     1       8.322   6.161   5.579  0.00  0.00    +0.018 C 
ATOM     12  C   UNL     1       8.000   8.562   4.898  0.00  0.00    +0.113 C 
ATOM     13  C   UNL     1       9.968   7.195   4.028  0.00  0.00    +0.130 C 
ATOM     14  C   UNL     1       8.613   8.023   7.234  0.00  0.00    +0.117 C 
ATOM     15  C   UNL     1      10.613   6.771   6.405  0.00  0.00    +0.027 A 
ATOM     16  C   UNL     1      11.559   6.588   7.342  0.00  0.00    +0.024 A 
ATOM     17  C   UNL     1      12.318   7.292   4.718  0.00  0.00    +0.273 A 
ATOM     18  C   UNL     1       9.248  10.261   6.187  0.00  0.00    +0.247 C 
ATOM     19  C   UNL     1      13.340   7.106   5.797  0.00  0.00    +0.099 A 
ATOM     20  C   UNL     1      12.949   6.760   7.028  0.00  0.00    +0.030 A 
ENDROOT
BRANCH  18  21
ATOM      1  F   UNL     1      11.827  11.734  10.924  0.00  0.00    -0.205 F 
ATOM     21  C   UNL     1       9.925  10.647   7.429  0.00  0.00    +0.037 A 
ATOM     22  C   UNL     1       9.180  11.129   8.503  0.00  0.00    +0.016 A 
ATOM     23  C   UNL     1      11.309  10.530   7.530  0.00  0.00    +0.016 A 
ATOM     25  C   UNL     1       9.823  11.496   9.685  0.00  0.00    +0.039 A 
ATOM     26  C   UNL     1      11.952  10.898   8.712  0.00  0.00    +0.039 A 
ATOM     27  C   UNL     1      11.210  11.381   9.789  0.00  0.00    +0.123 A 
ENDBRANCH  18  21
BRANCH  19   8
ATOM      5  O   UNL     1      14.916   9.409   6.396  0.00  0.00    -0.270 OA
ATOM      8  N   UNL     1      14.652   7.289   5.474  0.00  0.00    -0.277 N 
ATOM     24  C   UNL     1      15.366   8.436   5.795  0.00  0.00    +0.248 C 
ATOM     34  H   UNL     1      15.043   6.592   4.849  0.00  0.00    +0.155 HD
BRANCH  24  28
ATOM      2  F   UNL     1      20.726   8.471   4.229  0.00  0.00    -0.205 F 
ATOM     28  C   UNL     1      16.793   8.445   5.379  0.00  0.00    +0.037 A 
ATOM     29  C   UNL     1      17.109   8.104   4.081  0.00  0.00    +0.016 A 
ATOM     30  C   UNL     1      17.754   8.795   6.304  0.00  0.00    +0.016 A 
ATOM     31  C   UNL     1      18.448   8.112   3.689  0.00  0.00    +0.039 A 
ATOM     32  C   UNL     1      19.093   8.804   5.913  0.00  0.00    +0.039 A 
ATOM     33  C   UNL     1      19.440   8.463   4.605  0.00  0.00    +0.123 A 
ENDBRANCH  24  28
ENDBRANCH  19   8
TORSDOF 3
ENDMDL
MODEL 6
REMARK VINA RESULT:      -7.9     12.327     15.003
REMARK  Name = 11885878
REMARK  3 active torsions:
REMARK  status: ('A' for Active; 'I' for Inactive)
REMARK    1  A    between atoms: N_8  and  C_19
REMARK    2  A    between atoms: C_18  and  C_21
REMARK    3  A    between atoms: C_24  and  C_28
REMARK                            x       y       z     vdW  Elec       q    Type
REMARK                         _______ _______ _______ _____ _____    ______ ____
ROOT
ATOM      3  O   UNL     1      14.125   6.953   6.878  0.00  0.00    -0.266 OA
ATOM      4  O   UNL     1      10.586   3.983   4.548  0.00  0.00    -0.270 OA
ATOM      6  N   UNL     1       9.791   6.183   4.528  0.00  0.00    -0.297 N 
ATOM      7  N   UNL     1      12.202   7.776   5.836  0.00  0.00    -0.310 N 
ATOM      9  C   UNL     1       9.844   7.334   6.734  0.00  0.00    +0.027 C 
ATOM     10  C   UNL     1      10.144   8.638   4.666  0.00  0.00    +0.054 C 
ATOM     11  C   UNL     1       9.490   8.650   6.047  0.00  0.00    +0.018 C 
ATOM     12  C   UNL     1       9.321   6.142   5.913  0.00  0.00    +0.113 C 
ATOM     13  C   UNL     1      11.363   7.275   6.934  0.00  0.00    +0.130 C 
ATOM     14  C   UNL     1       9.580   7.466   3.838  0.00  0.00    +0.117 C 
ATOM     15  C   UNL     1      11.651   8.505   4.778  0.00  0.00    +0.027 A 
ATOM     16  C   UNL     1      12.449   9.053   3.845  0.00  0.00    +0.024 A 
ATOM     17  C   UNL     1      13.592   7.572   5.957  0.00  0.00    +0.273 A 
ATOM     18  C   UNL     1      10.406   5.057   3.977  0.00  0.00    +0.247 C 
ATOM     19  C   UNL     1      14.444   8.175   4.883  0.00  0.00    +0.099 A 
ATOM     20  C   UNL     1      13.873   8.882   3.902  0.00  0.00    +0.030 A 
ENDROOT
BRANCH  18  21
ATOM      1  F   UNL     1      12.311   5.414  -1.268  0.00  0.00    -0.205 F 
ATOM     21  C   UNL     1      10.905   5.151   2.601  0.00  0.00    +0.037 A 
ATOM     22  C   UNL     1      12.175   5.668   2.359  0.00  0.00    +0.016 A 
ATOM     23  C   UNL     1      10.107   4.721   1.544  0.00  0.00    +0.016 A 
ATOM     25  C   UNL     1      12.651   5.757   1.050  0.00  0.00    +0.039 A 
ATOM     26  C   UNL     1      10.583   4.811   0.235  0.00  0.00    +0.039 A 
ATOM     27  C   UNL     1      11.854   5.328  -0.012  0.00  0.00    +0.123 A 
ENDBRANCH  18  21
BRANCH  19   8
ATOM      5  O   UNL     1      16.338   9.971   6.036  0.00  0.00    -0.270 OA
ATOM      8  N   UNL     1      15.793   7.985   4.954  0.00  0.00    -0.277 N 
ATOM     24  C   UNL     1      16.663   8.900   5.529  0.00  0.00    +0.248 C 
ATOM     34  H   UNL     1      16.146   7.195   4.424  0.00  0.00    +0.155 HD
BRANCH  24  28
ATOM      2  F   UNL     1      22.052   7.437   5.541  0.00  0.00    -0.205 F 
ATOM     28  C   UNL     1      18.098   8.510   5.533  0.00  0.00    +0.037 A 
ATOM     29  C   UNL     1      18.639   7.954   4.393  0.00  0.00    +0.016 A 
ATOM     30  C   UNL     1      18.842   8.720   6.676  0.00  0.00    +0.016 A 
ATOM     31  C   UNL     1      19.985   7.587   4.396  0.00  0.00    +0.039 A 
ATOM     32  C   UNL     1      20.188   8.354   6.679  0.00  0.00    +0.039 A 
ATOM     33  C   UNL     1      20.760   7.789   5.538  0.00  0.00    +0.123 A 
ENDBRANCH  24  28
ENDBRANCH  19   8
TORSDOF 3
ENDMDL
MODEL 7
REMARK VINA RESULT:      -7.9     14.456     19.581
REMARK  Name = 11885878
REMARK  3 active torsions:
REMARK  status: ('A' for Active; 'I' for Inactive)
REMARK    1  A    between atoms: N_8  and  C_19
REMARK    2  A    between atoms: C_18  and  C_21
REMARK    3  A    between atoms: C_24  and  C_28
REMARK                            x       y       z     vdW  Elec       q    Type
REMARK                         _______ _______ _______ _____ _____    ______ ____
ROOT
ATOM      3  O   UNL     1      17.926  -6.154  29.159  0.00  0.00    -0.266 OA
ATOM      4  O   UNL     1      20.154  -2.985  25.728  0.00  0.00    -0.270 OA
ATOM      6  N   UNL     1      20.032  -5.110  24.756  0.00  0.00    -0.297 N 
ATOM      7  N   UNL     1      18.488  -6.770  26.975  0.00  0.00    -0.310 N 
ATOM      9  C   UNL     1      20.913  -6.958  26.171  0.00  0.00    +0.027 C 
ATOM     10  C   UNL     1      19.065  -7.392  24.603  0.00  0.00    +0.054 C 
ATOM     11  C   UNL     1      20.355  -7.974  25.178  0.00  0.00    +0.018 C 
ATOM     12  C   UNL     1      21.205  -5.622  25.465  0.00  0.00    +0.113 C 
ATOM     13  C   UNL     1      19.916  -6.796  27.324  0.00  0.00    +0.130 C 
ATOM     14  C   UNL     1      19.376  -6.076  23.862  0.00  0.00    +0.117 C 
ATOM     15  C   UNL     1      18.048  -7.132  25.699  0.00  0.00    +0.027 A 
ATOM     16  C   UNL     1      16.733  -7.213  25.433  0.00  0.00    +0.024 A 
ATOM     17  C   UNL     1      17.588  -6.462  28.015  0.00  0.00    +0.273 A 
ATOM     18  C   UNL     1      19.611  -3.797  24.981  0.00  0.00    +0.247 C 
ATOM     19  C   UNL     1      16.131  -6.536  27.672  0.00  0.00    +0.099 A 
ATOM     20  C   UNL     1      15.759  -6.907  26.443  0.00  0.00    +0.030 A 
ENDROOT
BRANCH  18  21
ATOM      1  F   UNL     1      15.012  -2.031  22.338  0.00  0.00    -0.205 F 
ATOM     21  C   UNL     1      18.405  -3.334  24.287  0.00  0.00    +0.037 A 
ATOM     22  C   UNL     1      17.153  -3.549  24.858  0.00  0.00    +0.016 A 
ATOM     23  C   UNL     1      18.518  -2.681  23.063  0.00  0.00    +0.016 A 
ATOM     25  C   UNL     1      16.005  -3.107  24.198  0.00  0.00    +0.039 A 
ATOM     26  C   UNL     1      17.370  -2.241  22.403  0.00  0.00    +0.039 A 
ATOM     27  C   UNL     1      16.114  -2.453  22.970  0.00  0.00    +0.123 A 
ENDBRANCH  18  21
BRANCH  19   8
ATOM      5  O   UNL     1      14.826  -8.389  29.405  0.00  0.00    -0.270 OA
ATOM      8  N   UNL     1      15.228  -6.227  28.645  0.00  0.00    -0.277 N 
ATOM     24  C   UNL     1      14.626  -7.178  29.458  0.00  0.00    +0.248 C 
ATOM     34  H   UNL     1      14.904  -5.266  28.644  0.00  0.00    +0.155 HD
BRANCH  24  28
ATOM      2  F   UNL     1      11.082  -5.194  33.290  0.00  0.00    -0.205 F 
ATOM     28  C   UNL     1      13.682  -6.650  30.478  0.00  0.00    +0.037 A 
ATOM     29  C   UNL     1      12.520  -7.346  30.733  0.00  0.00    +0.016 A 
ATOM     30  C   UNL     1      14.000  -5.480  31.137  0.00  0.00    +0.016 A 
ATOM     31  C   UNL     1      11.634  -6.851  31.690  0.00  0.00    +0.039 A 
ATOM     32  C   UNL     1      13.116  -4.985  32.094  0.00  0.00    +0.039 A 
ATOM     33  C   UNL     1      11.932  -5.670  32.371  0.00  0.00    +0.123 A 
ENDBRANCH  24  28
ENDBRANCH  19   8
TORSDOF 3
ENDMDL
MODEL 8
REMARK VINA RESULT:      -7.9     23.759     26.264
REMARK  Name = 11885878
REMARK  3 active torsions:
REMARK  status: ('A' for Active; 'I' for Inactive)
REMARK    1  A    between atoms: N_8  and  C_19
REMARK    2  A    between atoms: C_18  and  C_21
REMARK    3  A    between atoms: C_24  and  C_28
REMARK                            x       y       z     vdW  Elec       q    Type
REMARK                         _______ _______ _______ _____ _____    ______ ____
ROOT
ATOM      3  O   UNL     1       9.602  -9.560  32.100  0.00  0.00    -0.266 OA
ATOM      4  O   UNL     1       8.374  -9.290  37.119  0.00  0.00    -0.270 OA
ATOM      6  N   UNL     1       8.045  -7.167  36.193  0.00  0.00    -0.297 N 
ATOM      7  N   UNL     1       8.691  -7.669  33.128  0.00  0.00    -0.310 N 
ATOM      9  C   UNL     1       9.966  -6.293  34.873  0.00  0.00    +0.027 C 
ATOM     10  C   UNL     1       7.668  -5.661  34.254  0.00  0.00    +0.054 C 
ATOM     11  C   UNL     1       9.097  -5.137  34.388  0.00  0.00    +0.018 C 
ATOM     12  C   UNL     1       9.463  -6.809  36.233  0.00  0.00    +0.113 C 
ATOM     13  C   UNL     1       9.967  -7.393  33.804  0.00  0.00    +0.130 C 
ATOM     14  C   UNL     1       7.160  -6.135  35.631  0.00  0.00    +0.117 C 
ATOM     15  C   UNL     1       7.599  -6.808  33.262  0.00  0.00    +0.027 A 
ATOM     16  C   UNL     1       6.480  -7.015  32.546  0.00  0.00    +0.024 A 
ATOM     17  C   UNL     1       8.660  -8.783  32.265  0.00  0.00    +0.273 A 
ATOM     18  C   UNL     1       7.639  -8.423  36.650  0.00  0.00    +0.247 C 
ATOM     19  C   UNL     1       7.386  -8.997  31.506  0.00  0.00    +0.099 A 
ATOM     20  C   UNL     1       6.376  -8.133  31.652  0.00  0.00    +0.030 A 
ENDROOT
BRANCH  18  21
ATOM      1  F   UNL     1       2.214  -9.720  36.272  0.00  0.00    -0.205 F 
ATOM     21  C   UNL     1       6.216  -8.763  36.551  0.00  0.00    +0.037 A 
ATOM     22  C   UNL     1       5.709  -9.282  35.362  0.00  0.00    +0.016 A 
ATOM     23  C   UNL     1       5.379  -8.565  37.646  0.00  0.00    +0.016 A 
ATOM     25  C   UNL     1       4.355  -9.607  35.269  0.00  0.00    +0.039 A 
ATOM     26  C   UNL     1       4.025  -8.889  37.551  0.00  0.00    +0.039 A 
ATOM     27  C   UNL     1       3.513  -9.410  36.363  0.00  0.00    +0.123 A 
ENDBRANCH  18  21
BRANCH  19   8
ATOM      5  O   UNL     1       6.373 -11.578  32.182  0.00  0.00    -0.270 OA
ATOM      8  N   UNL     1       7.310 -10.074  30.674  0.00  0.00    -0.277 N 
ATOM     24  C   UNL     1       6.805 -11.307  31.064  0.00  0.00    +0.248 C 
ATOM     34  H   UNL     1       7.785  -9.966  29.784  0.00  0.00    +0.155 HD
BRANCH  24  28
ATOM      2  F   UNL     1       6.718 -15.247  27.108  0.00  0.00    -0.205 F 
ATOM     28  C   UNL     1       6.783 -12.356  30.011  0.00  0.00    +0.037 A 
ATOM     29  C   UNL     1       5.772 -13.294  30.029  0.00  0.00    +0.016 A 
ATOM     30  C   UNL     1       7.772 -12.356  29.050  0.00  0.00    +0.016 A 
ATOM     31  C   UNL     1       5.750 -14.279  29.041  0.00  0.00    +0.039 A 
ATOM     32  C   UNL     1       7.750 -13.340  28.062  0.00  0.00    +0.039 A 
ATOM     33  C   UNL     1       6.739 -14.301  28.057  0.00  0.00    +0.123 A 
ENDBRANCH  24  28
ENDBRANCH  19   8
TORSDOF 3
ENDMDL
MODEL 9
REMARK VINA RESULT:      -7.7      6.522     10.602
REMARK  Name = 11885878
REMARK  3 active torsions:
REMARK  status: ('A' for Active; 'I' for Inactive)
REMARK    1  A    between atoms: N_8  and  C_19
REMARK    2  A    between atoms: C_18  and  C_21
REMARK    3  A    between atoms: C_24  and  C_28
REMARK                            x       y       z     vdW  Elec       q    Type
REMARK                         _______ _______ _______ _____ _____    ______ ____
ROOT
ATOM      3  O   UNL     1      20.532   3.551  20.541  0.00  0.00    -0.266 OA
ATOM      4  O   UNL     1      22.445   2.855  25.298  0.00  0.00    -0.270 OA
ATOM      6  N   UNL     1      24.230   3.406  23.888  0.00  0.00    -0.297 N 
ATOM      7  N   UNL     1      22.759   3.942  21.129  0.00  0.00    -0.310 N 
ATOM      9  C   UNL     1      24.365   2.061  21.799  0.00  0.00    +0.027 C 
ATOM     10  C   UNL     1      25.144   4.397  21.802  0.00  0.00    +0.054 C 
ATOM     11  C   UNL     1      25.451   2.997  21.276  0.00  0.00    +0.018 C 
ATOM     12  C   UNL     1      24.355   2.057  23.338  0.00  0.00    +0.113 C 
ATOM     13  C   UNL     1      23.016   2.497  21.214  0.00  0.00    +0.130 C 
ATOM     14  C   UNL     1      25.180   4.390  23.344  0.00  0.00    +0.117 C 
ATOM     15  C   UNL     1      23.784   4.872  21.326  0.00  0.00    +0.027 A 
ATOM     16  C   UNL     1      23.556   6.183  21.131  0.00  0.00    +0.024 A 
ATOM     17  C   UNL     1      21.462   4.333  20.743  0.00  0.00    +0.273 A 
ATOM     18  C   UNL     1      23.243   3.672  24.840  0.00  0.00    +0.247 C 
ATOM     19  C   UNL     1      21.240   5.804  20.563  0.00  0.00    +0.099 A 
ATOM     20  C   UNL     1      22.257   6.653  20.742  0.00  0.00    +0.030 A 
ENDROOT
BRANCH  18  21
ATOM      1  F   UNL     1      22.766   8.913  26.728  0.00  0.00    -0.205 F 
ATOM     21  C   UNL     1      23.118   5.047  25.335  0.00  0.00    +0.037 A 
ATOM     22  C   UNL     1      22.325   5.961  24.647  0.00  0.00    +0.016 A 
ATOM     23  C   UNL     1      23.793   5.430  26.491  0.00  0.00    +0.016 A 
ATOM     25  C   UNL     1      22.205   7.269  25.118  0.00  0.00    +0.039 A 
ATOM     26  C   UNL     1      23.674   6.738  26.962  0.00  0.00    +0.039 A 
ATOM     27  C   UNL     1      22.880   7.658  26.276  0.00  0.00    +0.123 A 
ENDBRANCH  18  21
BRANCH  19   8
ATOM      5  O   UNL     1      19.188   6.683  22.341  0.00  0.00    -0.270 OA
ATOM      8  N   UNL     1      19.993   6.224  20.207  0.00  0.00    -0.277 N 
ATOM     24  C   UNL     1      19.036   6.641  21.122  0.00  0.00    +0.248 C 
ATOM     34  H   UNL     1      19.749   6.074  19.234  0.00  0.00    +0.155 HD
BRANCH  24  28
ATOM      2  F   UNL     1      14.171   8.308  18.946  0.00  0.00    -0.205 F 
ATOM     28  C   UNL     1      17.741   7.084  20.544  0.00  0.00    +0.037 A 
ATOM     29  C   UNL     1      17.245   8.322  20.894  0.00  0.00    +0.016 A 
ATOM     30  C   UNL     1      17.078   6.244  19.673  0.00  0.00    +0.016 A 
ATOM     31  C   UNL     1      16.029   8.739  20.351  0.00  0.00    +0.039 A 
ATOM     32  C   UNL     1      15.863   6.660  19.130  0.00  0.00    +0.039 A 
ATOM     33  C   UNL     1      15.339   7.908  19.468  0.00  0.00    +0.123 A 
ENDBRANCH  24  28
ENDBRANCH  19   8
TORSDOF 3
ENDMDL
MODEL 10
REMARK VINA RESULT:      -7.6     27.930     30.608
REMARK  Name = 11885878
REMARK  3 active torsions:
REMARK  status: ('A' for Active; 'I' for Inactive)
REMARK    1  A    between atoms: N_8  and  C_19
REMARK    2  A    between atoms: C_18  and  C_21
REMARK    3  A    between atoms: C_24  and  C_28
REMARK                            x       y       z     vdW  Elec       q    Type
REMARK                         _______ _______ _______ _____ _____    ______ ____
ROOT
ATOM      3  O   UNL     1      -6.578 -12.770  15.248  0.00  0.00    -0.266 OA
ATOM      4  O   UNL     1     -11.582 -12.089  16.376  0.00  0.00    -0.270 OA
ATOM      6  N   UNL     1     -10.369 -11.868  18.365  0.00  0.00    -0.297 N 
ATOM      7  N   UNL     1      -7.375 -12.149  17.355  0.00  0.00    -0.310 N 
ATOM      9  C   UNL     1      -8.770 -13.719  18.825  0.00  0.00    +0.027 C 
ATOM     10  C   UNL     1      -8.260 -11.439  19.605  0.00  0.00    +0.054 C 
ATOM     11  C   UNL     1      -8.188 -12.917  19.985  0.00  0.00    +0.018 C 
ATOM     12  C   UNL     1     -10.232 -13.310  18.570  0.00  0.00    +0.113 C 
ATOM     13  C   UNL     1      -7.887 -13.508  17.588  0.00  0.00    +0.130 C 
ATOM     14  C   UNL     1      -9.733 -11.031  19.394  0.00  0.00    +0.117 C 
ATOM     15  C   UNL     1      -7.469 -11.162  18.340  0.00  0.00    +0.027 A 
ATOM     16  C   UNL     1      -6.893  -9.962  18.153  0.00  0.00    +0.024 A 
ATOM     17  C   UNL     1      -6.701 -11.927  16.138  0.00  0.00    +0.273 A 
ATOM     18  C   UNL     1     -11.049 -11.395  17.240  0.00  0.00    +0.247 C 
ATOM     19  C   UNL     1      -6.098 -10.568  15.955  0.00  0.00    +0.099 A 
ATOM     20  C   UNL     1      -6.195  -9.663  16.935  0.00  0.00    +0.030 A 
ENDROOT
BRANCH  18  21
ATOM      1  F   UNL     1     -11.347  -5.862  16.495  0.00  0.00    -0.205 F 
ATOM     21  C   UNL     1     -11.127  -9.943  17.045  0.00  0.00    +0.037 A 
ATOM     22  C   UNL     1     -10.000  -9.239  16.631  0.00  0.00    +0.016 A 
ATOM     23  C   UNL     1     -12.328  -9.278  17.274  0.00  0.00    +0.016 A 
ATOM     25  C   UNL     1     -10.074  -7.858  16.444  0.00  0.00    +0.039 A 
ATOM     26  C   UNL     1     -12.402  -7.897  17.089  0.00  0.00    +0.039 A 
ATOM     27  C   UNL     1     -11.276  -7.187  16.674  0.00  0.00    +0.123 A 
ENDBRANCH  18  21
BRANCH  19   8
ATOM      5  O   UNL     1      -7.319  -9.771  13.502  0.00  0.00    -0.270 OA
ATOM      8  N   UNL     1      -5.452 -10.307  14.783  0.00  0.00    -0.277 N 
ATOM     24  C   UNL     1      -6.106  -9.922  13.620  0.00  0.00    +0.248 C 
ATOM     34  H   UNL     1      -4.469 -10.555  14.768  0.00  0.00    +0.155 HD
BRANCH  24  28
ATOM      2  F   UNL     1      -2.820  -8.935   9.214  0.00  0.00    -0.205 F 
ATOM     28  C   UNL     1      -5.231  -9.660  12.447  0.00  0.00    +0.037 A 
ATOM     29  C   UNL     1      -5.668  -8.787  11.473  0.00  0.00    +0.016 A 
ATOM     30  C   UNL     1      -4.010 -10.297  12.371  0.00  0.00    +0.016 A 
ATOM     31  C   UNL     1      -4.848  -8.541  10.371  0.00  0.00    +0.039 A 
ATOM     32  C   UNL     1      -3.189 -10.050  11.271  0.00  0.00    +0.039 A 
ATOM     33  C   UNL     1      -3.608  -9.172  10.271  0.00  0.00    +0.123 A 
ENDBRANCH  24  28
ENDBRANCH  19   8
TORSDOF 3
ENDMDL
