MODEL 1
REMARK VINA RESULT:      -7.5      0.000      0.000
REMARK  Name = 40587853
REMARK  7 active torsions:
REMARK  status: ('A' for Active; 'I' for Inactive)
REMARK    1  A    between atoms: O_3  and  C_30
REMARK    2  A    between atoms: O_3  and  C_31
REMARK    3  A    between atoms: N_4  and  C_10
REMARK    4  A    between atoms: N_4  and  C_14
REMARK    5  A    between atoms: N_5  and  C_11
REMARK    6  A    between atoms: C_14  and  C_16
REMARK    7  A    between atoms: C_19  and  C_25
REMARK                            x       y       z     vdW  Elec       q    Type
REMARK                         _______ _______ _______ _____ _____    ______ ____
ROOT
ATOM      1  O   UNL     1      19.856   6.355  20.088  0.00  0.00    -0.370 OA
ATOM      2  O   UNL     1      19.576   8.085  22.669  0.00  0.00    -0.370 OA
ATOM      8  C   UNL     1      19.659   6.670  22.438  0.00  0.00    +0.168 C 
ATOM      9  C   UNL     1      18.898   6.377  21.160  0.00  0.00    +0.171 C 
ATOM     10  C   UNL     1      21.082   6.272  22.119  0.00  0.00    +0.111 C 
ATOM     11  C   UNL     1      17.965   7.555  21.006  0.00  0.00    +0.130 C 
ATOM     12  C   UNL     1      21.171   6.552  20.628  0.00  0.00    +0.181 C 
ATOM     13  C   UNL     1      18.741   8.681  21.665  0.00  0.00    +0.185 C 
ENDROOT
BRANCH  11   5
ATOM      5  N   UNL     1      16.734   7.308  21.723  0.00  0.00    -0.306 N 
ATOM      6  N   UNL     1      15.442   8.176  19.998  0.00  0.00    -0.214 NA
ATOM      7  N   UNL     1      14.430   7.327  22.014  0.00  0.00    -0.223 NA
ATOM     15  C   UNL     1      15.481   7.618  21.224  0.00  0.00    +0.216 A 
ATOM     19  C   UNL     1      14.205   8.461  19.542  0.00  0.00    +0.076 A 
ATOM     20  C   UNL     1      13.225   7.638  21.496  0.00  0.00    +0.116 A 
ATOM     23  C   UNL     1      13.050   8.212  20.253  0.00  0.00    +0.048 A 
ATOM     33  H   UNL     1      16.766   6.839  22.621  0.00  0.00    +0.149 HD
BRANCH  19  25
ATOM     25  C   UNL     1      14.160   9.060  18.229  0.00  0.00    +0.001 A 
ATOM     26  C   UNL     1      14.347  10.434  18.081  0.00  0.00    +0.013 A 
ATOM     27  C   UNL     1      13.926   8.263  17.108  0.00  0.00    +0.013 A 
ATOM     28  C   UNL     1      14.301  11.011  16.813  0.00  0.00    +0.046 A 
ATOM     29  C   UNL     1      13.879   8.840  15.839  0.00  0.00    +0.046 A 
ATOM     30  C   UNL     1      14.067  10.215  15.692  0.00  0.00    +0.120 A 
BRANCH  30   3
ATOM      3  O   UNL     1      14.020  10.779  14.455  0.00  0.00    -0.495 OA
ATOM     31  C   UNL     1      13.919  12.202  14.394  0.00  0.00    +0.277 C 
ENDBRANCH  30   3
ENDBRANCH  19  25
ENDBRANCH  11   5
BRANCH  10   4
ATOM      4  N   UNL     1      21.309   4.876  22.402  0.00  0.00    -0.305 NA
ATOM     32  H   UNL     1      20.416   4.404  22.548  0.00  0.00    +0.123 HD
BRANCH   4  14
ATOM     14  C   UNL     1      21.996   4.230  21.293  0.00  0.00    +0.116 C 
BRANCH  14  16
ATOM     16  C   UNL     1      22.853   3.083  21.757  0.00  0.00    -0.034 A 
ATOM     17  C   UNL     1      23.625   2.371  20.837  0.00  0.00    +0.005 A 
ATOM     18  C   UNL     1      22.874   2.729  23.106  0.00  0.00    +0.005 A 
ATOM     21  C   UNL     1      24.417   1.308  21.267  0.00  0.00    +0.000 A 
ATOM     22  C   UNL     1      23.668   1.665  23.536  0.00  0.00    +0.000 A 
ATOM     24  C   UNL     1      24.439   0.955  22.616  0.00  0.00    +0.000 A 
ENDBRANCH  14  16
ENDBRANCH   4  14
ENDBRANCH  10   4
TORSDOF 6
ENDMDL
MODEL 2
REMARK VINA RESULT:      -7.5     27.857     31.376
REMARK  Name = 40587853
REMARK  7 active torsions:
REMARK  status: ('A' for Active; 'I' for Inactive)
REMARK    1  A    between atoms: O_3  and  C_30
REMARK    2  A    between atoms: O_3  and  C_31
REMARK    3  A    between atoms: N_4  and  C_10
REMARK    4  A    between atoms: N_4  and  C_14
REMARK    5  A    between atoms: N_5  and  C_11
REMARK    6  A    between atoms: C_14  and  C_16
REMARK    7  A    between atoms: C_19  and  C_25
REMARK                            x       y       z     vdW  Elec       q    Type
REMARK                         _______ _______ _______ _____ _____    ______ ____
ROOT
ATOM      1  O   UNL     1      -6.358 -11.130  10.101  0.00  0.00    -0.370 OA
ATOM      2  O   UNL     1      -5.532  -8.391  11.346  0.00  0.00    -0.370 OA
ATOM      8  C   UNL     1      -5.118  -9.101  10.168  0.00  0.00    +0.168 C 
ATOM      9  C   UNL     1      -5.097 -10.577  10.514  0.00  0.00    +0.171 C 
ATOM     10  C   UNL     1      -6.172  -8.990   9.090  0.00  0.00    +0.111 C 
ATOM     11  C   UNL     1      -4.983 -10.602  12.020  0.00  0.00    +0.130 C 
ATOM     12  C   UNL     1      -7.134 -10.106   9.461  0.00  0.00    +0.181 C 
ATOM     13  C   UNL     1      -5.688  -9.321  12.428  0.00  0.00    +0.185 C 
ENDROOT
BRANCH  11   5
ATOM      5  N   UNL     1      -3.591 -10.554  12.411  0.00  0.00    -0.306 N 
ATOM      6  N   UNL     1      -4.122 -10.630  14.671  0.00  0.00    -0.214 NA
ATOM      7  N   UNL     1      -1.834 -10.514  13.928  0.00  0.00    -0.223 NA
ATOM     15  C   UNL     1      -3.164 -10.565  13.727  0.00  0.00    +0.216 A 
ATOM     19  C   UNL     1      -3.670 -10.644  15.942  0.00  0.00    +0.076 A 
ATOM     20  C   UNL     1      -1.451 -10.532  15.221  0.00  0.00    +0.116 A 
ATOM     23  C   UNL     1      -2.334 -10.596  16.280  0.00  0.00    +0.048 A 
ATOM     33  H   UNL     1      -2.872 -10.560  11.696  0.00  0.00    +0.149 HD
BRANCH  19  25
ATOM     25  C   UNL     1      -4.695 -10.713  16.956  0.00  0.00    +0.001 A 
ATOM     26  C   UNL     1      -5.940 -10.126  16.731  0.00  0.00    +0.013 A 
ATOM     27  C   UNL     1      -4.439 -11.364  18.163  0.00  0.00    +0.013 A 
ATOM     28  C   UNL     1      -6.929 -10.191  17.712  0.00  0.00    +0.046 A 
ATOM     29  C   UNL     1      -5.428 -11.429  19.144  0.00  0.00    +0.046 A 
ATOM     30  C   UNL     1      -6.673 -10.843  18.918  0.00  0.00    +0.120 A 
BRANCH  30   3
ATOM      3  O   UNL     1      -7.638 -10.904  19.876  0.00  0.00    -0.495 OA
ATOM     31  C   UNL     1      -8.991 -10.997  19.430  0.00  0.00    +0.277 C 
ENDBRANCH  30   3
ENDBRANCH  19  25
ENDBRANCH  11   5
BRANCH  10   4
ATOM      4  N   UNL     1      -5.604  -9.204   7.781  0.00  0.00    -0.305 NA
ATOM     32  H   UNL     1      -4.815  -9.847   7.849  0.00  0.00    +0.123 HD
BRANCH   4  14
ATOM     14  C   UNL     1      -6.591  -9.779   6.879  0.00  0.00    +0.116 C 
BRANCH  14  16
ATOM     16  C   UNL     1      -5.959 -10.702   5.872  0.00  0.00    -0.034 A 
ATOM     17  C   UNL     1      -6.598 -10.955   4.658  0.00  0.00    +0.005 A 
ATOM     18  C   UNL     1      -4.733 -11.307   6.154  0.00  0.00    +0.005 A 
ATOM     21  C   UNL     1      -6.012 -11.811   3.726  0.00  0.00    +0.000 A 
ATOM     22  C   UNL     1      -4.147 -12.162   5.220  0.00  0.00    +0.000 A 
ATOM     24  C   UNL     1      -4.787 -12.414   4.007  0.00  0.00    +0.000 A 
ENDBRANCH  14  16
ENDBRANCH   4  14
ENDBRANCH  10   4
TORSDOF 6
ENDMDL
MODEL 3
REMARK VINA RESULT:      -7.2      5.630      7.366
REMARK  Name = 40587853
REMARK  7 active torsions:
REMARK  status: ('A' for Active; 'I' for Inactive)
REMARK    1  A    between atoms: O_3  and  C_30
REMARK    2  A    between atoms: O_3  and  C_31
REMARK    3  A    between atoms: N_4  and  C_10
REMARK    4  A    between atoms: N_4  and  C_14
REMARK    5  A    between atoms: N_5  and  C_11
REMARK    6  A    between atoms: C_14  and  C_16
REMARK    7  A    between atoms: C_19  and  C_25
REMARK                            x       y       z     vdW  Elec       q    Type
REMARK                         _______ _______ _______ _____ _____    ______ ____
ROOT
ATOM      1  O   UNL     1      12.294  13.047  21.214  0.00  0.00    -0.370 OA
ATOM      2  O   UNL     1      12.550  12.408  24.256  0.00  0.00    -0.370 OA
ATOM      8  C   UNL     1      13.242  11.934  23.090  0.00  0.00    +0.168 C 
ATOM      9  C   UNL     1      12.223  11.828  21.973  0.00  0.00    +0.171 C 
ATOM     10  C   UNL     1      14.220  12.977  22.599  0.00  0.00    +0.111 C 
ATOM     11  C   UNL     1      10.896  11.735  22.690  0.00  0.00    +0.130 C 
ATOM     12  C   UNL     1      13.338  13.875  21.748  0.00  0.00    +0.181 C 
ATOM     13  C   UNL     1      11.150  12.523  23.962  0.00  0.00    +0.185 C 
ENDROOT
BRANCH  11   5
ATOM      5  N   UNL     1      10.601  10.355  23.006  0.00  0.00    -0.306 N 
ATOM      6  N   UNL     1      11.424   9.611  20.964  0.00  0.00    -0.214 NA
ATOM      7  N   UNL     1      10.528   8.072  22.587  0.00  0.00    -0.223 NA
ATOM     15  C   UNL     1      10.861   9.300  22.148  0.00  0.00    +0.216 A 
ATOM     19  C   UNL     1      11.667   8.559  20.156  0.00  0.00    +0.076 A 
ATOM     20  C   UNL     1      10.798   7.067  21.730  0.00  0.00    +0.116 A 
ATOM     23  C   UNL     1      11.373   7.253  20.488  0.00  0.00    +0.048 A 
ATOM     33  H   UNL     1      10.228  10.121  23.919  0.00  0.00    +0.149 HD
BRANCH  19  25
ATOM     25  C   UNL     1      12.269   8.889  18.886  0.00  0.00    +0.001 A 
ATOM     26  C   UNL     1      11.580   8.638  17.700  0.00  0.00    +0.013 A 
ATOM     27  C   UNL     1      13.543   9.456  18.846  0.00  0.00    +0.013 A 
ATOM     28  C   UNL     1      12.163   8.955  16.474  0.00  0.00    +0.046 A 
ATOM     29  C   UNL     1      14.127   9.772  17.619  0.00  0.00    +0.046 A 
ATOM     30  C   UNL     1      13.436   9.522  16.434  0.00  0.00    +0.120 A 
BRANCH  30   3
ATOM      3  O   UNL     1      14.006   9.829  15.236  0.00  0.00    -0.495 OA
ATOM     31  C   UNL     1      14.134  11.214  14.914  0.00  0.00    +0.277 C 
ENDBRANCH  30   3
ENDBRANCH  19  25
ENDBRANCH  11   5
BRANCH  10   4
ATOM      4  N   UNL     1      15.270  12.378  21.811  0.00  0.00    -0.305 NA
ATOM     32  H   UNL     1      15.914  13.101  21.490  0.00  0.00    +0.123 HD
BRANCH   4  14
ATOM     14  C   UNL     1      16.018  11.411  22.600  0.00  0.00    +0.116 C 
BRANCH  14  16
ATOM     16  C   UNL     1      15.943  10.028  22.009  0.00  0.00    -0.034 A 
ATOM     17  C   UNL     1      14.927   9.155  22.401  0.00  0.00    +0.005 A 
ATOM     18  C   UNL     1      16.891   9.619  21.071  0.00  0.00    +0.005 A 
ATOM     21  C   UNL     1      14.859   7.874  21.854  0.00  0.00    +0.000 A 
ATOM     22  C   UNL     1      16.822   8.337  20.523  0.00  0.00    +0.000 A 
ATOM     24  C   UNL     1      15.807   7.466  20.915  0.00  0.00    +0.000 A 
ENDBRANCH  14  16
ENDBRANCH   4  14
ENDBRANCH  10   4
TORSDOF 6
ENDMDL
MODEL 4
REMARK VINA RESULT:      -7.1     27.868     31.251
REMARK  Name = 40587853
REMARK  7 active torsions:
REMARK  status: ('A' for Active; 'I' for Inactive)
REMARK    1  A    between atoms: O_3  and  C_30
REMARK    2  A    between atoms: O_3  and  C_31
REMARK    3  A    between atoms: N_4  and  C_10
REMARK    4  A    between atoms: N_4  and  C_14
REMARK    5  A    between atoms: N_5  and  C_11
REMARK    6  A    between atoms: C_14  and  C_16
REMARK    7  A    between atoms: C_19  and  C_25
REMARK                            x       y       z     vdW  Elec       q    Type
REMARK                         _______ _______ _______ _____ _____    ______ ____
ROOT
ATOM      1  O   UNL     1      -7.413 -11.661  16.055  0.00  0.00    -0.370 OA
ATOM      2  O   UNL     1      -6.065 -12.654  18.687  0.00  0.00    -0.370 OA
ATOM      8  C   UNL     1      -6.563 -11.377  18.258  0.00  0.00    +0.168 C 
ATOM      9  C   UNL     1      -6.247 -11.242  16.782  0.00  0.00    +0.171 C 
ATOM     10  C   UNL     1      -8.074 -11.356  18.314  0.00  0.00    +0.111 C 
ATOM     11  C   UNL     1      -5.112 -12.214  16.557  0.00  0.00    +0.130 C 
ATOM     12  C   UNL     1      -8.457 -11.985  16.986  0.00  0.00    +0.181 C 
ATOM     13  C   UNL     1      -5.383 -13.288  17.595  0.00  0.00    +0.185 C 
ENDROOT
BRANCH  11   5
ATOM      5  N   UNL     1      -3.846 -11.567  16.825  0.00  0.00    -0.306 N 
ATOM      6  N   UNL     1      -3.435 -11.219  14.565  0.00  0.00    -0.214 NA
ATOM      7  N   UNL     1      -1.867 -10.500  16.246  0.00  0.00    -0.223 NA
ATOM     15  C   UNL     1      -3.013 -11.075  15.836  0.00  0.00    +0.216 A 
ATOM     19  C   UNL     1      -2.601 -10.725  13.628  0.00  0.00    +0.076 A 
ATOM     20  C   UNL     1      -1.081 -10.027  15.257  0.00  0.00    +0.116 A 
ATOM     23  C   UNL     1      -1.399 -10.113  13.917  0.00  0.00    +0.048 A 
ATOM     33  H   UNL     1      -3.559 -11.412  17.785  0.00  0.00    +0.149 HD
BRANCH  19  25
ATOM     25  C   UNL     1      -3.051 -10.879  12.264  0.00  0.00    +0.001 A 
ATOM     26  C   UNL     1      -3.256  -9.754  11.465  0.00  0.00    +0.013 A 
ATOM     27  C   UNL     1      -3.283 -12.153  11.747  0.00  0.00    +0.013 A 
ATOM     28  C   UNL     1      -3.692  -9.903  10.150  0.00  0.00    +0.046 A 
ATOM     29  C   UNL     1      -3.720 -12.303  10.431  0.00  0.00    +0.046 A 
ATOM     30  C   UNL     1      -3.924 -11.178   9.633  0.00  0.00    +0.120 A 
BRANCH  30   3
ATOM      3  O   UNL     1      -4.353 -11.322   8.349  0.00  0.00    -0.495 OA
ATOM     31  C   UNL     1      -5.533 -10.611   7.974  0.00  0.00    +0.277 C 
ENDBRANCH  30   3
ENDBRANCH  19  25
ENDBRANCH  11   5
BRANCH  10   4
ATOM      4  N   UNL     1      -8.574 -10.006  18.416  0.00  0.00    -0.305 NA
ATOM     32  H   UNL     1      -8.328  -9.484  17.574  0.00  0.00    +0.123 HD
BRANCH   4  14
ATOM     14  C   UNL     1     -10.022 -10.002  18.554  0.00  0.00    +0.116 C 
BRANCH  14  16
ATOM     16  C   UNL     1     -10.668  -8.978  17.661  0.00  0.00    -0.034 A 
ATOM     17  C   UNL     1      -9.901  -7.951  17.108  0.00  0.00    +0.005 A 
ATOM     18  C   UNL     1     -12.034  -9.053  17.386  0.00  0.00    +0.005 A 
ATOM     21  C   UNL     1     -10.500  -7.001  16.281  0.00  0.00    +0.000 A 
ATOM     22  C   UNL     1     -12.632  -8.104  16.558  0.00  0.00    +0.000 A 
ATOM     24  C   UNL     1     -11.866  -7.078  16.006  0.00  0.00    +0.000 A 
ENDBRANCH  14  16
ENDBRANCH   4  14
ENDBRANCH  10   4
TORSDOF 6
ENDMDL
MODEL 5
REMARK VINA RESULT:      -7.1      4.211      5.913
REMARK  Name = 40587853
REMARK  7 active torsions:
REMARK  status: ('A' for Active; 'I' for Inactive)
REMARK    1  A    between atoms: O_3  and  C_30
REMARK    2  A    between atoms: O_3  and  C_31
REMARK    3  A    between atoms: N_4  and  C_10
REMARK    4  A    between atoms: N_4  and  C_14
REMARK    5  A    between atoms: N_5  and  C_11
REMARK    6  A    between atoms: C_14  and  C_16
REMARK    7  A    between atoms: C_19  and  C_25
REMARK                            x       y       z     vdW  Elec       q    Type
REMARK                         _______ _______ _______ _____ _____    ______ ____
ROOT
ATOM      1  O   UNL     1      14.439  12.342  21.524  0.00  0.00    -0.370 OA
ATOM      2  O   UNL     1      14.732  11.242  24.428  0.00  0.00    -0.370 OA
ATOM      8  C   UNL     1      14.912  10.653  23.130  0.00  0.00    +0.168 C 
ATOM      9  C   UNL     1      13.848  11.233  22.220  0.00  0.00    +0.171 C 
ATOM     10  C   UNL     1      16.214  11.119  22.518  0.00  0.00    +0.111 C 
ATOM     11  C   UNL     1      12.776  11.720  23.168  0.00  0.00    +0.130 C 
ATOM     12  C   UNL     1      15.822  12.448  21.894  0.00  0.00    +0.181 C 
ATOM     13  C   UNL     1      13.571  12.086  24.408  0.00  0.00    +0.185 C 
ENDROOT
BRANCH  11   5
ATOM      5  N   UNL     1      11.853  10.647  23.463  0.00  0.00    -0.306 N 
ATOM      6  N   UNL     1      12.135   9.696  21.363  0.00  0.00    -0.214 NA
ATOM      7  N   UNL     1      10.654   8.716  22.991  0.00  0.00    -0.223 NA
ATOM     15  C   UNL     1      11.533   9.644  22.567  0.00  0.00    +0.216 A 
ATOM     19  C   UNL     1      11.804   8.700  20.516  0.00  0.00    +0.076 A 
ATOM     20  C   UNL     1      10.367   7.750  22.094  0.00  0.00    +0.116 A 
ATOM     23  C   UNL     1      10.918   7.690  20.830  0.00  0.00    +0.048 A 
ATOM     33  H   UNL     1      11.443  10.583  24.389  0.00  0.00    +0.149 HD
BRANCH  19  25
ATOM     25  C   UNL     1      12.448   8.753  19.225  0.00  0.00    +0.001 A 
ATOM     26  C   UNL     1      13.059   9.932  18.798  0.00  0.00    +0.013 A 
ATOM     27  C   UNL     1      12.458   7.626  18.404  0.00  0.00    +0.013 A 
ATOM     28  C   UNL     1      13.679   9.984  17.551  0.00  0.00    +0.046 A 
ATOM     29  C   UNL     1      13.078   7.677  17.156  0.00  0.00    +0.046 A 
ATOM     30  C   UNL     1      13.689   8.856  16.730  0.00  0.00    +0.120 A 
BRANCH  30   3
ATOM      3  O   UNL     1      14.293   8.908  15.511  0.00  0.00    -0.495 OA
ATOM     31  C   UNL     1      14.847  10.162  15.114  0.00  0.00    +0.277 C 
ENDBRANCH  30   3
ENDBRANCH  19  25
ENDBRANCH  11   5
BRANCH  10   4
ATOM      4  N   UNL     1      16.681  10.191  21.518  0.00  0.00    -0.305 NA
ATOM     32  H   UNL     1      17.669   9.985  21.674  0.00  0.00    +0.123 HD
BRANCH   4  14
ATOM     14  C   UNL     1      15.935   8.943  21.584  0.00  0.00    +0.116 C 
BRANCH  14  16
ATOM     16  C   UNL     1      16.604   7.848  20.798  0.00  0.00    -0.034 A 
ATOM     17  C   UNL     1      17.906   7.456  21.113  0.00  0.00    +0.005 A 
ATOM     18  C   UNL     1      15.922   7.224  19.752  0.00  0.00    +0.005 A 
ATOM     21  C   UNL     1      18.525   6.442  20.383  0.00  0.00    +0.000 A 
ATOM     22  C   UNL     1      16.543   6.209  19.023  0.00  0.00    +0.000 A 
ATOM     24  C   UNL     1      17.844   5.818  19.339  0.00  0.00    +0.000 A 
ENDBRANCH  14  16
ENDBRANCH   4  14
ENDBRANCH  10   4
TORSDOF 6
ENDMDL
MODEL 6
REMARK VINA RESULT:      -6.9      4.029      7.707
REMARK  Name = 40587853
REMARK  7 active torsions:
REMARK  status: ('A' for Active; 'I' for Inactive)
REMARK    1  A    between atoms: O_3  and  C_30
REMARK    2  A    between atoms: O_3  and  C_31
REMARK    3  A    between atoms: N_4  and  C_10
REMARK    4  A    between atoms: N_4  and  C_14
REMARK    5  A    between atoms: N_5  and  C_11
REMARK    6  A    between atoms: C_14  and  C_16
REMARK    7  A    between atoms: C_19  and  C_25
REMARK                            x       y       z     vdW  Elec       q    Type
REMARK                         _______ _______ _______ _____ _____    ______ ____
ROOT
ATOM      1  O   UNL     1      13.039   9.658  19.029  0.00  0.00    -0.370 OA
ATOM      2  O   UNL     1      13.092   7.905  16.449  0.00  0.00    -0.370 OA
ATOM      8  C   UNL     1      13.984   8.037  17.567  0.00  0.00    +0.168 C 
ATOM      9  C   UNL     1      13.993   9.500  17.966  0.00  0.00    +0.171 C 
ATOM     10  C   UNL     1      13.419   7.329  18.777  0.00  0.00    +0.111 C 
ATOM     11  C   UNL     1      13.522  10.224  16.727  0.00  0.00    +0.130 C 
ATOM     12  C   UNL     1      12.485   8.376  19.360  0.00  0.00    +0.181 C 
ATOM     13  C   UNL     1      12.610   9.203  16.071  0.00  0.00    +0.185 C 
ENDROOT
BRANCH  11   5
ATOM      5  N   UNL     1      14.648  10.516  15.867  0.00  0.00    -0.306 N 
ATOM      6  N   UNL     1      13.308  11.628  14.328  0.00  0.00    -0.214 NA
ATOM      7  N   UNL     1      15.682  11.400  13.986  0.00  0.00    -0.223 NA
ATOM     15  C   UNL     1      14.541  11.210  14.675  0.00  0.00    +0.216 A 
ATOM     19  C   UNL     1      13.243  12.305  13.163  0.00  0.00    +0.076 A 
ATOM     20  C   UNL     1      15.544  12.084  12.832  0.00  0.00    +0.116 A 
ATOM     23  C   UNL     1      14.337  12.565  12.366  0.00  0.00    +0.048 A 
ATOM     33  H   UNL     1      15.580  10.246  16.159  0.00  0.00    +0.149 HD
BRANCH  19  25
ATOM     25  C   UNL     1      11.922  12.753  12.789  0.00  0.00    +0.001 A 
ATOM     26  C   UNL     1      11.581  14.099  12.913  0.00  0.00    +0.013 A 
ATOM     27  C   UNL     1      10.987  11.838  12.305  0.00  0.00    +0.013 A 
ATOM     28  C   UNL     1      10.305  14.531  12.554  0.00  0.00    +0.046 A 
ATOM     29  C   UNL     1       9.711  12.269  11.945  0.00  0.00    +0.046 A 
ATOM     30  C   UNL     1       9.370  13.616  12.070  0.00  0.00    +0.120 A 
BRANCH  30   3
ATOM      3  O   UNL     1       8.124  14.038  11.721  0.00  0.00    -0.495 OA
ATOM     31  C   UNL     1       7.469  13.329  10.669  0.00  0.00    +0.277 C 
ENDBRANCH  30   3
ENDBRANCH  19  25
ENDBRANCH  11   5
BRANCH  10   4
ATOM      4  N   UNL     1      14.462   6.981  19.712  0.00  0.00    -0.305 NA
ATOM     32  H   UNL     1      14.155   6.203  20.296  0.00  0.00    +0.123 HD
BRANCH   4  14
ATOM     14  C   UNL     1      15.671   6.579  19.008  0.00  0.00    +0.116 C 
BRANCH  14  16
ATOM     16  C   UNL     1      16.904   6.797  19.844  0.00  0.00    -0.034 A 
ATOM     17  C   UNL     1      17.997   5.940  19.713  0.00  0.00    +0.005 A 
ATOM     18  C   UNL     1      16.953   7.857  20.751  0.00  0.00    +0.005 A 
ATOM     21  C   UNL     1      19.139   6.142  20.488  0.00  0.00    +0.000 A 
ATOM     22  C   UNL     1      18.096   8.059  21.525  0.00  0.00    +0.000 A 
ATOM     24  C   UNL     1      19.188   7.202  21.394  0.00  0.00    +0.000 A 
ENDBRANCH  14  16
ENDBRANCH   4  14
ENDBRANCH  10   4
TORSDOF 6
ENDMDL
MODEL 7
REMARK VINA RESULT:      -6.9     21.913     26.410
REMARK  Name = 40587853
REMARK  7 active torsions:
REMARK  status: ('A' for Active; 'I' for Inactive)
REMARK    1  A    between atoms: O_3  and  C_30
REMARK    2  A    between atoms: O_3  and  C_31
REMARK    3  A    between atoms: N_4  and  C_10
REMARK    4  A    between atoms: N_4  and  C_14
REMARK    5  A    between atoms: N_5  and  C_11
REMARK    6  A    between atoms: C_14  and  C_16
REMARK    7  A    between atoms: C_19  and  C_25
REMARK                            x       y       z     vdW  Elec       q    Type
REMARK                         _______ _______ _______ _____ _____    ______ ____
ROOT
ATOM      1  O   UNL     1       9.177   3.258  -3.291  0.00  0.00    -0.370 OA
ATOM      2  O   UNL     1      10.048   5.109  -5.646  0.00  0.00    -0.370 OA
ATOM      8  C   UNL     1      10.300   5.132  -4.232  0.00  0.00    +0.168 C 
ATOM      9  C   UNL     1       9.034   4.666  -3.540  0.00  0.00    +0.171 C 
ATOM     10  C   UNL     1      11.327   4.085  -3.864  0.00  0.00    +0.111 C 
ATOM     11  C   UNL     1       7.945   4.909  -4.560  0.00  0.00    +0.130 C 
ATOM     12  C   UNL     1      10.478   2.833  -3.723  0.00  0.00    +0.181 C 
ATOM     13  C   UNL     1       8.679   4.742  -5.877  0.00  0.00    +0.185 C 
ENDROOT
BRANCH  11   5
ATOM      5  N   UNL     1       7.443   6.260  -4.434  0.00  0.00    -0.306 N 
ATOM      6  N   UNL     1       5.237   5.564  -4.650  0.00  0.00    -0.214 NA
ATOM      7  N   UNL     1       5.791   7.890  -4.350  0.00  0.00    -0.223 NA
ATOM     15  C   UNL     1       6.099   6.585  -4.481  0.00  0.00    +0.216 A 
ATOM     19  C   UNL     1       3.936   5.917  -4.687  0.00  0.00    +0.076 A 
ATOM     20  C   UNL     1       4.473   8.171  -4.396  0.00  0.00    +0.116 A 
ATOM     23  C   UNL     1       3.491   7.217  -4.564  0.00  0.00    +0.048 A 
ATOM     33  H   UNL     1       8.092   7.018  -4.253  0.00  0.00    +0.149 HD
BRANCH  19  25
ATOM     25  C   UNL     1       3.010   4.824  -4.869  0.00  0.00    +0.001 A 
ATOM     26  C   UNL     1       3.353   3.746  -5.684  0.00  0.00    +0.013 A 
ATOM     27  C   UNL     1       1.770   4.849  -4.229  0.00  0.00    +0.013 A 
ATOM     28  C   UNL     1       2.457   2.693  -5.861  0.00  0.00    +0.046 A 
ATOM     29  C   UNL     1       0.874   3.795  -4.406  0.00  0.00    +0.046 A 
ATOM     30  C   UNL     1       1.218   2.717  -5.221  0.00  0.00    +0.120 A 
BRANCH  30   3
ATOM      3  O   UNL     1       0.343   1.689  -5.396  0.00  0.00    -0.495 OA
ATOM     31  C   UNL     1       0.284   1.099  -6.695  0.00  0.00    +0.277 C 
ENDBRANCH  30   3
ENDBRANCH  19  25
ENDBRANCH  11   5
BRANCH  10   4
ATOM      4  N   UNL     1      11.984   4.413  -2.622  0.00  0.00    -0.305 NA
ATOM     32  H   UNL     1      11.366   4.198  -1.839  0.00  0.00    +0.123 HD
BRANCH   4  14
ATOM     14  C   UNL     1      13.208   3.641  -2.468  0.00  0.00    +0.116 C 
BRANCH  14  16
ATOM     16  C   UNL     1      13.706   3.657  -1.048  0.00  0.00    -0.034 A 
ATOM     17  C   UNL     1      12.863   3.263  -0.008  0.00  0.00    +0.005 A 
ATOM     18  C   UNL     1      15.010   4.068  -0.771  0.00  0.00    +0.005 A 
ATOM     21  C   UNL     1      13.324   3.279   1.308  0.00  0.00    +0.000 A 
ATOM     22  C   UNL     1      15.471   4.082   0.546  0.00  0.00    +0.000 A 
ATOM     24  C   UNL     1      14.628   3.689   1.585  0.00  0.00    +0.000 A 
ENDBRANCH  14  16
ENDBRANCH   4  14
ENDBRANCH  10   4
TORSDOF 6
ENDMDL
MODEL 8
REMARK VINA RESULT:      -6.8     29.815     33.740
REMARK  Name = 40587853
REMARK  7 active torsions:
REMARK  status: ('A' for Active; 'I' for Inactive)
REMARK    1  A    between atoms: O_3  and  C_30
REMARK    2  A    between atoms: O_3  and  C_31
REMARK    3  A    between atoms: N_4  and  C_10
REMARK    4  A    between atoms: N_4  and  C_14
REMARK    5  A    between atoms: N_5  and  C_11
REMARK    6  A    between atoms: C_14  and  C_16
REMARK    7  A    between atoms: C_19  and  C_25
REMARK                            x       y       z     vdW  Elec       q    Type
REMARK                         _______ _______ _______ _____ _____    ______ ____
ROOT
ATOM      1  O   UNL     1     -16.233   6.440  14.923  0.00  0.00    -0.370 OA
ATOM      2  O   UNL     1     -15.720   7.960  12.248  0.00  0.00    -0.370 OA
ATOM      8  C   UNL     1     -15.233   6.719  12.783  0.00  0.00    +0.168 C 
ATOM      9  C   UNL     1     -15.042   6.916  14.274  0.00  0.00    +0.171 C 
ATOM     10  C   UNL     1     -16.297   5.650  12.686  0.00  0.00    +0.111 C 
ATOM     11  C   UNL     1     -14.920   8.413  14.438  0.00  0.00    +0.130 C 
ATOM     12  C   UNL     1     -17.124   5.900  13.936  0.00  0.00    +0.181 C 
ATOM     13  C   UNL     1     -15.765   8.942  13.294  0.00  0.00    +0.185 C 
ENDROOT
BRANCH  11   5
ATOM      5  N   UNL     1     -13.541   8.817  14.271  0.00  0.00    -0.306 N 
ATOM      6  N   UNL     1     -13.018   8.290  16.472  0.00  0.00    -0.214 NA
ATOM      7  N   UNL     1     -11.355   9.171  14.969  0.00  0.00    -0.223 NA
ATOM     15  C   UNL     1     -12.598   8.758  15.281  0.00  0.00    +0.216 A 
ATOM     19  C   UNL     1     -12.072   8.242  17.432  0.00  0.00    +0.076 A 
ATOM     20  C   UNL     1     -10.460   9.097  15.975  0.00  0.00    +0.116 A 
ATOM     23  C   UNL     1     -10.765   8.636  17.239  0.00  0.00    +0.048 A 
ATOM     33  H   UNL     1     -13.216   9.117  13.358  0.00  0.00    +0.149 HD
BRANCH  19  25
ATOM     25  C   UNL     1     -12.521   7.742  18.710  0.00  0.00    +0.001 A 
ATOM     26  C   UNL     1     -11.599   7.221  19.618  0.00  0.00    +0.013 A 
ATOM     27  C   UNL     1     -13.876   7.777  19.035  0.00  0.00    +0.013 A 
ATOM     28  C   UNL     1     -12.033   6.735  20.851  0.00  0.00    +0.046 A 
ATOM     29  C   UNL     1     -14.311   7.291  20.268  0.00  0.00    +0.046 A 
ATOM     30  C   UNL     1     -13.389   6.771  21.176  0.00  0.00    +0.120 A 
BRANCH  30   3
ATOM      3  O   UNL     1     -13.812   6.295  22.379  0.00  0.00    -0.495 OA
ATOM     31  C   UNL     1     -14.522   5.056  22.374  0.00  0.00    +0.277 C 
ENDBRANCH  30   3
ENDBRANCH  19  25
ENDBRANCH  11   5
BRANCH  10   4
ATOM      4  N   UNL     1     -15.714   4.331  12.700  0.00  0.00    -0.305 NA
ATOM     32  H   UNL     1     -16.454   3.628  12.726  0.00  0.00    +0.123 HD
BRANCH   4  14
ATOM     14  C   UNL     1     -14.911   4.110  11.507  0.00  0.00    +0.116 C 
BRANCH  14  16
ATOM     16  C   UNL     1     -15.400   2.927  10.714  0.00  0.00    -0.034 A 
ATOM     17  C   UNL     1     -16.417   2.118  11.221  0.00  0.00    +0.005 A 
ATOM     18  C   UNL     1     -14.834   2.640   9.471  0.00  0.00    +0.005 A 
ATOM     21  C   UNL     1     -16.869   1.023  10.486  0.00  0.00    +0.000 A 
ATOM     22  C   UNL     1     -15.287   1.544   8.736  0.00  0.00    +0.000 A 
ATOM     24  C   UNL     1     -16.303   0.736   9.243  0.00  0.00    +0.000 A 
ENDBRANCH  14  16
ENDBRANCH   4  14
ENDBRANCH  10   4
TORSDOF 6
ENDMDL
MODEL 9
REMARK VINA RESULT:      -6.7     29.376     32.258
REMARK  Name = 40587853
REMARK  7 active torsions:
REMARK  status: ('A' for Active; 'I' for Inactive)
REMARK    1  A    between atoms: O_3  and  C_30
REMARK    2  A    between atoms: O_3  and  C_31
REMARK    3  A    between atoms: N_4  and  C_10
REMARK    4  A    between atoms: N_4  and  C_14
REMARK    5  A    between atoms: N_5  and  C_11
REMARK    6  A    between atoms: C_14  and  C_16
REMARK    7  A    between atoms: C_19  and  C_25
REMARK                            x       y       z     vdW  Elec       q    Type
REMARK                         _______ _______ _______ _____ _____    ______ ____
ROOT
ATOM      1  O   UNL     1     -15.244  11.316  23.166  0.00  0.00    -0.370 OA
ATOM      2  O   UNL     1     -17.491   9.790  24.699  0.00  0.00    -0.370 OA
ATOM      8  C   UNL     1     -16.153  10.181  25.048  0.00  0.00    +0.168 C 
ATOM      9  C   UNL     1     -15.301  10.029  23.804  0.00  0.00    +0.171 C 
ATOM     10  C   UNL     1     -16.101  11.660  25.353  0.00  0.00    +0.111 C 
ATOM     11  C   UNL     1     -16.070   9.053  22.945  0.00  0.00    +0.130 C 
ATOM     12  C   UNL     1     -15.951  12.272  23.970  0.00  0.00    +0.181 C 
ATOM     13  C   UNL     1     -17.510   9.323  23.342  0.00  0.00    +0.185 C 
ENDROOT
BRANCH  11   5
ATOM      5  N   UNL     1     -15.702   7.697  23.287  0.00  0.00    -0.306 N 
ATOM      6  N   UNL     1     -13.924   7.699  21.792  0.00  0.00    -0.214 NA
ATOM      7  N   UNL     1     -14.425   5.764  23.138  0.00  0.00    -0.223 NA
ATOM     15  C   UNL     1     -14.638   7.024  22.713  0.00  0.00    +0.216 A 
ATOM     19  C   UNL     1     -12.892   7.014  21.258  0.00  0.00    +0.076 A 
ATOM     20  C   UNL     1     -13.378   5.138  22.562  0.00  0.00    +0.116 A 
ATOM     23  C   UNL     1     -12.568   5.720  21.607  0.00  0.00    +0.048 A 
ATOM     33  H   UNL     1     -16.210   7.213  24.019  0.00  0.00    +0.149 HD
BRANCH  19  25
ATOM     25  C   UNL     1     -12.125   7.735  20.270  0.00  0.00    +0.001 A 
ATOM     26  C   UNL     1     -11.673   7.081  19.123  0.00  0.00    +0.013 A 
ATOM     27  C   UNL     1     -11.834   9.085  20.463  0.00  0.00    +0.013 A 
ATOM     28  C   UNL     1     -10.930   7.778  18.171  0.00  0.00    +0.046 A 
ATOM     29  C   UNL     1     -11.091   9.782  19.510  0.00  0.00    +0.046 A 
ATOM     30  C   UNL     1     -10.639   9.128  18.364  0.00  0.00    +0.120 A 
BRANCH  30   3
ATOM      3  O   UNL     1      -9.912   9.806  17.435  0.00  0.00    -0.495 OA
ATOM     31  C   UNL     1     -10.033  11.229  17.428  0.00  0.00    +0.277 C 
ENDBRANCH  30   3
ENDBRANCH  19  25
ENDBRANCH  11   5
BRANCH  10   4
ATOM      4  N   UNL     1     -14.970  11.981  26.190  0.00  0.00    -0.305 NA
ATOM     32  H   UNL     1     -15.206  12.761  26.803  0.00  0.00    +0.123 HD
BRANCH   4  14
ATOM     14  C   UNL     1     -14.602  10.840  27.015  0.00  0.00    +0.116 C 
BRANCH  14  16
ATOM     16  C   UNL     1     -13.114  10.614  27.025  0.00  0.00    -0.034 A 
ATOM     17  C   UNL     1     -12.365  10.839  25.870  0.00  0.00    +0.005 A 
ATOM     18  C   UNL     1     -12.483  10.177  28.191  0.00  0.00    +0.005 A 
ATOM     21  C   UNL     1     -10.987  10.627  25.880  0.00  0.00    +0.000 A 
ATOM     22  C   UNL     1     -11.104   9.967  28.200  0.00  0.00    +0.000 A 
ATOM     24  C   UNL     1     -10.356  10.191  27.045  0.00  0.00    +0.000 A 
ENDBRANCH  14  16
ENDBRANCH   4  14
ENDBRANCH  10   4
TORSDOF 6
ENDMDL
MODEL 10
REMARK VINA RESULT:      -6.7      4.040      7.555
REMARK  Name = 40587853
REMARK  7 active torsions:
REMARK  status: ('A' for Active; 'I' for Inactive)
REMARK    1  A    between atoms: O_3  and  C_30
REMARK    2  A    between atoms: O_3  and  C_31
REMARK    3  A    between atoms: N_4  and  C_10
REMARK    4  A    between atoms: N_4  and  C_14
REMARK    5  A    between atoms: N_5  and  C_11
REMARK    6  A    between atoms: C_14  and  C_16
REMARK    7  A    between atoms: C_19  and  C_25
REMARK                            x       y       z     vdW  Elec       q    Type
REMARK                         _______ _______ _______ _____ _____    ______ ____
ROOT
ATOM      1  O   UNL     1      12.338   8.552  19.032  0.00  0.00    -0.370 OA
ATOM      2  O   UNL     1      13.865   8.113  16.348  0.00  0.00    -0.370 OA
ATOM      8  C   UNL     1      14.294   8.265  17.710  0.00  0.00    +0.168 C 
ATOM      9  C   UNL     1      13.378   9.282  18.361  0.00  0.00    +0.171 C 
ATOM     10  C   UNL     1      14.041   6.992  18.486  0.00  0.00    +0.111 C 
ATOM     11  C   UNL     1      12.805  10.061  17.199  0.00  0.00    +0.130 C 
ATOM     12  C   UNL     1      12.586   7.145  18.895  0.00  0.00    +0.181 C 
ATOM     13  C   UNL     1      12.795   9.033  16.083  0.00  0.00    +0.185 C 
ENDROOT
BRANCH  11   5
ATOM      5  N   UNL     1      13.683  11.160  16.861  0.00  0.00    -0.306 N 
ATOM      6  N   UNL     1      13.287  12.227  18.886  0.00  0.00    -0.214 NA
ATOM      7  N   UNL     1      14.763  13.180  17.237  0.00  0.00    -0.223 NA
ATOM     15  C   UNL     1      13.920  12.236  17.697  0.00  0.00    +0.216 A 
ATOM     19  C   UNL     1      13.545  13.289  19.677  0.00  0.00    +0.076 A 
ATOM     20  C   UNL     1      14.976  14.213  18.078  0.00  0.00    +0.116 A 
ATOM     23  C   UNL     1      14.388  14.321  19.323  0.00  0.00    +0.048 A 
ATOM     33  H   UNL     1      14.198  11.135  15.988  0.00  0.00    +0.149 HD
BRANCH  19  25
ATOM     25  C   UNL     1      12.868  13.282  20.952  0.00  0.00    +0.001 A 
ATOM     26  C   UNL     1      13.324  14.095  21.989  0.00  0.00    +0.013 A 
ATOM     27  C   UNL     1      11.758  12.460  21.146  0.00  0.00    +0.013 A 
ATOM     28  C   UNL     1      12.670  14.086  23.221  0.00  0.00    +0.046 A 
ATOM     29  C   UNL     1      11.104  12.451  22.378  0.00  0.00    +0.046 A 
ATOM     30  C   UNL     1      11.561  13.264  23.415  0.00  0.00    +0.120 A 
BRANCH  30   3
ATOM      3  O   UNL     1      10.924  13.254  24.618  0.00  0.00    -0.495 OA
ATOM     31  C   UNL     1      10.916  12.022  25.338  0.00  0.00    +0.277 C 
ENDBRANCH  30   3
ENDBRANCH  19  25
ENDBRANCH  11   5
BRANCH  10   4
ATOM      4  N   UNL     1      14.902   6.905  19.640  0.00  0.00    -0.305 NA
ATOM     32  H   UNL     1      14.428   6.393  20.385  0.00  0.00    +0.123 HD
BRANCH   4  14
ATOM     14  C   UNL     1      16.135   6.205  19.312  0.00  0.00    +0.116 C 
BRANCH  14  16
ATOM     16  C   UNL     1      17.303   6.724  20.107  0.00  0.00    -0.034 A 
ATOM     17  C   UNL     1      17.175   7.898  20.851  0.00  0.00    +0.005 A 
ATOM     18  C   UNL     1      18.514   6.031  20.100  0.00  0.00    +0.005 A 
ATOM     21  C   UNL     1      18.258   8.378  21.587  0.00  0.00    +0.000 A 
ATOM     22  C   UNL     1      19.596   6.512  20.837  0.00  0.00    +0.000 A 
ATOM     24  C   UNL     1      19.468   7.685  21.580  0.00  0.00    +0.000 A 
ENDBRANCH  14  16
ENDBRANCH   4  14
ENDBRANCH  10   4
TORSDOF 6
ENDMDL
